MODEL 1
REMARK VINA RESULT:      -8.5      0.000      0.000
REMARK  Name = 
REMARK  4 active torsions:
REMARK  status: ('A' for Active; 'I' for Inactive)
REMARK    1  A    between atoms: C_4  and  C_5
REMARK    2  A    between atoms: C_5  and  C_6
REMARK    3  A    between atoms: N_17  and  C_18
REMARK    4  A    between atoms: C_18  and  C_19
REMARK                            x       y       z     vdW  Elec       q    Type
REMARK                         _______ _______ _______ _____ _____    ______ ____
ROOT
ATOM      1  O   UNL     1       3.998   2.739  17.658  0.00  0.00    +0.000 OA
ATOM      2  C   UNL     1       3.920   3.923  17.387  0.00  0.00    +0.000 C 
ATOM      3  O   UNL     1       2.785   4.649  17.556  0.00  0.00    +0.000 OA
ATOM      4  C   UNL     1       3.106   6.049  17.480  0.00  0.00    +0.000 C 
ATOM      5  C   UNL     1       4.545   6.017  17.033  0.00  0.00    +0.000 C 
ATOM      6  O   UNL     1       5.262   6.989  16.854  0.00  0.00    +0.000 OA
ATOM      7  N   UNL     1       4.909   4.717  16.921  0.00  0.00    +0.000 N 
ENDROOT
BRANCH   4   8
ATOM      8  C   UNL     1       2.953   6.684  18.858  0.00  0.00    +0.000 C 
BRANCH   8   9
ATOM      9  C   UNL     1       2.207   7.988  18.817  0.00  0.00    +0.000 A 
ATOM     10  C   UNL     1       2.140   8.857  17.741  0.00  0.00    +0.000 A 
ATOM     11  N   UNL     1       1.340   9.907  18.086  0.00  0.00    +0.000 N 
ATOM     12  C   UNL     1       0.874   9.754  19.373  0.00  0.00    +0.000 A 
ATOM     13  C   UNL     1       0.021  10.571  20.122  0.00  0.00    +0.000 A 
ATOM     14  C   UNL     1      -0.286  10.160  21.421  0.00  0.00    +0.000 A 
ATOM     15  C   UNL     1       0.264   8.997  21.953  0.00  0.00    +0.000 A 
ATOM     16  C   UNL     1       1.130   8.201  21.192  0.00  0.00    +0.000 A 
ATOM     17  C   UNL     1       1.429   8.574  19.867  0.00  0.00    +0.000 A 
ATOM     18  H   UNL     1       1.117  10.695  17.482  0.00  0.00    +0.000 HD
ENDBRANCH   8   9
ENDBRANCH   4   8
BRANCH   7  19
ATOM     19  C   UNL     1       6.232   4.254  16.550  0.00  0.00    +0.000 C 
BRANCH  19  20
ATOM     20  C   UNL     1       6.459   4.343  15.056  0.00  0.00    +0.000 A 
ATOM     21  C   UNL     1       5.700   3.557  14.169  0.00  0.00    +0.000 A 
ATOM     22  C   UNL     1       5.984   3.562  12.804  0.00  0.00    +0.000 A 
ATOM     23  F   UNL     1       5.277   2.774  11.984  0.00  0.00    +0.000 F 
ATOM     24  C   UNL     1       7.002   4.347  12.282  0.00  0.00    +0.000 A 
ATOM     25  C   UNL     1       7.724   5.155  13.147  0.00  0.00    +0.000 A 
ATOM     26  F   UNL     1       8.704   5.928  12.658  0.00  0.00    +0.000 F 
ATOM     27  C   UNL     1       7.467   5.160  14.520  0.00  0.00    +0.000 A 
ENDBRANCH  19  20
ENDBRANCH   7  19
TORSDOF 4
ENDMDL
MODEL 2
REMARK VINA RESULT:      -8.4      0.127      1.613
REMARK  Name = 
REMARK  4 active torsions:
REMARK  status: ('A' for Active; 'I' for Inactive)
REMARK    1  A    between atoms: C_4  and  C_5
REMARK    2  A    between atoms: C_5  and  C_6
REMARK    3  A    between atoms: N_17  and  C_18
REMARK    4  A    between atoms: C_18  and  C_19
REMARK                            x       y       z     vdW  Elec       q    Type
REMARK                         _______ _______ _______ _____ _____    ______ ____
ROOT
ATOM      1  O   UNL     1       3.976   2.809  17.602  0.00  0.00    +0.000 OA
ATOM      2  C   UNL     1       3.938   4.002  17.365  0.00  0.00    +0.000 C 
ATOM      3  O   UNL     1       2.809   4.746  17.489  0.00  0.00    +0.000 OA
ATOM      4  C   UNL     1       3.161   6.141  17.476  0.00  0.00    +0.000 C 
ATOM      5  C   UNL     1       4.622   6.092  17.114  0.00  0.00    +0.000 C 
ATOM      6  O   UNL     1       5.368   7.054  17.008  0.00  0.00    +0.000 OA
ATOM      7  N   UNL     1       4.967   4.788  16.982  0.00  0.00    +0.000 N 
ENDROOT
BRANCH   4   8
ATOM      8  C   UNL     1       2.939   6.737  18.862  0.00  0.00    +0.000 C 
BRANCH   8   9
ATOM      9  C   UNL     1       2.162   8.023  18.823  0.00  0.00    +0.000 A 
ATOM     10  C   UNL     1       2.024   8.861  17.729  0.00  0.00    +0.000 A 
ATOM     11  N   UNL     1       1.218   9.902  18.085  0.00  0.00    +0.000 N 
ATOM     12  C   UNL     1       0.817   9.774  19.397  0.00  0.00    +0.000 A 
ATOM     13  C   UNL     1      -0.018  10.592  20.164  0.00  0.00    +0.000 A 
ATOM     14  C   UNL     1      -0.254  10.210  21.487  0.00  0.00    +0.000 A 
ATOM     15  C   UNL     1       0.347   9.074  22.021  0.00  0.00    +0.000 A 
ATOM     16  C   UNL     1       1.194   8.277  21.240  0.00  0.00    +0.000 A 
ATOM     17  C   UNL     1       1.421   8.620  19.894  0.00  0.00    +0.000 A 
ATOM     18  H   UNL     1       0.948  10.668  17.472  0.00  0.00    +0.000 HD
ENDBRANCH   8   9
ENDBRANCH   4   8
BRANCH   7  19
ATOM     19  C   UNL     1       6.302   4.309  16.675  0.00  0.00    +0.000 C 
BRANCH  19  20
ATOM     20  C   UNL     1       6.566   4.301  15.185  0.00  0.00    +0.000 A 
ATOM     21  C   UNL     1       7.587   5.097  14.635  0.00  0.00    +0.000 A 
ATOM     22  C   UNL     1       7.757   5.169  13.252  0.00  0.00    +0.000 A 
ATOM     23  F   UNL     1       8.708   5.966  12.749  0.00  0.00    +0.000 F 
ATOM     24  C   UNL     1       6.944   4.449  12.388  0.00  0.00    +0.000 A 
ATOM     25  C   UNL     1       5.964   3.630  12.929  0.00  0.00    +0.000 A 
ATOM     26  F   UNL     1       5.177   2.921  12.108  0.00  0.00    +0.000 F 
ATOM     27  C   UNL     1       5.766   3.550  14.308  0.00  0.00    +0.000 A 
ENDBRANCH  19  20
ENDBRANCH   7  19
TORSDOF 4
ENDMDL
MODEL 3
REMARK VINA RESULT:      -8.3      4.758      8.527
REMARK  Name = 
REMARK  4 active torsions:
REMARK  status: ('A' for Active; 'I' for Inactive)
REMARK    1  A    between atoms: C_4  and  C_5
REMARK    2  A    between atoms: C_5  and  C_6
REMARK    3  A    between atoms: N_17  and  C_18
REMARK    4  A    between atoms: C_18  and  C_19
REMARK                            x       y       z     vdW  Elec       q    Type
REMARK                         _______ _______ _______ _____ _____    ______ ____
ROOT
ATOM      1  O   UNL     1      -0.175   9.149  21.184  0.00  0.00    +0.000 OA
ATOM      2  C   UNL     1       0.708   9.061  20.351  0.00  0.00    +0.000 C 
ATOM      3  O   UNL     1       1.587   8.027  20.309  0.00  0.00    +0.000 OA
ATOM      4  C   UNL     1       2.263   8.035  19.039  0.00  0.00    +0.000 C 
ATOM      5  C   UNL     1       1.801   9.342  18.447  0.00  0.00    +0.000 C 
ATOM      6  O   UNL     1       2.100   9.776  17.345  0.00  0.00    +0.000 OA
ATOM      7  N   UNL     1       0.955   9.917  19.335  0.00  0.00    +0.000 N 
ENDROOT
BRANCH   4   8
ATOM      8  C   UNL     1       1.804   6.842  18.208  0.00  0.00    +0.000 C 
BRANCH   8   9
ATOM      9  C   UNL     1       2.619   5.606  18.468  0.00  0.00    +0.000 A 
ATOM     10  C   UNL     1       3.726   5.192  17.747  0.00  0.00    +0.000 A 
ATOM     11  N   UNL     1       4.204   4.046  18.314  0.00  0.00    +0.000 N 
ATOM     12  C   UNL     1       3.434   3.689  19.399  0.00  0.00    +0.000 A 
ATOM     13  C   UNL     1       3.567   2.609  20.277  0.00  0.00    +0.000 A 
ATOM     14  C   UNL     1       2.626   2.496  21.304  0.00  0.00    +0.000 A 
ATOM     15  C   UNL     1       1.583   3.410  21.422  0.00  0.00    +0.000 A 
ATOM     16  C   UNL     1       1.459   4.475  20.522  0.00  0.00    +0.000 A 
ATOM     17  C   UNL     1       2.413   4.633  19.498  0.00  0.00    +0.000 A 
ATOM     18  H   UNL     1       5.014   3.525  17.985  0.00  0.00    +0.000 HD
ENDBRANCH   8   9
ENDBRANCH   4   8
BRANCH   7  19
ATOM     19  C   UNL     1       0.260  11.173  19.127  0.00  0.00    +0.000 C 
BRANCH  19  20
ATOM     20  C   UNL     1      -1.122  10.960  18.549  0.00  0.00    +0.000 A 
ATOM     21  C   UNL     1      -1.312  10.117  17.438  0.00  0.00    +0.000 A 
ATOM     22  C   UNL     1      -2.569  10.008  16.843  0.00  0.00    +0.000 A 
ATOM     23  F   UNL     1      -2.717   9.234  15.761  0.00  0.00    +0.000 F 
ATOM     24  C   UNL     1      -3.663  10.705  17.335  0.00  0.00    +0.000 A 
ATOM     25  C   UNL     1      -3.489  11.504  18.456  0.00  0.00    +0.000 A 
ATOM     26  F   UNL     1      -4.537  12.176  18.951  0.00  0.00    +0.000 F 
ATOM     27  C   UNL     1      -2.239  11.639  19.064  0.00  0.00    +0.000 A 
ENDBRANCH  19  20
ENDBRANCH   7  19
TORSDOF 4
ENDMDL
MODEL 4
REMARK VINA RESULT:      -8.1      4.761      8.580
REMARK  Name = 
REMARK  4 active torsions:
REMARK  status: ('A' for Active; 'I' for Inactive)
REMARK    1  A    between atoms: C_4  and  C_5
REMARK    2  A    between atoms: C_5  and  C_6
REMARK    3  A    between atoms: N_17  and  C_18
REMARK    4  A    between atoms: C_18  and  C_19
REMARK                            x       y       z     vdW  Elec       q    Type
REMARK                         _______ _______ _______ _____ _____    ______ ____
ROOT
ATOM      1  O   UNL     1      -0.279   9.216  21.117  0.00  0.00    +0.000 OA
ATOM      2  C   UNL     1       0.632   9.132  20.314  0.00  0.00    +0.000 C 
ATOM      3  O   UNL     1       1.501   8.089  20.287  0.00  0.00    +0.000 OA
ATOM      4  C   UNL     1       2.221   8.109  19.042  0.00  0.00    +0.000 C 
ATOM      5  C   UNL     1       1.793   9.429  18.454  0.00  0.00    +0.000 C 
ATOM      6  O   UNL     1       2.135   9.875  17.369  0.00  0.00    +0.000 OA
ATOM      7  N   UNL     1       0.922   9.999  19.321  0.00  0.00    +0.000 N 
ENDROOT
BRANCH   4   8
ATOM      8  C   UNL     1       1.779   6.932  18.177  0.00  0.00    +0.000 C 
BRANCH   8   9
ATOM      9  C   UNL     1       2.584   5.690  18.433  0.00  0.00    +0.000 A 
ATOM     10  C   UNL     1       3.707   5.285  17.731  0.00  0.00    +0.000 A 
ATOM     11  N   UNL     1       4.168   4.128  18.288  0.00  0.00    +0.000 N 
ATOM     12  C   UNL     1       3.372   3.754  19.348  0.00  0.00    +0.000 A 
ATOM     13  C   UNL     1       3.481   2.658  20.210  0.00  0.00    +0.000 A 
ATOM     14  C   UNL     1       2.517   2.529  21.212  0.00  0.00    +0.000 A 
ATOM     15  C   UNL     1       1.473   3.444  21.323  0.00  0.00    +0.000 A 
ATOM     16  C   UNL     1       1.373   4.526  20.439  0.00  0.00    +0.000 A 
ATOM     17  C   UNL     1       2.352   4.699  19.441  0.00  0.00    +0.000 A 
ATOM     18  H   UNL     1       4.984   3.610  17.969  0.00  0.00    +0.000 HD
ENDBRANCH   8   9
ENDBRANCH   4   8
BRANCH   7  19
ATOM     19  C   UNL     1       0.248  11.266  19.107  0.00  0.00    +0.000 C 
BRANCH  19  20
ATOM     20  C   UNL     1      -1.122  11.075  18.493  0.00  0.00    +0.000 A 
ATOM     21  C   UNL     1      -2.245  11.731  19.030  0.00  0.00    +0.000 A 
ATOM     22  C   UNL     1      -3.520  11.470  18.529  0.00  0.00    +0.000 A 
ATOM     23  F   UNL     1      -4.579  12.073  19.083  0.00  0.00    +0.000 F 
ATOM     24  C   UNL     1      -3.715  10.579  17.483  0.00  0.00    +0.000 A 
ATOM     25  C   UNL     1      -2.606   9.963  16.923  0.00  0.00    +0.000 A 
ATOM     26  F   UNL     1      -2.776   9.107  15.905  0.00  0.00    +0.000 F 
ATOM     27  C   UNL     1      -1.320  10.199  17.413  0.00  0.00    +0.000 A 
ENDBRANCH  19  20
ENDBRANCH   7  19
TORSDOF 4
ENDMDL
MODEL 5
REMARK VINA RESULT:      -7.8      4.405      8.699
REMARK  Name = 
REMARK  4 active torsions:
REMARK  status: ('A' for Active; 'I' for Inactive)
REMARK    1  A    between atoms: C_4  and  C_5
REMARK    2  A    between atoms: C_5  and  C_6
REMARK    3  A    between atoms: N_17  and  C_18
REMARK    4  A    between atoms: C_18  and  C_19
REMARK                            x       y       z     vdW  Elec       q    Type
REMARK                         _______ _______ _______ _____ _____    ______ ____
ROOT
ATOM      1  O   UNL     1       0.076   8.985  21.179  0.00  0.00    +0.000 OA
ATOM      2  C   UNL     1       0.944   8.773  20.352  0.00  0.00    +0.000 C 
ATOM      3  O   UNL     1       1.710   7.651  20.352  0.00  0.00    +0.000 OA
ATOM      4  C   UNL     1       2.380   7.540  19.084  0.00  0.00    +0.000 C 
ATOM      5  C   UNL     1       2.058   8.864  18.441  0.00  0.00    +0.000 C 
ATOM      6  O   UNL     1       2.399   9.221  17.324  0.00  0.00    +0.000 OA
ATOM      7  N   UNL     1       1.277   9.558  19.305  0.00  0.00    +0.000 N 
ENDROOT
BRANCH   4   8
ATOM      8  C   UNL     1       1.797   6.370  18.299  0.00  0.00    +0.000 C 
BRANCH   8   9
ATOM      9  C   UNL     1       2.808   5.292  18.026  0.00  0.00    +0.000 A 
ATOM     10  C   UNL     1       2.756   3.988  18.489  0.00  0.00    +0.000 A 
ATOM     11  N   UNL     1       3.836   3.314  17.997  0.00  0.00    +0.000 N 
ATOM     12  C   UNL     1       4.608   4.147  17.217  0.00  0.00    +0.000 A 
ATOM     13  C   UNL     1       5.783   3.878  16.508  0.00  0.00    +0.000 A 
ATOM     14  C   UNL     1       6.357   4.931  15.791  0.00  0.00    +0.000 A 
ATOM     15  C   UNL     1       5.789   6.203  15.810  0.00  0.00    +0.000 A 
ATOM     16  C   UNL     1       4.621   6.454  16.540  0.00  0.00    +0.000 A 
ATOM     17  C   UNL     1       4.003   5.402  17.244  0.00  0.00    +0.000 A 
ATOM     18  H   UNL     1       4.047   2.336  18.179  0.00  0.00    +0.000 HD
ENDBRANCH   8   9
ENDBRANCH   4   8
BRANCH   7  19
ATOM     19  C   UNL     1       0.718  10.871  19.046  0.00  0.00    +0.000 C 
BRANCH  19  20
ATOM     20  C   UNL     1      -0.731  10.789  18.617  0.00  0.00    +0.000 A 
ATOM     21  C   UNL     1      -1.110   9.983  17.528  0.00  0.00    +0.000 A 
ATOM     22  C   UNL     1      -2.427   9.993  17.068  0.00  0.00    +0.000 A 
ATOM     23  F   UNL     1      -2.755   9.251  16.003  0.00  0.00    +0.000 F 
ATOM     24  C   UNL     1      -3.397  10.776  17.677  0.00  0.00    +0.000 A 
ATOM     25  C   UNL     1      -3.036  11.539  18.777  0.00  0.00    +0.000 A 
ATOM     26  F   UNL     1      -3.963  12.294  19.383  0.00  0.00    +0.000 F 
ATOM     27  C   UNL     1      -1.722  11.556  19.250  0.00  0.00    +0.000 A 
ENDBRANCH  19  20
ENDBRANCH   7  19
TORSDOF 4
ENDMDL
MODEL 6
REMARK VINA RESULT:      -7.7      2.767      4.439
REMARK  Name = 
REMARK  4 active torsions:
REMARK  status: ('A' for Active; 'I' for Inactive)
REMARK    1  A    between atoms: C_4  and  C_5
REMARK    2  A    between atoms: C_5  and  C_6
REMARK    3  A    between atoms: N_17  and  C_18
REMARK    4  A    between atoms: C_18  and  C_19
REMARK                            x       y       z     vdW  Elec       q    Type
REMARK                         _______ _______ _______ _____ _____    ______ ____
ROOT
ATOM      1  O   UNL     1       2.524   7.920  17.530  0.00  0.00    +0.000 OA
ATOM      2  C   UNL     1       2.408   7.511  18.670  0.00  0.00    +0.000 C 
ATOM      3  O   UNL     1       2.076   8.312  19.715  0.00  0.00    +0.000 OA
ATOM      4  C   UNL     1       1.688   7.493  20.832  0.00  0.00    +0.000 C 
ATOM      5  C   UNL     1       2.047   6.112  20.347  0.00  0.00    +0.000 C 
ATOM      6  O   UNL     1       1.872   5.069  20.959  0.00  0.00    +0.000 OA
ATOM      7  N   UNL     1       2.548   6.236  19.094  0.00  0.00    +0.000 N 
ENDROOT
BRANCH   4   8
ATOM      8  C   UNL     1       0.189   7.637  21.074  0.00  0.00    +0.000 C 
BRANCH   8   9
ATOM      9  C   UNL     1      -0.189   9.003  21.573  0.00  0.00    +0.000 A 
ATOM     10  C   UNL     1      -0.223   9.408  22.898  0.00  0.00    +0.000 A 
ATOM     11  N   UNL     1      -0.580  10.725  22.935  0.00  0.00    +0.000 N 
ATOM     12  C   UNL     1      -0.786  11.204  21.660  0.00  0.00    +0.000 A 
ATOM     13  C   UNL     1      -1.143  12.486  21.230  0.00  0.00    +0.000 A 
ATOM     14  C   UNL     1      -1.283  12.686  19.854  0.00  0.00    +0.000 A 
ATOM     15  C   UNL     1      -1.102  11.638  18.956  0.00  0.00    +0.000 A 
ATOM     16  C   UNL     1      -0.761  10.357  19.409  0.00  0.00    +0.000 A 
ATOM     17  C   UNL     1      -0.580  10.136  20.788  0.00  0.00    +0.000 A 
ATOM     18  H   UNL     1      -0.682  11.279  23.782  0.00  0.00    +0.000 HD
ENDBRANCH   8   9
ENDBRANCH   4   8
BRANCH   7  19
ATOM     19  C   UNL     1       2.978   5.131  18.259  0.00  0.00    +0.000 C 
BRANCH  19  20
ATOM     20  C   UNL     1       4.482   5.110  18.088  0.00  0.00    +0.000 A 
ATOM     21  C   UNL     1       5.058   4.694  16.874  0.00  0.00    +0.000 A 
ATOM     22  C   UNL     1       6.443   4.574  16.755  0.00  0.00    +0.000 A 
ATOM     23  F   UNL     1       6.967   4.135  15.604  0.00  0.00    +0.000 F 
ATOM     24  C   UNL     1       7.286   4.875  17.816  0.00  0.00    +0.000 A 
ATOM     25  C   UNL     1       6.723   5.326  19.000  0.00  0.00    +0.000 A 
ATOM     26  F   UNL     1       7.524   5.632  20.031  0.00  0.00    +0.000 F 
ATOM     27  C   UNL     1       5.340   5.445  19.148  0.00  0.00    +0.000 A 
ENDBRANCH  19  20
ENDBRANCH   7  19
TORSDOF 4
ENDMDL
MODEL 7
REMARK VINA RESULT:      -7.6      2.046      2.835
REMARK  Name = 
REMARK  4 active torsions:
REMARK  status: ('A' for Active; 'I' for Inactive)
REMARK    1  A    between atoms: C_4  and  C_5
REMARK    2  A    between atoms: C_5  and  C_6
REMARK    3  A    between atoms: N_17  and  C_18
REMARK    4  A    between atoms: C_18  and  C_19
REMARK                            x       y       z     vdW  Elec       q    Type
REMARK                         _______ _______ _______ _____ _____    ______ ____
ROOT
ATOM      1  O   UNL     1       3.691   2.628  20.525  0.00  0.00    +0.000 OA
ATOM      2  C   UNL     1       3.012   3.517  20.045  0.00  0.00    +0.000 C 
ATOM      3  O   UNL     1       2.207   4.319  20.790  0.00  0.00    +0.000 OA
ATOM      4  C   UNL     1       1.820   5.459  20.002  0.00  0.00    +0.000 C 
ATOM      5  C   UNL     1       2.342   5.088  18.638  0.00  0.00    +0.000 C 
ATOM      6  O   UNL     1       2.268   5.776  17.630  0.00  0.00    +0.000 OA
ATOM      7  N   UNL     1       2.952   3.884  18.746  0.00  0.00    +0.000 N 
ENDROOT
BRANCH   4   8
ATOM      8  C   UNL     1       2.498   6.711  20.548  0.00  0.00    +0.000 C 
BRANCH   8   9
ATOM      9  C   UNL     1       1.771   7.973  20.177  0.00  0.00    +0.000 A 
ATOM     10  C   UNL     1       1.729   8.551  18.919  0.00  0.00    +0.000 A 
ATOM     11  N   UNL     1       0.941   9.663  18.983  0.00  0.00    +0.000 N 
ATOM     12  C   UNL     1       0.458   9.837  20.261  0.00  0.00    +0.000 A 
ATOM     13  C   UNL     1      -0.392  10.823  20.773  0.00  0.00    +0.000 A 
ATOM     14  C   UNL     1      -0.720  10.748  22.129  0.00  0.00    +0.000 A 
ATOM     15  C   UNL     1      -0.193   9.745  22.938  0.00  0.00    +0.000 A 
ATOM     16  C   UNL     1       0.670   8.777  22.409  0.00  0.00    +0.000 A 
ATOM     17  C   UNL     1       0.990   8.809  21.038  0.00  0.00    +0.000 A 
ATOM     18  H   UNL     1       0.736  10.280  18.200  0.00  0.00    +0.000 HD
ENDBRANCH   8   9
ENDBRANCH   4   8
BRANCH   7  19
ATOM     19  C   UNL     1       3.621   3.191  17.662  0.00  0.00    +0.000 C 
BRANCH  19  20
ATOM     20  C   UNL     1       4.869   3.920  17.215  0.00  0.00    +0.000 A 
ATOM     21  C   UNL     1       5.159   4.071  15.847  0.00  0.00    +0.000 A 
ATOM     22  C   UNL     1       6.362   4.649  15.440  0.00  0.00    +0.000 A 
ATOM     23  F   UNL     1       6.636   4.743  14.133  0.00  0.00    +0.000 F 
ATOM     24  C   UNL     1       7.291   5.104  16.365  0.00  0.00    +0.000 A 
ATOM     25  C   UNL     1       6.990   4.996  17.714  0.00  0.00    +0.000 A 
ATOM     26  F   UNL     1       7.872   5.441  18.620  0.00  0.00    +0.000 F 
ATOM     27  C   UNL     1       5.798   4.412  18.147  0.00  0.00    +0.000 A 
ENDBRANCH  19  20
ENDBRANCH   7  19
TORSDOF 4
ENDMDL
MODEL 8
REMARK VINA RESULT:      -7.6      2.349      3.424
REMARK  Name = 
REMARK  4 active torsions:
REMARK  status: ('A' for Active; 'I' for Inactive)
REMARK    1  A    between atoms: C_4  and  C_5
REMARK    2  A    between atoms: C_5  and  C_6
REMARK    3  A    between atoms: N_17  and  C_18
REMARK    4  A    between atoms: C_18  and  C_19
REMARK                            x       y       z     vdW  Elec       q    Type
REMARK                         _______ _______ _______ _____ _____    ______ ____
ROOT
ATOM      1  O   UNL     1       2.579   2.673  20.496  0.00  0.00    +0.000 OA
ATOM      2  C   UNL     1       2.254   3.695  19.920  0.00  0.00    +0.000 C 
ATOM      3  O   UNL     1       1.353   4.576  20.427  0.00  0.00    +0.000 OA
ATOM      4  C   UNL     1       1.444   5.813  19.699  0.00  0.00    +0.000 C 
ATOM      5  C   UNL     1       2.373   5.445  18.571  0.00  0.00    +0.000 C 
ATOM      6  O   UNL     1       2.770   6.198  17.694  0.00  0.00    +0.000 OA
ATOM      7  N   UNL     1       2.727   4.148  18.739  0.00  0.00    +0.000 N 
ENDROOT
BRANCH   4   8
ATOM      8  C   UNL     1       2.041   6.891  20.598  0.00  0.00    +0.000 C 
BRANCH   8   9
ATOM      9  C   UNL     1       1.466   8.253  20.329  0.00  0.00    +0.000 A 
ATOM     10  C   UNL     1       1.560   8.960  19.142  0.00  0.00    +0.000 A 
ATOM     11  N   UNL     1       0.882  10.135  19.286  0.00  0.00    +0.000 N 
ATOM     12  C   UNL     1       0.340  10.225  20.550  0.00  0.00    +0.000 A 
ATOM     13  C   UNL     1      -0.439  11.236  21.122  0.00  0.00    +0.000 A 
ATOM     14  C   UNL     1      -0.856  11.056  22.443  0.00  0.00    +0.000 A 
ATOM     15  C   UNL     1      -0.482   9.925  23.164  0.00  0.00    +0.000 A 
ATOM     16  C   UNL     1       0.313   8.932  22.577  0.00  0.00    +0.000 A 
ATOM     17  C   UNL     1       0.719   9.072  21.236  0.00  0.00    +0.000 A 
ATOM     18  H   UNL     1       0.788  10.848  18.567  0.00  0.00    +0.000 HD
ENDBRANCH   8   9
ENDBRANCH   4   8
BRANCH   7  19
ATOM     19  C   UNL     1       3.644   3.420  17.883  0.00  0.00    +0.000 C 
BRANCH  19  20
ATOM     20  C   UNL     1       4.987   4.109  17.784  0.00  0.00    +0.000 A 
ATOM     21  C   UNL     1       5.639   4.576  18.941  0.00  0.00    +0.000 A 
ATOM     22  C   UNL     1       6.823   5.305  18.837  0.00  0.00    +0.000 A 
ATOM     23  F   UNL     1       7.403   5.776  19.948  0.00  0.00    +0.000 F 
ATOM     24  C   UNL     1       7.399   5.572  17.603  0.00  0.00    +0.000 A 
ATOM     25  C   UNL     1       6.782   5.077  16.464  0.00  0.00    +0.000 A 
ATOM     26  F   UNL     1       7.331   5.317  15.265  0.00  0.00    +0.000 F 
ATOM     27  C   UNL     1       5.590   4.354  16.540  0.00  0.00    +0.000 A 
ENDBRANCH  19  20
ENDBRANCH   7  19
TORSDOF 4
ENDMDL
MODEL 9
REMARK VINA RESULT:      -7.6      4.752      8.840
REMARK  Name = 
REMARK  4 active torsions:
REMARK  status: ('A' for Active; 'I' for Inactive)
REMARK    1  A    between atoms: C_4  and  C_5
REMARK    2  A    between atoms: C_5  and  C_6
REMARK    3  A    between atoms: N_17  and  C_18
REMARK    4  A    between atoms: C_18  and  C_19
REMARK                            x       y       z     vdW  Elec       q    Type
REMARK                         _______ _______ _______ _____ _____    ______ ____
ROOT
ATOM      1  O   UNL     1      -0.283  10.125  21.310  0.00  0.00    +0.000 OA
ATOM      2  C   UNL     1       0.559   9.756  20.514  0.00  0.00    +0.000 C 
ATOM      3  O   UNL     1       1.396   8.712  20.749  0.00  0.00    +0.000 OA
ATOM      4  C   UNL     1       2.016   8.318  19.513  0.00  0.00    +0.000 C 
ATOM      5  C   UNL     1       1.579   9.416  18.579  0.00  0.00    +0.000 C 
ATOM      6  O   UNL     1       1.846   9.495  17.389  0.00  0.00    +0.000 OA
ATOM      7  N   UNL     1       0.794  10.265  19.285  0.00  0.00    +0.000 N 
ENDROOT
BRANCH   4   8
ATOM      8  C   UNL     1       1.476   6.958  19.082  0.00  0.00    +0.000 C 
BRANCH   8   9
ATOM      9  C   UNL     1       2.530   6.086  18.460  0.00  0.00    +0.000 A 
ATOM     10  C   UNL     1       3.739   6.513  17.937  0.00  0.00    +0.000 A 
ATOM     11  N   UNL     1       4.429   5.420  17.499  0.00  0.00    +0.000 N 
ATOM     12  C   UNL     1       3.700   4.272  17.720  0.00  0.00    +0.000 A 
ATOM     13  C   UNL     1       4.022   2.938  17.450  0.00  0.00    +0.000 A 
ATOM     14  C   UNL     1       3.077   1.967  17.787  0.00  0.00    +0.000 A 
ATOM     15  C   UNL     1       1.851   2.324  18.343  0.00  0.00    +0.000 A 
ATOM     16  C   UNL     1       1.542   3.667  18.591  0.00  0.00    +0.000 A 
ATOM     17  C   UNL     1       2.491   4.664  18.293  0.00  0.00    +0.000 A 
ATOM     18  H   UNL     1       5.350   5.444  17.069  0.00  0.00    +0.000 HD
ENDBRANCH   8   9
ENDBRANCH   4   8
BRANCH   7  19
ATOM     19  C   UNL     1       0.139  11.439  18.739  0.00  0.00    +0.000 C 
BRANCH  19  20
ATOM     20  C   UNL     1      -1.293  11.149  18.344  0.00  0.00    +0.000 A 
ATOM     21  C   UNL     1      -1.580  10.241  17.308  0.00  0.00    +0.000 A 
ATOM     22  C   UNL     1      -2.893  10.057  16.875  0.00  0.00    +0.000 A 
ATOM     23  F   UNL     1      -3.138   9.220  15.859  0.00  0.00    +0.000 F 
ATOM     24  C   UNL     1      -3.948  10.745  17.460  0.00  0.00    +0.000 A 
ATOM     25  C   UNL     1      -3.673  11.608  18.510  0.00  0.00    +0.000 A 
ATOM     26  F   UNL     1      -4.681  12.272  19.092  0.00  0.00    +0.000 F 
ATOM     27  C   UNL     1      -2.366  11.818  18.954  0.00  0.00    +0.000 A 
ENDBRANCH  19  20
ENDBRANCH   7  19
TORSDOF 4
ENDMDL
