MODEL 1
REMARK VINA RESULT:      -7.7      0.000      0.000
REMARK  Name = 
REMARK  5 active torsions:
REMARK  status: ('A' for Active; 'I' for Inactive)
REMARK    1  A    between atoms: C_1  and  C_2
REMARK    2  A    between atoms: C_4  and  N_5
REMARK    3  A    between atoms: C_17  and  C_18
REMARK    4  A    between atoms: C_18  and  O_19
REMARK    5  A    between atoms: C_20  and  O_21
REMARK                            x       y       z     vdW  Elec       q    Type
REMARK                         _______ _______ _______ _____ _____    ______ ____
ROOT
ATOM      1  N   UNL     1       4.257   4.404  17.317  0.00  0.00    +0.000 N 
ATOM      2  C   UNL     1       3.998   5.719  17.625  0.00  0.00    +0.000 A 
ATOM      3  C   UNL     1       2.969   5.728  18.534  0.00  0.00    +0.000 A 
ATOM      4 BR   UNL     1       2.237   7.264  19.327  0.00  0.00    +0.000 Br
ATOM      5  C   UNL     1       2.556   4.397  18.778  0.00  0.00    +0.000 A 
ATOM      6  C   UNL     1       1.616   3.733  19.580  0.00  0.00    +0.000 A 
ATOM      7  N   UNL     1       0.783   4.366  20.486  0.00  0.00    +0.000 N 
ATOM      8  N   UNL     1       1.509   2.392  19.485  0.00  0.00    +0.000 NA
ATOM      9  C   UNL     1       2.337   1.741  18.647  0.00  0.00    +0.000 A 
ATOM     10  N   UNL     1       3.299   2.257  17.861  0.00  0.00    +0.000 NA
ATOM     11  C   UNL     1       3.357   3.596  17.970  0.00  0.00    +0.000 A 
ATOM     12  H   UNL     1       0.618   5.351  20.331  0.00  0.00    +0.000 HD
ATOM     13  H   UNL     1      -0.005   3.792  20.756  0.00  0.00    +0.000 HD
ENDROOT
BRANCH   1  17
ATOM     14  C   UNL     1       7.574   4.715  17.571  0.00  0.00    +0.000 C 
ATOM     15  C   UNL     1       6.557   4.872  16.459  0.00  0.00    +0.000 C 
ATOM     16  F   UNL     1       6.127   6.174  16.465  0.00  0.00    +0.000 F 
ATOM     17  C   UNL     1       5.363   3.911  16.510  0.00  0.00    +0.000 C 
ATOM     18  O   UNL     1       4.912   3.708  15.139  0.00  0.00    +0.000 OA
ATOM     19  C   UNL     1       5.816   4.439  14.279  0.00  0.00    +0.000 C 
ATOM     20  C   UNL     1       7.106   4.600  15.071  0.00  0.00    +0.000 C 
BRANCH  20  21
ATOM     21  O   UNL     1       7.925   5.652  14.583  0.00  0.00    +0.000 OA
ATOM     22  H   UNL     1       7.331   6.346  14.230  0.00  0.00    +0.000 HD
ENDBRANCH  20  21
BRANCH  19  23
ATOM     23  C   UNL     1       6.017   3.680  12.970  0.00  0.00    +0.000 C 
BRANCH  23  24
ATOM     24  O   UNL     1       7.125   4.227  12.257  0.00  0.00    +0.000 OA
ATOM     25  H   UNL     1       7.030   5.197  12.303  0.00  0.00    +0.000 HD
ENDBRANCH  23  24
ENDBRANCH  19  23
ENDBRANCH   1  17
TORSDOF 4
ENDMDL
MODEL 2
REMARK VINA RESULT:      -7.7      1.216      1.341
REMARK  Name = 
REMARK  5 active torsions:
REMARK  status: ('A' for Active; 'I' for Inactive)
REMARK    1  A    between atoms: C_1  and  C_2
REMARK    2  A    between atoms: C_4  and  N_5
REMARK    3  A    between atoms: C_17  and  C_18
REMARK    4  A    between atoms: C_18  and  O_19
REMARK    5  A    between atoms: C_20  and  O_21
REMARK                            x       y       z     vdW  Elec       q    Type
REMARK                         _______ _______ _______ _____ _____    ______ ____
ROOT
ATOM      1  N   UNL     1       4.210   5.181  17.456  0.00  0.00    +0.000 N 
ATOM      2  C   UNL     1       3.787   6.456  17.158  0.00  0.00    +0.000 A 
ATOM      3  C   UNL     1       2.973   6.864  18.186  0.00  0.00    +0.000 A 
ATOM      4 BR   UNL     1       2.151   8.546  18.315  0.00  0.00    +0.000 Br
ATOM      5  C   UNL     1       2.859   5.815  19.130  0.00  0.00    +0.000 A 
ATOM      6  C   UNL     1       2.230   5.594  20.364  0.00  0.00    +0.000 A 
ATOM      7  N   UNL     1       1.493   6.549  21.042  0.00  0.00    +0.000 N 
ATOM      8  N   UNL     1       2.347   4.384  20.948  0.00  0.00    +0.000 NA
ATOM      9  C   UNL     1       3.095   3.447  20.336  0.00  0.00    +0.000 A 
ATOM     10  N   UNL     1       3.776   3.550  19.181  0.00  0.00    +0.000 NA
ATOM     11  C   UNL     1       3.615   4.763  18.622  0.00  0.00    +0.000 A 
ATOM     12  H   UNL     1       1.129   7.312  20.488  0.00  0.00    +0.000 HD
ATOM     13  H   UNL     1       0.889   6.147  21.747  0.00  0.00    +0.000 HD
ENDROOT
BRANCH   1  17
ATOM     14  C   UNL     1       7.537   4.974  17.672  0.00  0.00    +0.000 C 
ATOM     15  C   UNL     1       6.537   5.148  16.547  0.00  0.00    +0.000 C 
ATOM     16  F   UNL     1       6.325   6.493  16.379  0.00  0.00    +0.000 F 
ATOM     17  C   UNL     1       5.204   4.411  16.724  0.00  0.00    +0.000 C 
ATOM     18  O   UNL     1       4.699   4.107  15.391  0.00  0.00    +0.000 OA
ATOM     19  C   UNL     1       5.693   4.560  14.442  0.00  0.00    +0.000 C 
ATOM     20  C   UNL     1       7.007   4.610  15.208  0.00  0.00    +0.000 C 
BRANCH  20  21
ATOM     21  O   UNL     1       7.976   5.440  14.587  0.00  0.00    +0.000 OA
ATOM     22  H   UNL     1       8.434   5.936  15.295  0.00  0.00    +0.000 HD
ENDBRANCH  20  21
BRANCH  19  23
ATOM     23  C   UNL     1       5.741   3.613  13.246  0.00  0.00    +0.000 C 
BRANCH  23  24
ATOM     24  O   UNL     1       6.805   3.988  12.373  0.00  0.00    +0.000 OA
ATOM     25  H   UNL     1       7.057   3.181  11.886  0.00  0.00    +0.000 HD
ENDBRANCH  23  24
ENDBRANCH  19  23
ENDBRANCH   1  17
TORSDOF 4
ENDMDL
MODEL 3
REMARK VINA RESULT:      -7.5      1.240      1.488
REMARK  Name = 
REMARK  5 active torsions:
REMARK  status: ('A' for Active; 'I' for Inactive)
REMARK    1  A    between atoms: C_1  and  C_2
REMARK    2  A    between atoms: C_4  and  N_5
REMARK    3  A    between atoms: C_17  and  C_18
REMARK    4  A    between atoms: C_18  and  O_19
REMARK    5  A    between atoms: C_20  and  O_21
REMARK                            x       y       z     vdW  Elec       q    Type
REMARK                         _______ _______ _______ _____ _____    ______ ____
ROOT
ATOM      1  N   UNL     1       4.364   4.623  18.398  0.00  0.00    +0.000 N 
ATOM      2  C   UNL     1       3.852   5.746  19.004  0.00  0.00    +0.000 A 
ATOM      3  C   UNL     1       2.683   5.376  19.622  0.00  0.00    +0.000 A 
ATOM      4 BR   UNL     1       1.587   6.512  20.637  0.00  0.00    +0.000 Br
ATOM      5  C   UNL     1       2.442   4.003  19.373  0.00  0.00    +0.000 A 
ATOM      6  C   UNL     1       1.484   3.039  19.718  0.00  0.00    +0.000 A 
ATOM      7  N   UNL     1       0.408   3.277  20.555  0.00  0.00    +0.000 N 
ATOM      8  N   UNL     1       1.605   1.792  19.219  0.00  0.00    +0.000 NA
ATOM      9  C   UNL     1       2.665   1.515  18.438  0.00  0.00    +0.000 A 
ATOM     10  N   UNL     1       3.666   2.336  18.071  0.00  0.00    +0.000 NA
ATOM     11  C   UNL     1       3.494   3.573  18.570  0.00  0.00    +0.000 A 
ATOM     12  H   UNL     1       0.125   4.242  20.658  0.00  0.00    +0.000 HD
ATOM     13  H   UNL     1      -0.318   2.579  20.465  0.00  0.00    +0.000 HD
ENDROOT
BRANCH   1  17
ATOM     14  C   UNL     1       7.413   5.713  19.220  0.00  0.00    +0.000 C 
ATOM     15  C   UNL     1       6.560   5.735  17.968  0.00  0.00    +0.000 C 
ATOM     16  F   UNL     1       5.808   6.882  17.993  0.00  0.00    +0.000 F 
ATOM     17  C   UNL     1       5.664   4.509  17.753  0.00  0.00    +0.000 C 
ATOM     18  O   UNL     1       5.482   4.354  16.315  0.00  0.00    +0.000 OA
ATOM     19  C   UNL     1       6.277   5.376  15.670  0.00  0.00    +0.000 C 
ATOM     20  C   UNL     1       7.353   5.762  16.675  0.00  0.00    +0.000 C 
BRANCH  20  21
ATOM     21  O   UNL     1       7.929   7.031  16.404  0.00  0.00    +0.000 OA
ATOM     22  H   UNL     1       7.206   7.626  16.119  0.00  0.00    +0.000 HD
ENDBRANCH  20  21
BRANCH  19  23
ATOM     23  C   UNL     1       6.853   4.839  14.363  0.00  0.00    +0.000 C 
BRANCH  23  24
ATOM     24  O   UNL     1       8.004   5.597  13.992  0.00  0.00    +0.000 OA
ATOM     25  H   UNL     1       7.985   5.665  13.019  0.00  0.00    +0.000 HD
ENDBRANCH  23  24
ENDBRANCH  19  23
ENDBRANCH   1  17
TORSDOF 4
ENDMDL
MODEL 4
REMARK VINA RESULT:      -6.9      1.924      2.143
REMARK  Name = 
REMARK  5 active torsions:
REMARK  status: ('A' for Active; 'I' for Inactive)
REMARK    1  A    between atoms: C_1  and  C_2
REMARK    2  A    between atoms: C_4  and  N_5
REMARK    3  A    between atoms: C_17  and  C_18
REMARK    4  A    between atoms: C_18  and  O_19
REMARK    5  A    between atoms: C_20  and  O_21
REMARK                            x       y       z     vdW  Elec       q    Type
REMARK                         _______ _______ _______ _____ _____    ______ ____
ROOT
ATOM      1  N   UNL     1       4.696   4.315  18.775  0.00  0.00    +0.000 N 
ATOM      2  C   UNL     1       3.712   5.275  18.797  0.00  0.00    +0.000 A 
ATOM      3  C   UNL     1       2.828   4.927  19.788  0.00  0.00    +0.000 A 
ATOM      4 BR   UNL     1       1.309   5.914  20.282  0.00  0.00    +0.000 Br
ATOM      5  C   UNL     1       3.249   3.711  20.378  0.00  0.00    +0.000 A 
ATOM      6  C   UNL     1       2.831   2.860  21.412  0.00  0.00    +0.000 A 
ATOM      7  N   UNL     1       1.746   3.111  22.234  0.00  0.00    +0.000 N 
ATOM      8  N   UNL     1       3.522   1.725  21.641  0.00  0.00    +0.000 NA
ATOM      9  C   UNL     1       4.610   1.474  20.889  0.00  0.00    +0.000 A 
ATOM     10  N   UNL     1       5.131   2.227  19.904  0.00  0.00    +0.000 NA
ATOM     11  C   UNL     1       4.400   3.335  19.692  0.00  0.00    +0.000 A 
ATOM     12  H   UNL     1       1.050   3.750  21.875  0.00  0.00    +0.000 HD
ATOM     13  H   UNL     1       1.423   2.282  22.716  0.00  0.00    +0.000 HD
ENDROOT
BRANCH   1  17
ATOM     14  C   UNL     1       7.699   5.681  19.298  0.00  0.00    +0.000 C 
ATOM     15  C   UNL     1       6.710   5.655  18.151  0.00  0.00    +0.000 C 
ATOM     16  F   UNL     1       5.859   6.720  18.308  0.00  0.00    +0.000 F 
ATOM     17  C   UNL     1       5.918   4.353  17.986  0.00  0.00    +0.000 C 
ATOM     18  O   UNL     1       5.588   4.225  16.571  0.00  0.00    +0.000 OA
ATOM     19  C   UNL     1       6.201   5.341  15.886  0.00  0.00    +0.000 C 
ATOM     20  C   UNL     1       7.343   5.802  16.780  0.00  0.00    +0.000 C 
BRANCH  20  21
ATOM     21  O   UNL     1       7.759   7.130  16.501  0.00  0.00    +0.000 OA
ATOM     22  H   UNL     1       7.654   7.274  15.539  0.00  0.00    +0.000 HD
ENDBRANCH  20  21
BRANCH  19  23
ATOM     23  C   UNL     1       6.673   4.905  14.501  0.00  0.00    +0.000 C 
BRANCH  23  24
ATOM     24  O   UNL     1       7.902   5.556  14.180  0.00  0.00    +0.000 OA
ATOM     25  H   UNL     1       7.819   5.856  13.255  0.00  0.00    +0.000 HD
ENDBRANCH  23  24
ENDBRANCH  19  23
ENDBRANCH   1  17
TORSDOF 4
ENDMDL
MODEL 5
REMARK VINA RESULT:      -6.9      3.868      6.237
REMARK  Name = 
REMARK  5 active torsions:
REMARK  status: ('A' for Active; 'I' for Inactive)
REMARK    1  A    between atoms: C_1  and  C_2
REMARK    2  A    between atoms: C_4  and  N_5
REMARK    3  A    between atoms: C_17  and  C_18
REMARK    4  A    between atoms: C_18  and  O_19
REMARK    5  A    between atoms: C_20  and  O_21
REMARK                            x       y       z     vdW  Elec       q    Type
REMARK                         _______ _______ _______ _____ _____    ______ ____
ROOT
ATOM      1  N   UNL     1       4.590   4.567  18.426  0.00  0.00    +0.000 N 
ATOM      2  C   UNL     1       4.104   5.082  17.247  0.00  0.00    +0.000 A 
ATOM      3  C   UNL     1       5.047   5.957  16.767  0.00  0.00    +0.000 A 
ATOM      4 BR   UNL     1       4.916   6.915  15.158  0.00  0.00    +0.000 Br
ATOM      5  C   UNL     1       6.130   6.016  17.677  0.00  0.00    +0.000 A 
ATOM      6  C   UNL     1       7.371   6.663  17.772  0.00  0.00    +0.000 A 
ATOM      7  N   UNL     1       7.890   7.495  16.796  0.00  0.00    +0.000 N 
ATOM      8  N   UNL     1       8.124   6.468  18.873  0.00  0.00    +0.000 NA
ATOM      9  C   UNL     1       7.668   5.628  19.822  0.00  0.00    +0.000 A 
ATOM     10  N   UNL     1       6.524   4.922  19.827  0.00  0.00    +0.000 NA
ATOM     11  C   UNL     1       5.793   5.163  18.724  0.00  0.00    +0.000 A 
ATOM     12  H   UNL     1       7.224   7.902  16.153  0.00  0.00    +0.000 HD
ATOM     13  H   UNL     1       8.633   8.086  17.144  0.00  0.00    +0.000 HD
ENDROOT
BRANCH   1  17
ATOM     14  C   UNL     1       4.000   1.344  17.777  0.00  0.00    +0.000 C 
ATOM     15  C   UNL     1       3.201   2.492  18.359  0.00  0.00    +0.000 C 
ATOM     16  F   UNL     1       2.571   3.133  17.322  0.00  0.00    +0.000 F 
ATOM     17  C   UNL     1       3.996   3.492  19.206  0.00  0.00    +0.000 C 
ATOM     18  O   UNL     1       3.076   4.054  20.187  0.00  0.00    +0.000 OA
ATOM     19  C   UNL     1       1.803   3.390  20.011  0.00  0.00    +0.000 C 
ATOM     20  C   UNL     1       2.117   2.065  19.331  0.00  0.00    +0.000 C 
BRANCH  20  21
ATOM     21  O   UNL     1       0.987   1.496  18.685  0.00  0.00    +0.000 OA
ATOM     22  H   UNL     1       0.721   0.708  19.201  0.00  0.00    +0.000 HD
ENDBRANCH  20  21
BRANCH  19  23
ATOM     23  C   UNL     1       1.117   3.213  21.363  0.00  0.00    +0.000 C 
BRANCH  23  24
ATOM     24  O   UNL     1       1.989   2.533  22.264  0.00  0.00    +0.000 OA
ATOM     25  H   UNL     1       1.708   1.598  22.265  0.00  0.00    +0.000 HD
ENDBRANCH  23  24
ENDBRANCH  19  23
ENDBRANCH   1  17
TORSDOF 4
ENDMDL
MODEL 6
REMARK VINA RESULT:      -6.8      3.601      6.319
REMARK  Name = 
REMARK  5 active torsions:
REMARK  status: ('A' for Active; 'I' for Inactive)
REMARK    1  A    between atoms: C_1  and  C_2
REMARK    2  A    between atoms: C_4  and  N_5
REMARK    3  A    between atoms: C_17  and  C_18
REMARK    4  A    between atoms: C_18  and  O_19
REMARK    5  A    between atoms: C_20  and  O_21
REMARK                            x       y       z     vdW  Elec       q    Type
REMARK                         _______ _______ _______ _____ _____    ______ ____
ROOT
ATOM      1  N   UNL     1       4.774   4.047  18.306  0.00  0.00    +0.000 N 
ATOM      2  C   UNL     1       5.642   4.746  19.112  0.00  0.00    +0.000 A 
ATOM      3  C   UNL     1       6.565   5.345  18.290  0.00  0.00    +0.000 A 
ATOM      4 BR   UNL     1       7.963   6.459  18.863  0.00  0.00    +0.000 Br
ATOM      5  C   UNL     1       6.289   4.991  16.948  0.00  0.00    +0.000 A 
ATOM      6  C   UNL     1       6.807   5.269  15.674  0.00  0.00    +0.000 A 
ATOM      7  N   UNL     1       7.860   6.135  15.436  0.00  0.00    +0.000 N 
ATOM      8  N   UNL     1       6.251   4.672  14.601  0.00  0.00    +0.000 NA
ATOM      9  C   UNL     1       5.195   3.860  14.794  0.00  0.00    +0.000 A 
ATOM     10  N   UNL     1       4.586   3.549  15.952  0.00  0.00    +0.000 NA
ATOM     11  C   UNL     1       5.184   4.146  16.998  0.00  0.00    +0.000 A 
ATOM     12  H   UNL     1       8.477   6.316  16.216  0.00  0.00    +0.000 HD
ATOM     13  H   UNL     1       8.278   5.997  14.525  0.00  0.00    +0.000 HD
ENDROOT
BRANCH   1  17
ATOM     14  C   UNL     1       1.559   4.463  17.496  0.00  0.00    +0.000 C 
ATOM     15  C   UNL     1       2.337   4.317  18.788  0.00  0.00    +0.000 C 
ATOM     16  F   UNL     1       2.714   5.571  19.194  0.00  0.00    +0.000 F 
ATOM     17  C   UNL     1       3.552   3.382  18.730  0.00  0.00    +0.000 C 
ATOM     18  O   UNL     1       3.736   2.831  20.067  0.00  0.00    +0.000 OA
ATOM     19  C   UNL     1       2.658   3.334  20.890  0.00  0.00    +0.000 C 
ATOM     20  C   UNL     1       1.541   3.710  19.928  0.00  0.00    +0.000 C 
BRANCH  20  21
ATOM     21  O   UNL     1       0.607   4.617  20.495  0.00  0.00    +0.000 OA
ATOM     22  H   UNL     1      -0.168   4.649  19.899  0.00  0.00    +0.000 HD
ENDBRANCH  20  21
BRANCH  19  23
ATOM     23  C   UNL     1       2.236   2.271  21.901  0.00  0.00    +0.000 C 
BRANCH  23  24
ATOM     24  O   UNL     1       0.893   2.506  22.320  0.00  0.00    +0.000 OA
ATOM     25  H   UNL     1       0.876   2.355  23.284  0.00  0.00    +0.000 HD
ENDBRANCH  23  24
ENDBRANCH  19  23
ENDBRANCH   1  17
TORSDOF 4
ENDMDL
MODEL 7
REMARK VINA RESULT:      -6.7      2.114      2.783
REMARK  Name = 
REMARK  5 active torsions:
REMARK  status: ('A' for Active; 'I' for Inactive)
REMARK    1  A    between atoms: C_1  and  C_2
REMARK    2  A    between atoms: C_4  and  N_5
REMARK    3  A    between atoms: C_17  and  C_18
REMARK    4  A    between atoms: C_18  and  O_19
REMARK    5  A    between atoms: C_20  and  O_21
REMARK                            x       y       z     vdW  Elec       q    Type
REMARK                         _______ _______ _______ _____ _____    ______ ____
ROOT
ATOM      1  N   UNL     1       3.555   6.156  17.746  0.00  0.00    +0.000 N 
ATOM      2  C   UNL     1       3.440   7.433  17.247  0.00  0.00    +0.000 A 
ATOM      3  C   UNL     1       2.677   8.148  18.136  0.00  0.00    +0.000 A 
ATOM      4 BR   UNL     1       2.237   9.966  17.969  0.00  0.00    +0.000 Br
ATOM      5  C   UNL     1       2.281   7.298  19.196  0.00  0.00    +0.000 A 
ATOM      6  C   UNL     1       1.547   7.398  20.387  0.00  0.00    +0.000 A 
ATOM      7  N   UNL     1       0.999   8.575  20.866  0.00  0.00    +0.000 N 
ATOM      8  N   UNL     1       1.361   6.290  21.133  0.00  0.00    +0.000 NA
ATOM      9  C   UNL     1       1.920   5.137  20.719  0.00  0.00    +0.000 A 
ATOM     10  N   UNL     1       2.673   4.925  19.625  0.00  0.00    +0.000 NA
ATOM     11  C   UNL     1       2.815   6.048  18.900  0.00  0.00    +0.000 A 
ATOM     12  H   UNL     1       0.844   9.307  20.186  0.00  0.00    +0.000 HD
ATOM     13  H   UNL     1       0.281   8.416  21.561  0.00  0.00    +0.000 HD
ENDROOT
BRANCH   1  17
ATOM     14  C   UNL     1       5.513   3.866  19.189  0.00  0.00    +0.000 C 
ATOM     15  C   UNL     1       5.662   4.847  18.044  0.00  0.00    +0.000 C 
ATOM     16  F   UNL     1       6.138   6.025  18.561  0.00  0.00    +0.000 F 
ATOM     17  C   UNL     1       4.397   5.096  17.214  0.00  0.00    +0.000 C 
ATOM     18  O   UNL     1       4.828   5.448  15.866  0.00  0.00    +0.000 OA
ATOM     19  C   UNL     1       6.271   5.351  15.838  0.00  0.00    +0.000 C 
ATOM     20  C   UNL     1       6.647   4.411  16.975  0.00  0.00    +0.000 C 
BRANCH  20  21
ATOM     21  O   UNL     1       8.001   4.549  17.379  0.00  0.00    +0.000 OA
ATOM     22  H   UNL     1       8.012   4.581  18.357  0.00  0.00    +0.000 HD
ENDBRANCH  20  21
BRANCH  19  23
ATOM     23  C   UNL     1       6.732   4.844  14.474  0.00  0.00    +0.000 C 
BRANCH  23  24
ATOM     24  O   UNL     1       7.895   5.559  14.060  0.00  0.00    +0.000 OA
ATOM     25  H   UNL     1       7.892   6.399  14.556  0.00  0.00    +0.000 HD
ENDBRANCH  23  24
ENDBRANCH  19  23
ENDBRANCH   1  17
TORSDOF 4
ENDMDL
MODEL 8
REMARK VINA RESULT:      -6.4      4.380      6.257
REMARK  Name = 
REMARK  5 active torsions:
REMARK  status: ('A' for Active; 'I' for Inactive)
REMARK    1  A    between atoms: C_1  and  C_2
REMARK    2  A    between atoms: C_4  and  N_5
REMARK    3  A    between atoms: C_17  and  C_18
REMARK    4  A    between atoms: C_18  and  O_19
REMARK    5  A    between atoms: C_20  and  O_21
REMARK                            x       y       z     vdW  Elec       q    Type
REMARK                         _______ _______ _______ _____ _____    ______ ____
ROOT
ATOM      1  N   UNL     1       1.783   7.353  19.981  0.00  0.00    +0.000 N 
ATOM      2  C   UNL     1       1.274   7.419  21.257  0.00  0.00    +0.000 A 
ATOM      3  C   UNL     1       0.810   8.698  21.442  0.00  0.00    +0.000 A 
ATOM      4 BR   UNL     1      -0.026   9.332  22.999  0.00  0.00    +0.000 Br
ATOM      5  C   UNL     1       1.059   9.455  20.273  0.00  0.00    +0.000 A 
ATOM      6  C   UNL     1       0.824  10.759  19.811  0.00  0.00    +0.000 A 
ATOM      7  N   UNL     1       0.142  11.726  20.529  0.00  0.00    +0.000 N 
ATOM      8  N   UNL     1       1.275  11.108  18.590  0.00  0.00    +0.000 NA
ATOM      9  C   UNL     1       1.902  10.177  17.847  0.00  0.00    +0.000 A 
ATOM     10  N   UNL     1       2.150   8.893  18.159  0.00  0.00    +0.000 NA
ATOM     11  C   UNL     1       1.705   8.592  19.392  0.00  0.00    +0.000 A 
ATOM     12  H   UNL     1       0.099  11.594  21.530  0.00  0.00    +0.000 HD
ATOM     13  H   UNL     1       0.313  12.660  20.182  0.00  0.00    +0.000 HD
ENDROOT
BRANCH   1  17
ATOM     14  C   UNL     1       0.818   4.156  20.096  0.00  0.00    +0.000 C 
ATOM     15  C   UNL     1       2.144   4.887  20.159  0.00  0.00    +0.000 C 
ATOM     16  F   UNL     1       2.402   5.176  21.475  0.00  0.00    +0.000 F 
ATOM     17  C   UNL     1       2.246   6.153  19.300  0.00  0.00    +0.000 C 
ATOM     18  O   UNL     1       3.647   6.313  18.931  0.00  0.00    +0.000 OA
ATOM     19  C   UNL     1       4.363   5.175  19.465  0.00  0.00    +0.000 C 
ATOM     20  C   UNL     1       3.324   4.079  19.651  0.00  0.00    +0.000 C 
BRANCH  20  21
ATOM     21  O   UNL     1       3.741   3.073  20.562  0.00  0.00    +0.000 OA
ATOM     22  H   UNL     1       4.423   2.535  20.112  0.00  0.00    +0.000 HD
ENDBRANCH  20  21
BRANCH  19  23
ATOM     23  C   UNL     1       5.485   4.772  18.512  0.00  0.00    +0.000 C 
BRANCH  23  24
ATOM     24  O   UNL     1       5.949   3.462  18.835  0.00  0.00    +0.000 OA
ATOM     25  H   UNL     1       5.217   3.021  19.306  0.00  0.00    +0.000 HD
ENDBRANCH  23  24
ENDBRANCH  19  23
ENDBRANCH   1  17
TORSDOF 4
ENDMDL
MODEL 9
REMARK VINA RESULT:      -6.4      4.544      6.072
REMARK  Name = 
REMARK  5 active torsions:
REMARK  status: ('A' for Active; 'I' for Inactive)
REMARK    1  A    between atoms: C_1  and  C_2
REMARK    2  A    between atoms: C_4  and  N_5
REMARK    3  A    between atoms: C_17  and  C_18
REMARK    4  A    between atoms: C_18  and  O_19
REMARK    5  A    between atoms: C_20  and  O_21
REMARK                            x       y       z     vdW  Elec       q    Type
REMARK                         _______ _______ _______ _____ _____    ______ ____
ROOT
ATOM      1  N   UNL     1       2.266   6.382  19.791  0.00  0.00    +0.000 N 
ATOM      2  C   UNL     1       1.607   6.547  20.987  0.00  0.00    +0.000 A 
ATOM      3  C   UNL     1       1.097   7.822  20.996  0.00  0.00    +0.000 A 
ATOM      4 BR   UNL     1       0.068   8.567  22.378  0.00  0.00    +0.000 Br
ATOM      5  C   UNL     1       1.468   8.478  19.799  0.00  0.00    +0.000 A 
ATOM      6  C   UNL     1       1.263   9.727  19.193  0.00  0.00    +0.000 A 
ATOM      7  N   UNL     1       0.480  10.732  19.732  0.00  0.00    +0.000 N 
ATOM      8  N   UNL     1       1.850   9.979  18.005  0.00  0.00    +0.000 NA
ATOM      9  C   UNL     1       2.580   9.005  17.431  0.00  0.00    +0.000 A 
ATOM     10  N   UNL     1       2.816   7.763  17.889  0.00  0.00    +0.000 NA
ATOM     11  C   UNL     1       2.233   7.561  19.084  0.00  0.00    +0.000 A 
ATOM     12  H   UNL     1       0.320  10.690  20.730  0.00  0.00    +0.000 HD
ATOM     13  H   UNL     1       0.672  11.637  19.322  0.00  0.00    +0.000 HD
ENDROOT
BRANCH   1  17
ATOM     14  C   UNL     1       1.345   4.289  17.355  0.00  0.00    +0.000 C 
ATOM     15  C   UNL     1       1.775   4.142  18.801  0.00  0.00    +0.000 C 
ATOM     16  F   UNL     1       0.651   4.214  19.582  0.00  0.00    +0.000 F 
ATOM     17  C   UNL     1       2.832   5.141  19.284  0.00  0.00    +0.000 C 
ATOM     18  O   UNL     1       3.594   4.487  20.341  0.00  0.00    +0.000 OA
ATOM     19  C   UNL     1       3.091   3.136  20.458  0.00  0.00    +0.000 C 
ATOM     20  C   UNL     1       2.442   2.816  19.118  0.00  0.00    +0.000 C 
BRANCH  20  21
ATOM     21  O   UNL     1       1.522   1.737  19.195  0.00  0.00    +0.000 OA
ATOM     22  H   UNL     1       1.767   1.199  19.975  0.00  0.00    +0.000 HD
ENDBRANCH  20  21
BRANCH  19  23
ATOM     23  C   UNL     1       4.233   2.184  20.804  0.00  0.00    +0.000 C 
BRANCH  23  24
ATOM     24  O   UNL     1       5.214   2.206  19.768  0.00  0.00    +0.000 OA
ATOM     25  H   UNL     1       5.901   1.563  20.028  0.00  0.00    +0.000 HD
ENDBRANCH  23  24
ENDBRANCH  19  23
ENDBRANCH   1  17
TORSDOF 4
ENDMDL
