MODEL 1
REMARK VINA RESULT:      -8.8      0.000      0.000
REMARK  Name = 
REMARK  7 active torsions:
REMARK  status: ('A' for Active; 'I' for Inactive)
REMARK    1  A    between atoms: C_3  and  O_4
REMARK    2  A    between atoms: C_5  and  C_6
REMARK    3  A    between atoms: C_10  and  C_11
REMARK    4  A    between atoms: C_17  and  C_18
REMARK    5  A    between atoms: C_22  and  C_23
REMARK    6  A    between atoms: C_28  and  O_29
REMARK    7  A    between atoms: C_30  and  O_31
REMARK                            x       y       z     vdW  Elec       q    Type
REMARK                         _______ _______ _______ _____ _____    ______ ____
ROOT
ATOM      1  O   UNL     1       0.154   3.084  20.143  0.00  0.00    +0.000 OA
ATOM      2  C   UNL     1       1.378   3.165  20.071  0.00  0.00    +0.000 A 
ATOM      3  C   UNL     1       2.177   3.726  21.194  0.00  0.00    +0.000 A 
ATOM      4  C   UNL     1       3.124   4.540  20.683  0.00  0.00    +0.000 A 
ATOM      5  C   UNL     1       4.410   3.842  20.469  0.00  0.00    +0.000 A 
ATOM      6  C   UNL     1       4.566   3.346  19.211  0.00  0.00    +0.000 A 
ATOM      7  C   UNL     1       3.449   2.545  18.591  0.00  0.00    +0.000 A 
ATOM      8  C   UNL     1       2.116   2.550  18.883  0.00  0.00    +0.000 A 
ENDROOT
BRANCH   4   9
ATOM      9  C   UNL     1       2.715   5.697  19.798  0.00  0.00    +0.000 A 
ATOM     10  C   UNL     1       2.931   5.781  18.406  0.00  0.00    +0.000 A 
ATOM     11  C   UNL     1       2.562   6.890  17.650  0.00  0.00    +0.000 A 
ATOM     12  C   UNL     1       1.959   7.963  18.275  0.00  0.00    +0.000 A 
ATOM     13  C   UNL     1       1.718   7.924  19.658  0.00  0.00    +0.000 A 
ATOM     14  C   UNL     1       2.090   6.784  20.406  0.00  0.00    +0.000 A 
BRANCH  13  15
ATOM     15  C   UNL     1       1.099   9.100  20.357  0.00  0.00    +0.000 C 
ATOM     16  F   UNL     1       1.247  10.280  19.689  0.00  0.00    +0.000 F 
ATOM     17  F   UNL     1      -0.247   8.943  20.539  0.00  0.00    +0.000 F 
ATOM     18  F   UNL     1       1.622   9.295  21.598  0.00  0.00    +0.000 F 
ENDBRANCH  13  15
ENDBRANCH   4   9
BRANCH   6  19
ATOM     19  C   UNL     1       5.538   4.232  18.434  0.00  0.00    +0.000 A 
ATOM     20  C   UNL     1       6.403   5.142  19.097  0.00  0.00    +0.000 A 
ATOM     21  C   UNL     1       7.264   6.004  18.409  0.00  0.00    +0.000 A 
ATOM     22  C   UNL     1       7.334   5.947  17.025  0.00  0.00    +0.000 A 
ATOM     23  C   UNL     1       6.518   5.052  16.325  0.00  0.00    +0.000 A 
ATOM     24  C   UNL     1       5.598   4.244  17.031  0.00  0.00    +0.000 A 
BRANCH  23  25
ATOM     25  C   UNL     1       6.634   4.917  14.827  0.00  0.00    +0.000 C 
ATOM     26  F   UNL     1       7.810   5.390  14.328  0.00  0.00    +0.000 F 
ATOM     27  F   UNL     1       6.564   3.615  14.427  0.00  0.00    +0.000 F 
ATOM     28  F   UNL     1       5.649   5.571  14.156  0.00  0.00    +0.000 F 
ENDBRANCH  23  25
ENDBRANCH   6  19
BRANCH   3  29
ATOM     29  O   UNL     1       2.440   2.840  22.238  0.00  0.00    +0.000 OA
ATOM     30  H   UNL     1       1.873   2.058  22.095  0.00  0.00    +0.000 HD
ENDBRANCH   3  29
BRANCH   7  31
ATOM     31  O   UNL     1       3.844   1.828  17.467  0.00  0.00    +0.000 OA
ATOM     32  H   UNL     1       3.070   1.725  16.887  0.00  0.00    +0.000 HD
ENDBRANCH   7  31
BRANCH   8  33
ATOM     33  O   UNL     1       1.222   2.065  17.917  0.00  0.00    +0.000 OA
ATOM     34  H   UNL     1       1.787   1.818  17.151  0.00  0.00    +0.000 HD
ENDBRANCH   8  33
TORSDOF 7
ENDMDL
MODEL 2
REMARK VINA RESULT:      -8.7      1.493      2.146
REMARK  Name = 
REMARK  7 active torsions:
REMARK  status: ('A' for Active; 'I' for Inactive)
REMARK    1  A    between atoms: C_3  and  O_4
REMARK    2  A    between atoms: C_5  and  C_6
REMARK    3  A    between atoms: C_10  and  C_11
REMARK    4  A    between atoms: C_17  and  C_18
REMARK    5  A    between atoms: C_22  and  C_23
REMARK    6  A    between atoms: C_28  and  O_29
REMARK    7  A    between atoms: C_30  and  O_31
REMARK                            x       y       z     vdW  Elec       q    Type
REMARK                         _______ _______ _______ _____ _____    ______ ____
ROOT
ATOM      1  O   UNL     1       0.177   3.197  20.764  0.00  0.00    +0.000 OA
ATOM      2  C   UNL     1       1.311   3.157  20.292  0.00  0.00    +0.000 A 
ATOM      3  C   UNL     1       2.501   3.477  21.125  0.00  0.00    +0.000 A 
ATOM      4  C   UNL     1       3.339   4.247  20.400  0.00  0.00    +0.000 A 
ATOM      5  C   UNL     1       4.373   3.451  19.703  0.00  0.00    +0.000 A 
ATOM      6  C   UNL     1       4.041   3.113  18.427  0.00  0.00    +0.000 A 
ATOM      7  C   UNL     1       2.681   2.523  18.151  0.00  0.00    +0.000 A 
ATOM      8  C   UNL     1       1.529   2.631  18.874  0.00  0.00    +0.000 A 
ENDROOT
BRANCH   4   9
ATOM      9  C   UNL     1       2.836   5.547  19.812  0.00  0.00    +0.000 A 
ATOM     10  C   UNL     1       3.046   5.984  18.486  0.00  0.00    +0.000 A 
ATOM     11  C   UNL     1       2.588   7.210  18.014  0.00  0.00    +0.000 A 
ATOM     12  C   UNL     1       1.897   8.048  18.867  0.00  0.00    +0.000 A 
ATOM     13  C   UNL     1       1.658   7.655  20.193  0.00  0.00    +0.000 A 
ATOM     14  C   UNL     1       2.123   6.401  20.651  0.00  0.00    +0.000 A 
BRANCH  13  15
ATOM     15  C   UNL     1       0.942   8.572  21.142  0.00  0.00    +0.000 C 
ATOM     16  F   UNL     1      -0.297   8.134  21.505  0.00  0.00    +0.000 F 
ATOM     17  F   UNL     1       1.632   8.747  22.310  0.00  0.00    +0.000 F 
ATOM     18  F   UNL     1       0.769   9.818  20.622  0.00  0.00    +0.000 F 
ENDBRANCH  13  15
ENDBRANCH   4   9
BRANCH   6  19
ATOM     19  C   UNL     1       4.827   3.986  17.451  0.00  0.00    +0.000 A 
ATOM     20  C   UNL     1       4.722   3.805  16.046  0.00  0.00    +0.000 A 
ATOM     21  C   UNL     1       5.470   4.552  15.130  0.00  0.00    +0.000 A 
ATOM     22  C   UNL     1       6.315   5.554  15.585  0.00  0.00    +0.000 A 
ATOM     23  C   UNL     1       6.438   5.786  16.958  0.00  0.00    +0.000 A 
ATOM     24  C   UNL     1       5.735   4.970  17.874  0.00  0.00    +0.000 A 
BRANCH  23  25
ATOM     25  C   UNL     1       7.290   6.921  17.472  0.00  0.00    +0.000 C 
ATOM     26  F   UNL     1       8.159   7.412  16.544  0.00  0.00    +0.000 F 
ATOM     27  F   UNL     1       6.534   7.986  17.866  0.00  0.00    +0.000 F 
ATOM     28  F   UNL     1       8.043   6.575  18.549  0.00  0.00    +0.000 F 
ENDBRANCH  23  25
ENDBRANCH   6  19
BRANCH   3  29
ATOM     29  O   UNL     1       2.957   2.438  21.936  0.00  0.00    +0.000 OA
ATOM     30  H   UNL     1       3.824   2.162  21.581  0.00  0.00    +0.000 HD
ENDBRANCH   3  29
BRANCH   7  31
ATOM     31  O   UNL     1       2.586   1.923  16.900  0.00  0.00    +0.000 OA
ATOM     32  H   UNL     1       2.360   2.613  16.251  0.00  0.00    +0.000 HD
ENDBRANCH   7  31
BRANCH   8  33
ATOM     33  O   UNL     1       0.312   2.374  18.227  0.00  0.00    +0.000 OA
ATOM     34  H   UNL     1       0.559   1.898  17.403  0.00  0.00    +0.000 HD
ENDBRANCH   8  33
TORSDOF 7
ENDMDL
MODEL 3
REMARK VINA RESULT:      -8.6      3.367      5.693
REMARK  Name = 
REMARK  7 active torsions:
REMARK  status: ('A' for Active; 'I' for Inactive)
REMARK    1  A    between atoms: C_3  and  O_4
REMARK    2  A    between atoms: C_5  and  C_6
REMARK    3  A    between atoms: C_10  and  C_11
REMARK    4  A    between atoms: C_17  and  C_18
REMARK    5  A    between atoms: C_22  and  C_23
REMARK    6  A    between atoms: C_28  and  O_29
REMARK    7  A    between atoms: C_30  and  O_31
REMARK                            x       y       z     vdW  Elec       q    Type
REMARK                         _______ _______ _______ _____ _____    ______ ____
ROOT
ATOM      1  O   UNL     1       6.877   7.816  17.615  0.00  0.00    +0.000 OA
ATOM      2  C   UNL     1       6.195   6.808  17.443  0.00  0.00    +0.000 A 
ATOM      3  C   UNL     1       5.268   6.697  16.285  0.00  0.00    +0.000 A 
ATOM      4  C   UNL     1       4.108   6.156  16.712  0.00  0.00    +0.000 A 
ATOM      5  C   UNL     1       4.075   4.688  16.539  0.00  0.00    +0.000 A 
ATOM      6  C   UNL     1       4.470   3.994  17.640  0.00  0.00    +0.000 A 
ATOM      7  C   UNL     1       5.746   4.389  18.342  0.00  0.00    +0.000 A 
ATOM      8  C   UNL     1       6.399   5.586  18.338  0.00  0.00    +0.000 A 
ENDROOT
BRANCH   4   9
ATOM      9  C   UNL     1       3.346   6.821  17.837  0.00  0.00    +0.000 A 
ATOM     10  C   UNL     1       3.122   6.268  19.116  0.00  0.00    +0.000 A 
ATOM     11  C   UNL     1       2.380   6.915  20.100  0.00  0.00    +0.000 A 
ATOM     12  C   UNL     1       1.832   8.152  19.828  0.00  0.00    +0.000 A 
ATOM     13  C   UNL     1       2.032   8.747  18.572  0.00  0.00    +0.000 A 
ATOM     14  C   UNL     1       2.797   8.078  17.589  0.00  0.00    +0.000 A 
BRANCH  13  15
ATOM     15  C   UNL     1       1.409  10.075  18.250  0.00  0.00    +0.000 C 
ATOM     16  F   UNL     1       0.237   9.981  17.557  0.00  0.00    +0.000 F 
ATOM     17  F   UNL     1       1.118  10.795  19.375  0.00  0.00    +0.000 F 
ATOM     18  F   UNL     1       2.231  10.862  17.505  0.00  0.00    +0.000 F 
ENDBRANCH  13  15
ENDBRANCH   4   9
BRANCH   6  19
ATOM     19  C   UNL     1       3.245   3.397  18.331  0.00  0.00    +0.000 A 
ATOM     20  C   UNL     1       2.147   2.893  17.586  0.00  0.00    +0.000 A 
ATOM     21  C   UNL     1       0.989   2.391  18.191  0.00  0.00    +0.000 A 
ATOM     22  C   UNL     1       0.910   2.322  19.574  0.00  0.00    +0.000 A 
ATOM     23  C   UNL     1       1.974   2.786  20.354  0.00  0.00    +0.000 A 
ATOM     24  C   UNL     1       3.103   3.362  19.728  0.00  0.00    +0.000 A 
BRANCH  23  25
ATOM     25  C   UNL     1       1.943   2.649  21.856  0.00  0.00    +0.000 C 
ATOM     26  F   UNL     1       0.719   2.305  22.345  0.00  0.00    +0.000 F 
ATOM     27  F   UNL     1       2.798   1.682  22.295  0.00  0.00    +0.000 F 
ATOM     28  F   UNL     1       2.301   3.790  22.502  0.00  0.00    +0.000 F 
ENDBRANCH  23  25
ENDBRANCH   6  19
BRANCH   3  29
ATOM     29  O   UNL     1       5.865   6.325  15.080  0.00  0.00    +0.000 OA
ATOM     30  H   UNL     1       6.791   6.632  15.116  0.00  0.00    +0.000 HD
ENDBRANCH   3  29
BRANCH   7  31
ATOM     31  O   UNL     1       6.207   3.423  19.229  0.00  0.00    +0.000 OA
ATOM     32  H   UNL     1       5.543   2.712  19.273  0.00  0.00    +0.000 HD
ENDBRANCH   7  31
BRANCH   8  33
ATOM     33  O   UNL     1       7.302   5.854  19.377  0.00  0.00    +0.000 OA
ATOM     34  H   UNL     1       6.768   6.310  20.066  0.00  0.00    +0.000 HD
ENDBRANCH   8  33
TORSDOF 7
ENDMDL
MODEL 4
REMARK VINA RESULT:      -8.6      0.865      1.153
REMARK  Name = 
REMARK  7 active torsions:
REMARK  status: ('A' for Active; 'I' for Inactive)
REMARK    1  A    between atoms: C_3  and  O_4
REMARK    2  A    between atoms: C_5  and  C_6
REMARK    3  A    between atoms: C_10  and  C_11
REMARK    4  A    between atoms: C_17  and  C_18
REMARK    5  A    between atoms: C_22  and  C_23
REMARK    6  A    between atoms: C_28  and  O_29
REMARK    7  A    between atoms: C_30  and  O_31
REMARK                            x       y       z     vdW  Elec       q    Type
REMARK                         _______ _______ _______ _____ _____    ______ ____
ROOT
ATOM      1  O   UNL     1       0.022   4.173  20.220  0.00  0.00    +0.000 OA
ATOM      2  C   UNL     1       1.224   4.007  20.026  0.00  0.00    +0.000 A 
ATOM      3  C   UNL     1       2.233   4.467  21.019  0.00  0.00    +0.000 A 
ATOM      4  C   UNL     1       3.256   5.046  20.357  0.00  0.00    +0.000 A 
ATOM      5  C   UNL     1       4.354   4.096  20.078  0.00  0.00    +0.000 A 
ATOM      6  C   UNL     1       4.275   3.505  18.856  0.00  0.00    +0.000 A 
ATOM      7  C   UNL     1       2.966   2.903  18.410  0.00  0.00    +0.000 A 
ATOM      8  C   UNL     1       1.698   3.189  18.826  0.00  0.00    +0.000 A 
ENDROOT
BRANCH   4   9
ATOM      9  C   UNL     1       2.979   6.205  19.424  0.00  0.00    +0.000 A 
ATOM     10  C   UNL     1       3.553   6.386  18.148  0.00  0.00    +0.000 A 
ATOM     11  C   UNL     1       3.286   7.494  17.350  0.00  0.00    +0.000 A 
ATOM     12  C   UNL     1       2.425   8.469  17.814  0.00  0.00    +0.000 A 
ATOM     13  C   UNL     1       1.825   8.331  19.075  0.00  0.00    +0.000 A 
ATOM     14  C   UNL     1       2.101   7.192  19.867  0.00  0.00    +0.000 A 
BRANCH  13  15
ATOM     15  C   UNL     1       0.917   9.402  19.608  0.00  0.00    +0.000 C 
ATOM     16  F   UNL     1       0.401   9.126  20.840  0.00  0.00    +0.000 F 
ATOM     17  F   UNL     1       1.556  10.604  19.734  0.00  0.00    +0.000 F 
ATOM     18  F   UNL     1      -0.147   9.629  18.791  0.00  0.00    +0.000 F 
ENDBRANCH  13  15
ENDBRANCH   4   9
BRANCH   6  19
ATOM     19  C   UNL     1       5.308   4.133  17.921  0.00  0.00    +0.000 A 
ATOM     20  C   UNL     1       6.381   4.916  18.422  0.00  0.00    +0.000 A 
ATOM     21  C   UNL     1       7.309   5.548  17.586  0.00  0.00    +0.000 A 
ATOM     22  C   UNL     1       7.231   5.372  16.213  0.00  0.00    +0.000 A 
ATOM     23  C   UNL     1       6.205   4.592  15.670  0.00  0.00    +0.000 A 
ATOM     24  C   UNL     1       5.230   4.025  16.523  0.00  0.00    +0.000 A 
BRANCH  23  25
ATOM     25  C   UNL     1       6.147   4.323  14.187  0.00  0.00    +0.000 C 
ATOM     26  F   UNL     1       7.002   5.095  13.460  0.00  0.00    +0.000 F 
ATOM     27  F   UNL     1       6.477   3.033  13.892  0.00  0.00    +0.000 F 
ATOM     28  F   UNL     1       4.911   4.526  13.658  0.00  0.00    +0.000 F 
ENDBRANCH  23  25
ENDBRANCH   6  19
BRANCH   3  29
ATOM     29  O   UNL     1       2.434   3.611  22.102  0.00  0.00    +0.000 OA
ATOM     30  H   UNL     1       3.055   4.061  22.706  0.00  0.00    +0.000 HD
ENDBRANCH   3  29
BRANCH   7  31
ATOM     31  O   UNL     1       3.094   2.056  17.316  0.00  0.00    +0.000 OA
ATOM     32  H   UNL     1       3.485   1.220  17.625  0.00  0.00    +0.000 HD
ENDBRANCH   7  31
BRANCH   8  33
ATOM     33  O   UNL     1       0.629   2.831  17.992  0.00  0.00    +0.000 OA
ATOM     34  H   UNL     1       0.963   2.071  17.465  0.00  0.00    +0.000 HD
ENDBRANCH   8  33
TORSDOF 7
ENDMDL
MODEL 5
REMARK VINA RESULT:      -7.9      1.231      6.476
REMARK  Name = 
REMARK  7 active torsions:
REMARK  status: ('A' for Active; 'I' for Inactive)
REMARK    1  A    between atoms: C_3  and  O_4
REMARK    2  A    between atoms: C_5  and  C_6
REMARK    3  A    between atoms: C_10  and  C_11
REMARK    4  A    between atoms: C_17  and  C_18
REMARK    5  A    between atoms: C_22  and  C_23
REMARK    6  A    between atoms: C_28  and  O_29
REMARK    7  A    between atoms: C_30  and  O_31
REMARK                            x       y       z     vdW  Elec       q    Type
REMARK                         _______ _______ _______ _____ _____    ______ ____
ROOT
ATOM      1  O   UNL     1       4.325   0.956  19.056  0.00  0.00    +0.000 OA
ATOM      2  C   UNL     1       3.511   1.876  19.008  0.00  0.00    +0.000 A 
ATOM      3  C   UNL     1       2.740   2.155  17.767  0.00  0.00    +0.000 A 
ATOM      4  C   UNL     1       2.708   3.489  17.571  0.00  0.00    +0.000 A 
ATOM      5  C   UNL     1       1.497   4.113  18.146  0.00  0.00    +0.000 A 
ATOM      6  C   UNL     1       1.670   4.593  19.407  0.00  0.00    +0.000 A 
ATOM      7  C   UNL     1       2.326   3.717  20.446  0.00  0.00    +0.000 A 
ATOM      8  C   UNL     1       3.168   2.658  20.275  0.00  0.00    +0.000 A 
ENDROOT
BRANCH   4   9
ATOM      9  C   UNL     1       4.007   4.260  17.478  0.00  0.00    +0.000 A 
ATOM     10  C   UNL     1       4.556   5.068  18.495  0.00  0.00    +0.000 A 
ATOM     11  C   UNL     1       5.739   5.783  18.336  0.00  0.00    +0.000 A 
ATOM     12  C   UNL     1       6.417   5.709  17.136  0.00  0.00    +0.000 A 
ATOM     13  C   UNL     1       5.913   4.914  16.095  0.00  0.00    +0.000 A 
ATOM     14  C   UNL     1       4.714   4.187  16.279  0.00  0.00    +0.000 A 
BRANCH  13  15
ATOM     15  C   UNL     1       6.619   4.855  14.770  0.00  0.00    +0.000 C 
ATOM     16  F   UNL     1       7.901   5.320  14.806  0.00  0.00    +0.000 F 
ATOM     17  F   UNL     1       6.699   3.580  14.284  0.00  0.00    +0.000 F 
ATOM     18  F   UNL     1       5.977   5.580  13.813  0.00  0.00    +0.000 F 
ENDBRANCH  13  15
ENDBRANCH   4   9
BRANCH   6  19
ATOM     19  C   UNL     1       1.774   6.116  19.361  0.00  0.00    +0.000 A 
ATOM     20  C   UNL     1       2.183   6.795  18.183  0.00  0.00    +0.000 A 
ATOM     21  C   UNL     1       2.340   8.185  18.128  0.00  0.00    +0.000 A 
ATOM     22  C   UNL     1       2.038   8.957  19.239  0.00  0.00    +0.000 A 
ATOM     23  C   UNL     1       1.611   8.338  20.418  0.00  0.00    +0.000 A 
ATOM     24  C   UNL     1       1.532   6.928  20.481  0.00  0.00    +0.000 A 
BRANCH  23  25
ATOM     25  C   UNL     1       1.201   9.162  21.614  0.00  0.00    +0.000 C 
ATOM     26  F   UNL     1       2.085   9.096  22.648  0.00  0.00    +0.000 F 
ATOM     27  F   UNL     1       1.095  10.487  21.306  0.00  0.00    +0.000 F 
ATOM     28  F   UNL     1      -0.005   8.796  22.124  0.00  0.00    +0.000 F 
ENDBRANCH  23  25
ENDBRANCH   6  19
BRANCH   3  29
ATOM     29  O   UNL     1       1.622   1.345  17.567  0.00  0.00    +0.000 OA
ATOM     30  H   UNL     1       1.352   1.013  18.445  0.00  0.00    +0.000 HD
ENDBRANCH   3  29
BRANCH   7  31
ATOM     31  O   UNL     1       2.148   4.178  21.745  0.00  0.00    +0.000 OA
ATOM     32  H   UNL     1       2.107   3.406  22.336  0.00  0.00    +0.000 HD
ENDBRANCH   7  31
BRANCH   8  33
ATOM     33  O   UNL     1       3.980   2.275  21.353  0.00  0.00    +0.000 OA
ATOM     34  H   UNL     1       3.621   2.763  22.127  0.00  0.00    +0.000 HD
ENDBRANCH   8  33
TORSDOF 7
ENDMDL
MODEL 6
REMARK VINA RESULT:      -7.7      3.736      6.093
REMARK  Name = 
REMARK  7 active torsions:
REMARK  status: ('A' for Active; 'I' for Inactive)
REMARK    1  A    between atoms: C_3  and  O_4
REMARK    2  A    between atoms: C_5  and  C_6
REMARK    3  A    between atoms: C_10  and  C_11
REMARK    4  A    between atoms: C_17  and  C_18
REMARK    5  A    between atoms: C_22  and  C_23
REMARK    6  A    between atoms: C_28  and  O_29
REMARK    7  A    between atoms: C_30  and  O_31
REMARK                            x       y       z     vdW  Elec       q    Type
REMARK                         _______ _______ _______ _____ _____    ______ ____
ROOT
ATOM      1  O   UNL     1       6.392   3.022  15.605  0.00  0.00    +0.000 OA
ATOM      2  C   UNL     1       6.140   4.080  16.178  0.00  0.00    +0.000 A 
ATOM      3  C   UNL     1       6.621   4.337  17.562  0.00  0.00    +0.000 A 
ATOM      4  C   UNL     1       5.624   4.913  18.264  0.00  0.00    +0.000 A 
ATOM      5  C   UNL     1       5.704   6.389  18.248  0.00  0.00    +0.000 A 
ATOM      6  C   UNL     1       4.962   6.971  17.267  0.00  0.00    +0.000 A 
ATOM      7  C   UNL     1       5.062   6.446  15.856  0.00  0.00    +0.000 A 
ATOM      8  C   UNL     1       5.453   5.215  15.419  0.00  0.00    +0.000 A 
ENDROOT
BRANCH   4   9
ATOM      9  C   UNL     1       4.287   4.211  18.374  0.00  0.00    +0.000 A 
ATOM     10  C   UNL     1       3.434   3.898  17.294  0.00  0.00    +0.000 A 
ATOM     11  C   UNL     1       2.198   3.282  17.462  0.00  0.00    +0.000 A 
ATOM     12  C   UNL     1       1.773   2.958  18.735  0.00  0.00    +0.000 A 
ATOM     13  C   UNL     1       2.589   3.245  19.841  0.00  0.00    +0.000 A 
ATOM     14  C   UNL     1       3.846   3.861  19.648  0.00  0.00    +0.000 A 
BRANCH  13  15
ATOM     15  C   UNL     1       2.121   2.933  21.234  0.00  0.00    +0.000 C 
ATOM     16  F   UNL     1       2.752   1.865  21.802  0.00  0.00    +0.000 F 
ATOM     17  F   UNL     1       2.319   3.980  22.090  0.00  0.00    +0.000 F 
ATOM     18  F   UNL     1       0.789   2.659  21.281  0.00  0.00    +0.000 F 
ENDBRANCH  13  15
ENDBRANCH   4   9
BRANCH   6  19
ATOM     19  C   UNL     1       3.705   7.587  17.879  0.00  0.00    +0.000 A 
ATOM     20  C   UNL     1       3.088   8.731  17.310  0.00  0.00    +0.000 A 
ATOM     21  C   UNL     1       1.969   9.349  17.879  0.00  0.00    +0.000 A 
ATOM     22  C   UNL     1       1.388   8.808  19.016  0.00  0.00    +0.000 A 
ATOM     23  C   UNL     1       1.944   7.668  19.604  0.00  0.00    +0.000 A 
ATOM     24  C   UNL     1       3.121   7.102  19.061  0.00  0.00    +0.000 A 
BRANCH  23  25
ATOM     25  C   UNL     1       1.284   7.016  20.794  0.00  0.00    +0.000 C 
ATOM     26  F   UNL     1       0.724   5.807  20.509  0.00  0.00    +0.000 F 
ATOM     27  F   UNL     1       2.171   6.781  21.803  0.00  0.00    +0.000 F 
ATOM     28  F   UNL     1       0.292   7.773  21.333  0.00  0.00    +0.000 F 
ENDBRANCH  23  25
ENDBRANCH   6  19
BRANCH   3  29
ATOM     29  O   UNL     1       7.946   4.763  17.662  0.00  0.00    +0.000 OA
ATOM     30  H   UNL     1       7.931   5.739  17.648  0.00  0.00    +0.000 HD
ENDBRANCH   3  29
BRANCH   7  31
ATOM     31  O   UNL     1       4.528   7.311  14.909  0.00  0.00    +0.000 OA
ATOM     32  H   UNL     1       4.994   8.162  14.980  0.00  0.00    +0.000 HD
ENDBRANCH   7  31
BRANCH   8  33
ATOM     33  O   UNL     1       5.066   4.813  14.132  0.00  0.00    +0.000 OA
ATOM     34  H   UNL     1       4.127   4.537  14.225  0.00  0.00    +0.000 HD
ENDBRANCH   8  33
TORSDOF 7
ENDMDL
MODEL 7
REMARK VINA RESULT:      -7.6      3.641      6.049
REMARK  Name = 
REMARK  7 active torsions:
REMARK  status: ('A' for Active; 'I' for Inactive)
REMARK    1  A    between atoms: C_3  and  O_4
REMARK    2  A    between atoms: C_5  and  C_6
REMARK    3  A    between atoms: C_10  and  C_11
REMARK    4  A    between atoms: C_17  and  C_18
REMARK    5  A    between atoms: C_22  and  C_23
REMARK    6  A    between atoms: C_28  and  O_29
REMARK    7  A    between atoms: C_30  and  O_31
REMARK                            x       y       z     vdW  Elec       q    Type
REMARK                         _______ _______ _______ _____ _____    ______ ____
ROOT
ATOM      1  O   UNL     1       6.411   3.084  15.267  0.00  0.00    +0.000 OA
ATOM      2  C   UNL     1       6.169   4.047  15.990  0.00  0.00    +0.000 A 
ATOM      3  C   UNL     1       6.758   4.153  17.352  0.00  0.00    +0.000 A 
ATOM      4  C   UNL     1       5.803   4.584  18.202  0.00  0.00    +0.000 A 
ATOM      5  C   UNL     1       5.822   6.053  18.370  0.00  0.00    +0.000 A 
ATOM      6  C   UNL     1       4.974   6.715  17.537  0.00  0.00    +0.000 A 
ATOM      7  C   UNL     1       4.972   6.377  16.066  0.00  0.00    +0.000 A 
ATOM      8  C   UNL     1       5.373   5.231  15.443  0.00  0.00    +0.000 A 
ENDROOT
BRANCH   4   9
ATOM      9  C   UNL     1       4.510   3.807  18.328  0.00  0.00    +0.000 A 
ATOM     10  C   UNL     1       3.785   3.242  17.257  0.00  0.00    +0.000 A 
ATOM     11  C   UNL     1       2.581   2.568  17.434  0.00  0.00    +0.000 A 
ATOM     12  C   UNL     1       2.059   2.437  18.705  0.00  0.00    +0.000 A 
ATOM     13  C   UNL     1       2.747   2.977  19.803  0.00  0.00    +0.000 A 
ATOM     14  C   UNL     1       3.975   3.650  19.605  0.00  0.00    +0.000 A 
BRANCH  13  15
ATOM     15  C   UNL     1       2.172   2.877  21.187  0.00  0.00    +0.000 C 
ATOM     16  F   UNL     1       2.232   4.041  21.895  0.00  0.00    +0.000 F 
ATOM     17  F   UNL     1       0.853   2.518  21.173  0.00  0.00    +0.000 F 
ATOM     18  F   UNL     1       2.806   1.938  21.941  0.00  0.00    +0.000 F 
ENDBRANCH  13  15
ENDBRANCH   4   9
BRANCH   6  19
ATOM     19  C   UNL     1       3.751   7.183  18.324  0.00  0.00    +0.000 A 
ATOM     20  C   UNL     1       3.317   6.503  19.492  0.00  0.00    +0.000 A 
ATOM     21  C   UNL     1       2.170   6.877  20.202  0.00  0.00    +0.000 A 
ATOM     22  C   UNL     1       1.442   7.986  19.799  0.00  0.00    +0.000 A 
ATOM     23  C   UNL     1       1.840   8.703  18.667  0.00  0.00    +0.000 A 
ATOM     24  C   UNL     1       2.956   8.267  17.916  0.00  0.00    +0.000 A 
BRANCH  23  25
ATOM     25  C   UNL     1       1.111   9.959  18.257  0.00  0.00    +0.000 C 
ATOM     26  F   UNL     1       0.088   9.732  17.386  0.00  0.00    +0.000 F 
ATOM     27  F   UNL     1       0.549  10.593  19.325  0.00  0.00    +0.000 F 
ATOM     28  F   UNL     1       1.920  10.873  17.659  0.00  0.00    +0.000 F 
ENDBRANCH  23  25
ENDBRANCH   6  19
BRANCH   3  29
ATOM     29  O   UNL     1       8.068   4.630  17.398  0.00  0.00    +0.000 OA
ATOM     30  H   UNL     1       8.016   5.578  17.626  0.00  0.00    +0.000 HD
ENDBRANCH   3  29
BRANCH   7  31
ATOM     31  O   UNL     1       4.323   7.325  15.285  0.00  0.00    +0.000 OA
ATOM     32  H   UNL     1       4.932   7.604  14.580  0.00  0.00    +0.000 HD
ENDBRANCH   7  31
BRANCH   8  33
ATOM     33  O   UNL     1       4.891   4.975  14.151  0.00  0.00    +0.000 OA
ATOM     34  H   UNL     1       4.214   4.272  14.268  0.00  0.00    +0.000 HD
ENDBRANCH   8  33
TORSDOF 7
ENDMDL
MODEL 8
REMARK VINA RESULT:      -7.5      1.771      2.362
REMARK  Name = 
REMARK  7 active torsions:
REMARK  status: ('A' for Active; 'I' for Inactive)
REMARK    1  A    between atoms: C_3  and  O_4
REMARK    2  A    between atoms: C_5  and  C_6
REMARK    3  A    between atoms: C_10  and  C_11
REMARK    4  A    between atoms: C_17  and  C_18
REMARK    5  A    between atoms: C_22  and  C_23
REMARK    6  A    between atoms: C_28  and  O_29
REMARK    7  A    between atoms: C_30  and  O_31
REMARK                            x       y       z     vdW  Elec       q    Type
REMARK                         _______ _______ _______ _____ _____    ______ ____
ROOT
ATOM      1  O   UNL     1      -0.471   3.194  20.340  0.00  0.00    +0.000 OA
ATOM      2  C   UNL     1       0.738   3.068  20.160  0.00  0.00    +0.000 A 
ATOM      3  C   UNL     1       1.708   3.317  21.260  0.00  0.00    +0.000 A 
ATOM      4  C   UNL     1       2.751   4.014  20.765  0.00  0.00    +0.000 A 
ATOM      5  C   UNL     1       3.864   3.138  20.342  0.00  0.00    +0.000 A 
ATOM      6  C   UNL     1       3.832   2.804  19.023  0.00  0.00    +0.000 A 
ATOM      7  C   UNL     1       2.542   2.306  18.419  0.00  0.00    +0.000 A 
ATOM      8  C   UNL     1       1.259   2.505  18.838  0.00  0.00    +0.000 A 
ENDROOT
BRANCH   4   9
ATOM      9  C   UNL     1       2.502   5.338  20.075  0.00  0.00    +0.000 A 
ATOM     10  C   UNL     1       2.857   5.649  18.745  0.00  0.00    +0.000 A 
ATOM     11  C   UNL     1       2.632   6.899  18.176  0.00  0.00    +0.000 A 
ATOM     12  C   UNL     1       2.040   7.889  18.934  0.00  0.00    +0.000 A 
ATOM     13  C   UNL     1       1.664   7.626  20.260  0.00  0.00    +0.000 A 
ATOM     14  C   UNL     1       1.890   6.346  20.817  0.00  0.00    +0.000 A 
BRANCH  13  15
ATOM     15  C   UNL     1       1.054   8.706  21.108  0.00  0.00    +0.000 C 
ATOM     16  F   UNL     1       1.625   8.829  22.341  0.00  0.00    +0.000 F 
ATOM     17  F   UNL     1       1.157   9.939  20.526  0.00  0.00    +0.000 F 
ATOM     18  F   UNL     1      -0.274   8.504  21.321  0.00  0.00    +0.000 F 
ENDBRANCH  13  15
ENDBRANCH   4   9
BRANCH   6  19
ATOM     19  C   UNL     1       4.894   3.604  18.271  0.00  0.00    +0.000 A 
ATOM     20  C   UNL     1       4.907   3.667  16.853  0.00  0.00    +0.000 A 
ATOM     21  C   UNL     1       5.898   4.347  16.136  0.00  0.00    +0.000 A 
ATOM     22  C   UNL     1       6.887   5.041  16.817  0.00  0.00    +0.000 A 
ATOM     23  C   UNL     1       6.906   5.029  18.215  0.00  0.00    +0.000 A 
ATOM     24  C   UNL     1       5.943   4.273  18.922  0.00  0.00    +0.000 A 
BRANCH  23  25
ATOM     25  C   UNL     1       7.924   5.841  18.977  0.00  0.00    +0.000 C 
ATOM     26  F   UNL     1       8.335   6.958  18.314  0.00  0.00    +0.000 F 
ATOM     27  F   UNL     1       7.432   6.282  20.170  0.00  0.00    +0.000 F 
ATOM     28  F   UNL     1       9.051   5.140  19.271  0.00  0.00    +0.000 F 
ENDBRANCH  23  25
ENDBRANCH   6  19
BRANCH   3  29
ATOM     29  O   UNL     1       1.876   2.260  22.156  0.00  0.00    +0.000 OA
ATOM     30  H   UNL     1       2.534   2.551  22.816  0.00  0.00    +0.000 HD
ENDBRANCH   3  29
BRANCH   7  31
ATOM     31  O   UNL     1       2.713   1.696  17.182  0.00  0.00    +0.000 OA
ATOM     32  H   UNL     1       2.877   2.392  16.522  0.00  0.00    +0.000 HD
ENDBRANCH   7  31
BRANCH   8  33
ATOM     33  O   UNL     1       0.222   2.325  17.911  0.00  0.00    +0.000 OA
ATOM     34  H   UNL     1       0.157   3.182  17.434  0.00  0.00    +0.000 HD
ENDBRANCH   8  33
TORSDOF 7
ENDMDL
MODEL 9
REMARK VINA RESULT:      -7.4      1.581      5.797
REMARK  Name = 
REMARK  7 active torsions:
REMARK  status: ('A' for Active; 'I' for Inactive)
REMARK    1  A    between atoms: C_3  and  O_4
REMARK    2  A    between atoms: C_5  and  C_6
REMARK    3  A    between atoms: C_10  and  C_11
REMARK    4  A    between atoms: C_17  and  C_18
REMARK    5  A    between atoms: C_22  and  C_23
REMARK    6  A    between atoms: C_28  and  O_29
REMARK    7  A    between atoms: C_30  and  O_31
REMARK                            x       y       z     vdW  Elec       q    Type
REMARK                         _______ _______ _______ _____ _____    ______ ____
ROOT
ATOM      1  O   UNL     1       4.304   0.937  18.902  0.00  0.00    +0.000 OA
ATOM      2  C   UNL     1       3.467   1.828  19.028  0.00  0.00    +0.000 A 
ATOM      3  C   UNL     1       2.585   2.219  17.896  0.00  0.00    +0.000 A 
ATOM      4  C   UNL     1       2.504   3.565  17.859  0.00  0.00    +0.000 A 
ATOM      5  C   UNL     1       1.333   4.079  18.600  0.00  0.00    +0.000 A 
ATOM      6  C   UNL     1       1.602   4.419  19.890  0.00  0.00    +0.000 A 
ATOM      7  C   UNL     1       2.366   3.454  20.763  0.00  0.00    +0.000 A 
ATOM      8  C   UNL     1       3.216   2.450  20.401  0.00  0.00    +0.000 A 
ENDROOT
BRANCH   4   9
ATOM      9  C   UNL     1       3.771   4.385  17.748  0.00  0.00    +0.000 A 
ATOM     10  C   UNL     1       4.260   5.277  18.726  0.00  0.00    +0.000 A 
ATOM     11  C   UNL     1       5.415   6.031  18.550  0.00  0.00    +0.000 A 
ATOM     12  C   UNL     1       6.126   5.915  17.372  0.00  0.00    +0.000 A 
ATOM     13  C   UNL     1       5.682   5.037  16.371  0.00  0.00    +0.000 A 
ATOM     14  C   UNL     1       4.511   4.271  16.573  0.00  0.00    +0.000 A 
BRANCH  13  15
ATOM     15  C   UNL     1       6.423   4.929  15.069  0.00  0.00    +0.000 C 
ATOM     16  F   UNL     1       5.814   5.571  14.032  0.00  0.00    +0.000 F 
ATOM     17  F   UNL     1       7.681   5.459  15.146  0.00  0.00    +0.000 F 
ATOM     18  F   UNL     1       6.587   3.637  14.675  0.00  0.00    +0.000 F 
ENDBRANCH  13  15
ENDBRANCH   4   9
BRANCH   6  19
ATOM     19  C   UNL     1       1.665   5.940  20.012  0.00  0.00    +0.000 A 
ATOM     20  C   UNL     1       1.574   6.587  21.272  0.00  0.00    +0.000 A 
ATOM     21  C   UNL     1       1.575   7.980  21.409  0.00  0.00    +0.000 A 
ATOM     22  C   UNL     1       1.724   8.781  20.288  0.00  0.00    +0.000 A 
ATOM     23  C   UNL     1       1.839   8.193  19.025  0.00  0.00    +0.000 A 
ATOM     24  C   UNL     1       1.759   6.788  18.896  0.00  0.00    +0.000 A 
BRANCH  23  25
ATOM     25  C   UNL     1       2.082   9.042  17.801  0.00  0.00    +0.000 C 
ATOM     26  F   UNL     1       0.942   9.361  17.126  0.00  0.00    +0.000 F 
ATOM     27  F   UNL     1       2.668  10.232  18.116  0.00  0.00    +0.000 F 
ATOM     28  F   UNL     1       2.902   8.446  16.895  0.00  0.00    +0.000 F 
ENDBRANCH  23  25
ENDBRANCH   6  19
BRANCH   3  29
ATOM     29  O   UNL     1       1.473   1.400  17.698  0.00  0.00    +0.000 OA
ATOM     30  H   UNL     1       0.779   1.712  18.309  0.00  0.00    +0.000 HD
ENDBRANCH   3  29
BRANCH   7  31
ATOM     31  O   UNL     1       2.290   3.759  22.117  0.00  0.00    +0.000 OA
ATOM     32  H   UNL     1       1.382   4.051  22.310  0.00  0.00    +0.000 HD
ENDBRANCH   7  31
BRANCH   8  33
ATOM     33  O   UNL     1       4.126   1.975  21.356  0.00  0.00    +0.000 OA
ATOM     34  H   UNL     1       4.239   2.718  21.990  0.00  0.00    +0.000 HD
ENDBRANCH   8  33
TORSDOF 7
ENDMDL
