MODEL 1
REMARK VINA RESULT:      -7.2      0.000      0.000
REMARK  Name = 
REMARK  5 active torsions:
REMARK  status: ('A' for Active; 'I' for Inactive)
REMARK    1  A    between atoms: C_1  and  C_2
REMARK    2  A    between atoms: C_2  and  O_3
REMARK    3  A    between atoms: O_3  and  C_4
REMARK    4  A    between atoms: C_9  and  C_10
REMARK    5  A    between atoms: N_12  and  C_13
REMARK                            x       y       z     vdW  Elec       q    Type
REMARK                         _______ _______ _______ _____ _____    ______ ____
ROOT
ATOM      1  C   UNL     1      -0.558  10.204  19.590  0.00  0.00    +0.000 C 
ATOM      2  C   UNL     1      -0.046   9.152  20.581  0.00  0.00    +0.000 C 
ATOM      3  C   UNL     1       1.458   8.926  20.470  0.00  0.00    +0.000 C 
ATOM      4  N   UNL     1       1.863   8.725  19.083  0.00  0.00    +0.000 N 
ATOM      5  C   UNL     1       2.458   7.531  18.712  0.00  0.00    +0.000 A 
ATOM      6  C   UNL     1       3.390   7.500  17.683  0.00  0.00    +0.000 A 
ATOM      7  C   UNL     1       4.029   6.315  17.319  0.00  0.00    +0.000 A 
ATOM      8  C   UNL     1       3.654   5.148  17.972  0.00  0.00    +0.000 A 
ATOM      9  N   UNL     1       2.759   5.181  18.978  0.00  0.00    +0.000 NA
ATOM     10  N   UNL     1       2.180   6.382  19.357  0.00  0.00    +0.000 NA
ATOM     11  C   UNL     1       4.266   3.817  17.634  0.00  0.00    +0.000 C 
ATOM     12  C   UNL     1       5.027   3.830  16.306  0.00  0.00    +0.000 C 
ATOM     13  C   UNL     1       5.921   5.060  16.222  0.00  0.00    +0.000 C 
ATOM     14  C   UNL     1       5.069   6.328  16.234  0.00  0.00    +0.000 C 
ATOM     15  C   UNL     1       1.415   9.679  18.080  0.00  0.00    +0.000 C 
ATOM     16  C   UNL     1      -0.093   9.884  18.169  0.00  0.00    +0.000 C 
ENDROOT
BRANCH   1  19
ATOM     17  C   UNL     1      -0.918  12.681  19.678  0.00  0.00    +0.000 C 
ATOM     18  O   UNL     1      -1.930  12.631  18.984  0.00  0.00    +0.000 OA
ATOM     19  N   UNL     1      -0.171  11.558  19.975  0.00  0.00    +0.000 N 
ATOM     20  H   UNL     1       0.610  11.674  20.614  0.00  0.00    +0.000 HD
BRANCH  17  26
ATOM     21  C   UNL     1      -0.132  14.203  21.578  0.00  0.00    +0.000 A 
ATOM     22  N   UNL     1       0.237  15.413  22.077  0.00  0.00    +0.000 NA
ATOM     23  C   UNL     1       0.245  16.458  21.230  0.00  0.00    +0.000 A 
ATOM     24  C   UNL     1      -0.077  16.353  19.889  0.00  0.00    +0.000 A 
ATOM     25  C   UNL     1      -0.430  15.099  19.393  0.00  0.00    +0.000 A 
ATOM     26  C   UNL     1      -0.465  13.985  20.242  0.00  0.00    +0.000 A 
BRANCH  21  27
ATOM     27  O   UNL     1      -0.150  13.147  22.468  0.00  0.00    +0.000 OA
BRANCH  27  29
ATOM     28  C   UNL     1      -1.940  11.711  23.126  0.00  0.00    +0.000 C 
ATOM     29  C   UNL     1      -1.365  13.110  23.224  0.00  0.00    +0.000 C 
ENDBRANCH  27  29
ENDBRANCH  21  27
ENDBRANCH  17  26
ENDBRANCH   1  19
TORSDOF 4
ENDMDL
MODEL 2
REMARK VINA RESULT:      -7.2      1.240      1.882
REMARK  Name = 
REMARK  5 active torsions:
REMARK  status: ('A' for Active; 'I' for Inactive)
REMARK    1  A    between atoms: C_1  and  C_2
REMARK    2  A    between atoms: C_2  and  O_3
REMARK    3  A    between atoms: O_3  and  C_4
REMARK    4  A    between atoms: C_9  and  C_10
REMARK    5  A    between atoms: N_12  and  C_13
REMARK                            x       y       z     vdW  Elec       q    Type
REMARK                         _______ _______ _______ _____ _____    ______ ____
ROOT
ATOM      1  C   UNL     1      -0.520   9.990  19.996  0.00  0.00    +0.000 C 
ATOM      2  C   UNL     1      -0.035   8.798  20.828  0.00  0.00    +0.000 C 
ATOM      3  C   UNL     1       1.468   8.571  20.705  0.00  0.00    +0.000 C 
ATOM      4  N   UNL     1       1.893   8.570  19.309  0.00  0.00    +0.000 N 
ATOM      5  C   UNL     1       2.481   7.437  18.775  0.00  0.00    +0.000 A 
ATOM      6  C   UNL     1       3.428   7.546  17.765  0.00  0.00    +0.000 A 
ATOM      7  C   UNL     1       4.059   6.419  17.239  0.00  0.00    +0.000 A 
ATOM      8  C   UNL     1       3.661   5.174  17.707  0.00  0.00    +0.000 A 
ATOM      9  N   UNL     1       2.751   5.069  18.695  0.00  0.00    +0.000 NA
ATOM     10  N   UNL     1       2.180   6.209  19.239  0.00  0.00    +0.000 NA
ATOM     11  C   UNL     1       4.264   3.898  17.185  0.00  0.00    +0.000 C 
ATOM     12  C   UNL     1       5.045   4.097  15.885  0.00  0.00    +0.000 C 
ATOM     13  C   UNL     1       5.954   5.314  15.995  0.00  0.00    +0.000 C 
ATOM     14  C   UNL     1       5.116   6.578  16.182  0.00  0.00    +0.000 C 
ATOM     15  C   UNL     1       1.471   9.668  18.452  0.00  0.00    +0.000 C 
ATOM     16  C   UNL     1      -0.036   9.877  18.550  0.00  0.00    +0.000 C 
ENDROOT
BRANCH   1  19
ATOM     17  C   UNL     1      -0.927  12.391  20.581  0.00  0.00    +0.000 C 
ATOM     18  O   UNL     1      -2.011  12.423  20.004  0.00  0.00    +0.000 OA
ATOM     19  N   UNL     1      -0.123  11.268  20.581  0.00  0.00    +0.000 N 
ATOM     20  H   UNL     1       0.723  11.300  21.142  0.00  0.00    +0.000 HD
BRANCH  17  26
ATOM     21  C   UNL     1       0.892  13.862  21.619  0.00  0.00    +0.000 A 
ATOM     22  N   UNL     1       1.304  14.939  22.338  0.00  0.00    +0.000 NA
ATOM     23  C   UNL     1       0.355  15.765  22.816  0.00  0.00    +0.000 A 
ATOM     24  C   UNL     1      -0.997  15.583  22.592  0.00  0.00    +0.000 A 
ATOM     25  C   UNL     1      -1.396  14.485  21.833  0.00  0.00    +0.000 A 
ATOM     26  C   UNL     1      -0.444  13.590  21.326  0.00  0.00    +0.000 A 
BRANCH  21  27
ATOM     27  O   UNL     1       1.879  13.016  21.151  0.00  0.00    +0.000 OA
BRANCH  27  29
ATOM     28  C   UNL     1       2.434  13.244  18.841  0.00  0.00    +0.000 C 
ATOM     29  C   UNL     1       2.769  13.685  20.252  0.00  0.00    +0.000 C 
ENDBRANCH  27  29
ENDBRANCH  21  27
ENDBRANCH  17  26
ENDBRANCH   1  19
TORSDOF 4
ENDMDL
MODEL 3
REMARK VINA RESULT:      -7.1      2.437      3.908
REMARK  Name = 
REMARK  5 active torsions:
REMARK  status: ('A' for Active; 'I' for Inactive)
REMARK    1  A    between atoms: C_1  and  C_2
REMARK    2  A    between atoms: C_2  and  O_3
REMARK    3  A    between atoms: O_3  and  C_4
REMARK    4  A    between atoms: C_9  and  C_10
REMARK    5  A    between atoms: N_12  and  C_13
REMARK                            x       y       z     vdW  Elec       q    Type
REMARK                         _______ _______ _______ _____ _____    ______ ____
ROOT
ATOM      1  C   UNL     1       0.346  11.703  20.161  0.00  0.00    +0.000 C 
ATOM      2  C   UNL     1       0.655  11.367  18.698  0.00  0.00    +0.000 C 
ATOM      3  C   UNL     1       0.419   9.896  18.372  0.00  0.00    +0.000 C 
ATOM      4  N   UNL     1       1.052   9.027  19.358  0.00  0.00    +0.000 N 
ATOM      5  C   UNL     1       2.035   8.139  18.955  0.00  0.00    +0.000 A 
ATOM      6  C   UNL     1       2.205   6.930  19.617  0.00  0.00    +0.000 A 
ATOM      7  C   UNL     1       3.163   6.005  19.202  0.00  0.00    +0.000 A 
ATOM      8  C   UNL     1       3.994   6.360  18.148  0.00  0.00    +0.000 A 
ATOM      9  N   UNL     1       3.821   7.527  17.498  0.00  0.00    +0.000 NA
ATOM     10  N   UNL     1       2.823   8.403  17.895  0.00  0.00    +0.000 NA
ATOM     11  C   UNL     1       5.074   5.442  17.644  0.00  0.00    +0.000 C 
ATOM     12  C   UNL     1       5.388   4.301  18.614  0.00  0.00    +0.000 C 
ATOM     13  C   UNL     1       4.098   3.665  19.116  0.00  0.00    +0.000 C 
ATOM     14  C   UNL     1       3.286   4.686  19.912  0.00  0.00    +0.000 C 
ATOM     15  C   UNL     1       0.811   9.282  20.771  0.00  0.00    +0.000 C 
ATOM     16  C   UNL     1       1.075  10.746  21.104  0.00  0.00    +0.000 C 
ENDROOT
BRANCH   1  19
ATOM     17  C   UNL     1      -1.856  12.862  20.441  0.00  0.00    +0.000 C 
ATOM     18  O   UNL     1      -1.367  13.980  20.307  0.00  0.00    +0.000 OA
ATOM     19  N   UNL     1      -1.088  11.714  20.433  0.00  0.00    +0.000 N 
ATOM     20  H   UNL     1      -1.578  10.825  20.478  0.00  0.00    +0.000 HD
BRANCH  17  26
ATOM     21  C   UNL     1      -4.209  12.289  19.612  0.00  0.00    +0.000 A 
ATOM     22  N   UNL     1      -5.555  12.200  19.778  0.00  0.00    +0.000 NA
ATOM     23  C   UNL     1      -6.059  12.571  20.969  0.00  0.00    +0.000 A 
ATOM     24  C   UNL     1      -5.279  13.011  22.023  0.00  0.00    +0.000 A 
ATOM     25  C   UNL     1      -3.899  13.074  21.839  0.00  0.00    +0.000 A 
ATOM     26  C   UNL     1      -3.330  12.709  20.610  0.00  0.00    +0.000 A 
BRANCH  21  27
ATOM     27  O   UNL     1      -3.712  11.920  18.377  0.00  0.00    +0.000 OA
BRANCH  27  29
ATOM     28  C   UNL     1      -3.243   9.722  17.572  0.00  0.00    +0.000 C 
ATOM     29  C   UNL     1      -4.332  10.725  17.891  0.00  0.00    +0.000 C 
ENDBRANCH  27  29
ENDBRANCH  21  27
ENDBRANCH  17  26
ENDBRANCH   1  19
TORSDOF 4
ENDMDL
MODEL 4
REMARK VINA RESULT:      -7.0      2.485      3.935
REMARK  Name = 
REMARK  5 active torsions:
REMARK  status: ('A' for Active; 'I' for Inactive)
REMARK    1  A    between atoms: C_1  and  C_2
REMARK    2  A    between atoms: C_2  and  O_3
REMARK    3  A    between atoms: O_3  and  C_4
REMARK    4  A    between atoms: C_9  and  C_10
REMARK    5  A    between atoms: N_12  and  C_13
REMARK                            x       y       z     vdW  Elec       q    Type
REMARK                         _______ _______ _______ _____ _____    ______ ____
ROOT
ATOM      1  C   UNL     1       0.688  11.095  21.204  0.00  0.00    +0.000 C 
ATOM      2  C   UNL     1       1.004  10.741  19.747  0.00  0.00    +0.000 C 
ATOM      3  C   UNL     1       0.532   9.341  19.368  0.00  0.00    +0.000 C 
ATOM      4  N   UNL     1       0.954   8.353  20.355  0.00  0.00    +0.000 N 
ATOM      5  C   UNL     1       1.785   7.315  19.969  0.00  0.00    +0.000 A 
ATOM      6  C   UNL     1       1.709   6.082  20.603  0.00  0.00    +0.000 A 
ATOM      7  C   UNL     1       2.510   5.012  20.204  0.00  0.00    +0.000 A 
ATOM      8  C   UNL     1       3.440   5.237  19.198  0.00  0.00    +0.000 A 
ATOM      9  N   UNL     1       3.505   6.430  18.576  0.00  0.00    +0.000 NA
ATOM     10  N   UNL     1       2.658   7.460  18.954  0.00  0.00    +0.000 NA
ATOM     11  C   UNL     1       4.367   4.155  18.716  0.00  0.00    +0.000 C 
ATOM     12  C   UNL     1       4.429   2.956  19.665  0.00  0.00    +0.000 C 
ATOM     13  C   UNL     1       3.025   2.546  20.091  0.00  0.00    +0.000 C 
ATOM     14  C   UNL     1       2.366   3.677  20.879  0.00  0.00    +0.000 C 
ATOM     15  C   UNL     1       0.692   8.617  21.762  0.00  0.00    +0.000 C 
ATOM     16  C   UNL     1       1.192  10.004  22.150  0.00  0.00    +0.000 C 
ENDROOT
BRANCH   1  19
ATOM     17  C   UNL     1      -1.224  12.195  22.391  0.00  0.00    +0.000 C 
ATOM     18  O   UNL     1      -0.495  12.727  23.224  0.00  0.00    +0.000 OA
ATOM     19  N   UNL     1      -0.735  11.352  21.412  0.00  0.00    +0.000 N 
ATOM     20  H   UNL     1      -1.394  11.010  20.719  0.00  0.00    +0.000 HD
BRANCH  17  26
ATOM     21  C   UNL     1      -3.458  12.778  21.286  0.00  0.00    +0.000 A 
ATOM     22  N   UNL     1      -4.787  13.059  21.333  0.00  0.00    +0.000 NA
ATOM     23  C   UNL     1      -5.378  13.058  22.542  0.00  0.00    +0.000 A 
ATOM     24  C   UNL     1      -4.710  12.766  23.716  0.00  0.00    +0.000 A 
ATOM     25  C   UNL     1      -3.353  12.458  23.643  0.00  0.00    +0.000 A 
ATOM     26  C   UNL     1      -2.692  12.460  22.407  0.00  0.00    +0.000 A 
BRANCH  21  27
ATOM     27  O   UNL     1      -2.865  12.801  20.038  0.00  0.00    +0.000 OA
BRANCH  27  29
ATOM     28  C   UNL     1      -2.521  11.176  18.323  0.00  0.00    +0.000 C 
ATOM     29  C   UNL     1      -3.554  11.960  19.108  0.00  0.00    +0.000 C 
ENDBRANCH  27  29
ENDBRANCH  21  27
ENDBRANCH  17  26
ENDBRANCH   1  19
TORSDOF 4
ENDMDL
MODEL 5
REMARK VINA RESULT:      -7.0      3.234      4.904
REMARK  Name = 
REMARK  5 active torsions:
REMARK  status: ('A' for Active; 'I' for Inactive)
REMARK    1  A    between atoms: C_1  and  C_2
REMARK    2  A    between atoms: C_2  and  O_3
REMARK    3  A    between atoms: O_3  and  C_4
REMARK    4  A    between atoms: C_9  and  C_10
REMARK    5  A    between atoms: N_12  and  C_13
REMARK                            x       y       z     vdW  Elec       q    Type
REMARK                         _______ _______ _______ _____ _____    ______ ____
ROOT
ATOM      1  C   UNL     1      -1.253  12.672  20.968  0.00  0.00    +0.000 C 
ATOM      2  C   UNL     1      -1.243  12.353  19.469  0.00  0.00    +0.000 C 
ATOM      3  C   UNL     1      -1.285  10.855  19.189  0.00  0.00    +0.000 C 
ATOM      4  N   UNL     1      -0.294  10.139  19.985  0.00  0.00    +0.000 N 
ATOM      5  C   UNL     1       0.707   9.425  19.348  0.00  0.00    +0.000 A 
ATOM      6  C   UNL     1       1.239   8.285  19.934  0.00  0.00    +0.000 A 
ATOM      7  C   UNL     1       2.221   7.530  19.292  0.00  0.00    +0.000 A 
ATOM      8  C   UNL     1       2.704   7.994  18.075  0.00  0.00    +0.000 A 
ATOM      9  N   UNL     1       2.179   9.093  17.501  0.00  0.00    +0.000 NA
ATOM     10  N   UNL     1       1.164   9.793  18.135  0.00  0.00    +0.000 NA
ATOM     11  C   UNL     1       3.780   7.265  17.318  0.00  0.00    +0.000 C 
ATOM     12  C   UNL     1       4.509   6.226  18.171  0.00  0.00    +0.000 C 
ATOM     13  C   UNL     1       3.508   5.388  18.955  0.00  0.00    +0.000 C 
ATOM     14  C   UNL     1       2.739   6.274  19.934  0.00  0.00    +0.000 C 
ATOM     15  C   UNL     1      -0.237  10.388  21.417  0.00  0.00    +0.000 C 
ATOM     16  C   UNL     1      -0.165  11.885  21.698  0.00  0.00    +0.000 C 
ENDROOT
BRANCH   1  19
ATOM     17  C   UNL     1      -3.565  13.389  21.613  0.00  0.00    +0.000 C 
ATOM     18  O   UNL     1      -3.396  14.540  21.218  0.00  0.00    +0.000 OA
ATOM     19  N   UNL     1      -2.562  12.440  21.572  0.00  0.00    +0.000 N 
ATOM     20  H   UNL     1      -2.804  11.494  21.850  0.00  0.00    +0.000 HD
BRANCH  17  26
ATOM     21  C   UNL     1      -5.877  12.310  21.417  0.00  0.00    +0.000 A 
ATOM     22  N   UNL     1      -7.097  11.980  21.916  0.00  0.00    +0.000 NA
ATOM     23  C   UNL     1      -7.370  12.346  23.182  0.00  0.00    +0.000 A 
ATOM     24  C   UNL     1      -6.470  13.014  23.992  0.00  0.00    +0.000 A 
ATOM     25  C   UNL     1      -5.216  13.323  23.467  0.00  0.00    +0.000 A 
ATOM     26  C   UNL     1      -4.892  12.972  22.149  0.00  0.00    +0.000 A 
BRANCH  21  27
ATOM     27  O   UNL     1      -5.623  11.940  20.110  0.00  0.00    +0.000 OA
BRANCH  27  29
ATOM     28  C   UNL     1      -6.864  11.537  18.111  0.00  0.00    +0.000 C 
ATOM     29  C   UNL     1      -6.685  11.151  19.566  0.00  0.00    +0.000 C 
ENDBRANCH  27  29
ENDBRANCH  21  27
ENDBRANCH  17  26
ENDBRANCH   1  19
TORSDOF 4
ENDMDL
MODEL 6
REMARK VINA RESULT:      -7.0      1.788      2.544
REMARK  Name = 
REMARK  5 active torsions:
REMARK  status: ('A' for Active; 'I' for Inactive)
REMARK    1  A    between atoms: C_1  and  C_2
REMARK    2  A    between atoms: C_2  and  O_3
REMARK    3  A    between atoms: O_3  and  C_4
REMARK    4  A    between atoms: C_9  and  C_10
REMARK    5  A    between atoms: N_12  and  C_13
REMARK                            x       y       z     vdW  Elec       q    Type
REMARK                         _______ _______ _______ _____ _____    ______ ____
ROOT
ATOM      1  C   UNL     1      -0.417  10.388  21.083  0.00  0.00    +0.000 C 
ATOM      2  C   UNL     1      -0.010   9.297  22.079  0.00  0.00    +0.000 C 
ATOM      3  C   UNL     1       1.392   8.759  21.817  0.00  0.00    +0.000 C 
ATOM      4  N   UNL     1       1.576   8.418  20.410  0.00  0.00    +0.000 N 
ATOM      5  C   UNL     1       1.869   7.112  20.057  0.00  0.00    +0.000 A 
ATOM      6  C   UNL     1       2.642   6.845  18.935  0.00  0.00    +0.000 A 
ATOM      7  C   UNL     1       2.980   5.538  18.583  0.00  0.00    +0.000 A 
ATOM      8  C   UNL     1       2.460   4.504  19.350  0.00  0.00    +0.000 A 
ATOM      9  N   UNL     1       1.721   4.764  20.445  0.00  0.00    +0.000 NA
ATOM     10  N   UNL     1       1.447   6.075  20.804  0.00  0.00    +0.000 NA
ATOM     11  C   UNL     1       2.746   3.061  19.036  0.00  0.00    +0.000 C 
ATOM     12  C   UNL     1       3.325   2.859  17.634  0.00  0.00    +0.000 C 
ATOM     13  C   UNL     1       4.432   3.871  17.368  0.00  0.00    +0.000 C 
ATOM     14  C   UNL     1       3.860   5.288  17.390  0.00  0.00    +0.000 C 
ATOM     15  C   UNL     1       1.210   9.401  19.401  0.00  0.00    +0.000 C 
ATOM     16  C   UNL     1      -0.204   9.918  19.644  0.00  0.00    +0.000 C 
ENDROOT
BRANCH   1  19
ATOM     17  C   UNL     1      -0.320  12.887  21.218  0.00  0.00    +0.000 C 
ATOM     18  O   UNL     1      -1.471  13.026  20.811  0.00  0.00    +0.000 OA
ATOM     19  N   UNL     1       0.278  11.648  21.331  0.00  0.00    +0.000 N 
ATOM     20  H   UNL     1       1.206  11.614  21.744  0.00  0.00    +0.000 HD
BRANCH  17  26
ATOM     21  C   UNL     1       1.829  14.270  21.343  0.00  0.00    +0.000 A 
ATOM     22  N   UNL     1       2.544  15.348  21.762  0.00  0.00    +0.000 NA
ATOM     23  C   UNL     1       1.906  16.261  22.516  0.00  0.00    +0.000 A 
ATOM     24  C   UNL     1       0.570  16.166  22.860  0.00  0.00    +0.000 A 
ATOM     25  C   UNL     1      -0.150  15.065  22.401  0.00  0.00    +0.000 A 
ATOM     26  C   UNL     1       0.476  14.081  21.623  0.00  0.00    +0.000 A 
BRANCH  21  27
ATOM     27  O   UNL     1       2.506  13.336  20.584  0.00  0.00    +0.000 OA
BRANCH  27  29
ATOM     28  C   UNL     1       2.430  12.774  18.265  0.00  0.00    +0.000 C 
ATOM     29  C   UNL     1       2.814  13.834  19.279  0.00  0.00    +0.000 C 
ENDBRANCH  27  29
ENDBRANCH  21  27
ENDBRANCH  17  26
ENDBRANCH   1  19
TORSDOF 4
ENDMDL
MODEL 7
REMARK VINA RESULT:      -6.9      2.477      3.507
REMARK  Name = 
REMARK  5 active torsions:
REMARK  status: ('A' for Active; 'I' for Inactive)
REMARK    1  A    between atoms: C_1  and  C_2
REMARK    2  A    between atoms: C_2  and  O_3
REMARK    3  A    between atoms: O_3  and  C_4
REMARK    4  A    between atoms: C_9  and  C_10
REMARK    5  A    between atoms: N_12  and  C_13
REMARK                            x       y       z     vdW  Elec       q    Type
REMARK                         _______ _______ _______ _____ _____    ______ ____
ROOT
ATOM      1  C   UNL     1       0.247  11.836  20.319  0.00  0.00    +0.000 C 
ATOM      2  C   UNL     1       0.464  11.468  18.847  0.00  0.00    +0.000 C 
ATOM      3  C   UNL     1       0.215   9.990  18.570  0.00  0.00    +0.000 C 
ATOM      4  N   UNL     1       0.913   9.144  19.533  0.00  0.00    +0.000 N 
ATOM      5  C   UNL     1       1.872   8.250  19.088  0.00  0.00    +0.000 A 
ATOM      6  C   UNL     1       2.089   7.058  19.765  0.00  0.00    +0.000 A 
ATOM      7  C   UNL     1       3.023   6.127  19.312  0.00  0.00    +0.000 A 
ATOM      8  C   UNL     1       3.784   6.459  18.199  0.00  0.00    +0.000 A 
ATOM      9  N   UNL     1       3.565   7.611  17.535  0.00  0.00    +0.000 NA
ATOM     10  N   UNL     1       2.590   8.493  17.975  0.00  0.00    +0.000 NA
ATOM     11  C   UNL     1       4.834   5.534  17.648  0.00  0.00    +0.000 C 
ATOM     12  C   UNL     1       5.214   4.416  18.622  0.00  0.00    +0.000 C 
ATOM     13  C   UNL     1       3.961   3.788  19.219  0.00  0.00    +0.000 C 
ATOM     14  C   UNL     1       3.196   4.824  20.041  0.00  0.00    +0.000 C 
ATOM     15  C   UNL     1       0.760   9.430  20.952  0.00  0.00    +0.000 C 
ATOM     16  C   UNL     1       1.039  10.902  21.235  0.00  0.00    +0.000 C 
ENDROOT
BRANCH   1  19
ATOM     17  C   UNL     1      -2.011  12.913  20.431  0.00  0.00    +0.000 C 
ATOM     18  O   UNL     1      -1.609  13.974  19.960  0.00  0.00    +0.000 OA
ATOM     19  N   UNL     1      -1.168  11.848  20.681  0.00  0.00    +0.000 N 
ATOM     20  H   UNL     1      -1.592  10.984  21.003  0.00  0.00    +0.000 HD
BRANCH  17  26
ATOM     21  C   UNL     1      -3.994  12.633  22.025  0.00  0.00    +0.000 A 
ATOM     22  N   UNL     1      -5.313  12.429  22.281  0.00  0.00    +0.000 NA
ATOM     23  C   UNL     1      -6.135  12.289  21.225  0.00  0.00    +0.000 A 
ATOM     24  C   UNL     1      -5.708  12.366  19.912  0.00  0.00    +0.000 A 
ATOM     25  C   UNL     1      -4.356  12.599  19.672  0.00  0.00    +0.000 A 
ATOM     26  C   UNL     1      -3.459  12.738  20.741  0.00  0.00    +0.000 A 
BRANCH  21  27
ATOM     27  O   UNL     1      -3.163  12.757  23.122  0.00  0.00    +0.000 OA
BRANCH  27  29
ATOM     28  C   UNL     1      -3.303  14.415  24.834  0.00  0.00    +0.000 C 
ATOM     29  C   UNL     1      -3.889  13.124  24.299  0.00  0.00    +0.000 C 
ENDBRANCH  27  29
ENDBRANCH  21  27
ENDBRANCH  17  26
ENDBRANCH   1  19
TORSDOF 4
ENDMDL
MODEL 8
REMARK VINA RESULT:      -6.9      2.549      4.228
REMARK  Name = 
REMARK  5 active torsions:
REMARK  status: ('A' for Active; 'I' for Inactive)
REMARK    1  A    between atoms: C_1  and  C_2
REMARK    2  A    between atoms: C_2  and  O_3
REMARK    3  A    between atoms: O_3  and  C_4
REMARK    4  A    between atoms: C_9  and  C_10
REMARK    5  A    between atoms: N_12  and  C_13
REMARK                            x       y       z     vdW  Elec       q    Type
REMARK                         _______ _______ _______ _____ _____    ______ ____
ROOT
ATOM      1  C   UNL     1      -0.392  12.331  20.577  0.00  0.00    +0.000 C 
ATOM      2  C   UNL     1      -0.415  11.958  19.091  0.00  0.00    +0.000 C 
ATOM      3  C   UNL     1      -0.533  10.455  18.866  0.00  0.00    +0.000 C 
ATOM      4  N   UNL     1       0.430   9.720  19.678  0.00  0.00    +0.000 N 
ATOM      5  C   UNL     1       1.387   8.935  19.057  0.00  0.00    +0.000 A 
ATOM      6  C   UNL     1       1.870   7.791  19.680  0.00  0.00    +0.000 A 
ATOM      7  C   UNL     1       2.806   6.967  19.056  0.00  0.00    +0.000 A 
ATOM      8  C   UNL     1       3.296   7.361  17.819  0.00  0.00    +0.000 A 
ATOM      9  N   UNL     1       2.819   8.464  17.209  0.00  0.00    +0.000 NA
ATOM     10  N   UNL     1       1.847   9.235  17.828  0.00  0.00    +0.000 NA
ATOM     11  C   UNL     1       4.326   6.553  17.078  0.00  0.00    +0.000 C 
ATOM     12  C   UNL     1       5.014   5.511  17.961  0.00  0.00    +0.000 C 
ATOM     13  C   UNL     1       3.982   4.753  18.785  0.00  0.00    +0.000 C 
ATOM     14  C   UNL     1       3.269   5.710  19.739  0.00  0.00    +0.000 C 
ATOM     15  C   UNL     1       0.516  10.018  21.100  0.00  0.00    +0.000 C 
ATOM     16  C   UNL     1       0.665  11.518  21.325  0.00  0.00    +0.000 C 
ENDROOT
BRANCH   1  19
ATOM     17  C   UNL     1      -2.062  12.810  22.382  0.00  0.00    +0.000 C 
ATOM     18  O   UNL     1      -1.265  13.469  23.044  0.00  0.00    +0.000 OA
ATOM     19  N   UNL     1      -1.703  12.186  21.202  0.00  0.00    +0.000 N 
ATOM     20  H   UNL     1      -2.439  11.720  20.679  0.00  0.00    +0.000 HD
BRANCH  17  26
ATOM     21  C   UNL     1      -4.591  12.711  22.002  0.00  0.00    +0.000 A 
ATOM     22  N   UNL     1      -5.872  12.626  22.447  0.00  0.00    +0.000 NA
ATOM     23  C   UNL     1      -6.062  12.530  23.776  0.00  0.00    +0.000 A 
ATOM     24  C   UNL     1      -5.028  12.491  24.692  0.00  0.00    +0.000 A 
ATOM     25  C   UNL     1      -3.721  12.556  24.213  0.00  0.00    +0.000 A 
ATOM     26  C   UNL     1      -3.475  12.670  22.837  0.00  0.00    +0.000 A 
BRANCH  21  27
ATOM     27  O   UNL     1      -4.417  12.827  20.636  0.00  0.00    +0.000 OA
BRANCH  27  29
ATOM     28  C   UNL     1      -5.858  12.725  18.736  0.00  0.00    +0.000 C 
ATOM     29  C   UNL     1      -5.530  13.473  20.012  0.00  0.00    +0.000 C 
ENDBRANCH  27  29
ENDBRANCH  21  27
ENDBRANCH  17  26
ENDBRANCH   1  19
TORSDOF 4
ENDMDL
MODEL 9
REMARK VINA RESULT:      -6.9      2.124      2.477
REMARK  Name = 
REMARK  5 active torsions:
REMARK  status: ('A' for Active; 'I' for Inactive)
REMARK    1  A    between atoms: C_1  and  C_2
REMARK    2  A    between atoms: C_2  and  O_3
REMARK    3  A    between atoms: O_3  and  C_4
REMARK    4  A    between atoms: C_9  and  C_10
REMARK    5  A    between atoms: N_12  and  C_13
REMARK                            x       y       z     vdW  Elec       q    Type
REMARK                         _______ _______ _______ _____ _____    ______ ____
ROOT
ATOM      1  C   UNL     1       0.369  10.484  19.496  0.00  0.00    +0.000 C 
ATOM      2  C   UNL     1       0.462   9.610  20.752  0.00  0.00    +0.000 C 
ATOM      3  C   UNL     1       1.736   8.772  20.789  0.00  0.00    +0.000 C 
ATOM      4  N   UNL     1       1.948   8.073  19.525  0.00  0.00    +0.000 N 
ATOM      5  C   UNL     1       1.986   6.690  19.508  0.00  0.00    +0.000 A 
ATOM      6  C   UNL     1       2.767   6.019  18.576  0.00  0.00    +0.000 A 
ATOM      7  C   UNL     1       2.848   4.627  18.566  0.00  0.00    +0.000 A 
ATOM      8  C   UNL     1       2.066   3.924  19.474  0.00  0.00    +0.000 A 
ATOM      9  N   UNL     1       1.318   4.575  20.385  0.00  0.00    +0.000 NA
ATOM     10  N   UNL     1       1.300   5.961  20.409  0.00  0.00    +0.000 NA
ATOM     11  C   UNL     1       2.065   2.421  19.524  0.00  0.00    +0.000 C 
ATOM     12  C   UNL     1       2.692   1.782  18.284  0.00  0.00    +0.000 C 
ATOM     13  C   UNL     1       4.003   2.475  17.938  0.00  0.00    +0.000 C 
ATOM     14  C   UNL     1       3.743   3.936  17.575  0.00  0.00    +0.000 C 
ATOM     15  C   UNL     1       1.873   8.834  18.286  0.00  0.00    +0.000 C 
ATOM     16  C   UNL     1       0.586   9.649  18.234  0.00  0.00    +0.000 C 
ENDROOT
BRANCH   1  19
ATOM     17  C   UNL     1       1.025  12.845  18.978  0.00  0.00    +0.000 C 
ATOM     18  O   UNL     1       0.015  13.056  18.312  0.00  0.00    +0.000 OA
ATOM     19  N   UNL     1       1.294  11.613  19.542  0.00  0.00    +0.000 N 
ATOM     20  H   UNL     1       2.114  11.542  20.137  0.00  0.00    +0.000 HD
BRANCH  17  26
ATOM     21  C   UNL     1       2.340  14.466  20.459  0.00  0.00    +0.000 A 
ATOM     22  N   UNL     1       3.206  15.498  20.641  0.00  0.00    +0.000 NA
ATOM     23  C   UNL     1       3.743  16.058  19.541  0.00  0.00    +0.000 A 
ATOM     24  C   UNL     1       3.474  15.624  18.257  0.00  0.00    +0.000 A 
ATOM     25  C   UNL     1       2.601  14.550  18.094  0.00  0.00    +0.000 A 
ATOM     26  C   UNL     1       2.008  13.943  19.210  0.00  0.00    +0.000 A 
BRANCH  21  27
ATOM     27  O   UNL     1       1.787  13.915  21.599  0.00  0.00    +0.000 OA
BRANCH  27  29
ATOM     28  C   UNL     1      -0.460  13.626  22.351  0.00  0.00    +0.000 C 
ATOM     29  C   UNL     1       0.625  14.633  22.026  0.00  0.00    +0.000 C 
ENDBRANCH  27  29
ENDBRANCH  21  27
ENDBRANCH  17  26
ENDBRANCH   1  19
TORSDOF 4
ENDMDL
