MODEL 1
REMARK VINA RESULT:      -7.9      0.000      0.000
REMARK  Name = 
REMARK  2 active torsions:
REMARK  status: ('A' for Active; 'I' for Inactive)
REMARK    1  A    between atoms: N_5  and  C_6
REMARK    2  A    between atoms: C_13  and  C_14
REMARK                            x       y       z     vdW  Elec       q    Type
REMARK                         _______ _______ _______ _____ _____    ______ ____
ROOT
ATOM      1  O   UNL     1       1.911   4.169  21.175  0.00  0.00    +0.000 OA
ATOM      2  C   UNL     1       2.193   5.227  20.635  0.00  0.00    +0.000 C 
ATOM      3  N   UNL     1       1.591   6.421  20.912  0.00  0.00    +0.000 N 
ATOM      4  C   UNL     1       1.988   7.510  20.201  0.00  0.00    +0.000 C 
ATOM      5  N   UNL     1       1.499   8.691  20.232  0.00  0.00    +0.000 NA
ATOM      6  S   UNL     1       3.316   7.078  19.146  0.00  0.00    +0.000 S 
ATOM      7  C   UNL     1       3.217   5.407  19.572  0.00  0.00    +0.000 C 
ATOM      8  C   UNL     1       3.899   4.370  19.063  0.00  0.00    +0.000 C 
ATOM      9  H   UNL     1       0.866   6.451  21.607  0.00  0.00    +0.000 HD
ENDROOT
BRANCH   8  10
ATOM     10  C   UNL     1       4.913   4.457  18.013  0.00  0.00    +0.000 A 
ATOM     11  C   UNL     1       6.257   4.680  18.339  0.00  0.00    +0.000 A 
ATOM     12  C   UNL     1       7.224   4.750  17.333  0.00  0.00    +0.000 A 
ATOM     13  C   UNL     1       6.850   4.599  15.999  0.00  0.00    +0.000 A 
ATOM     14  C   UNL     1       5.511   4.365  15.671  0.00  0.00    +0.000 A 
ATOM     15  C   UNL     1       4.542   4.312  16.671  0.00  0.00    +0.000 A 
ATOM     16  O   UNL     1       5.075   4.183  14.382  0.00  0.00    +0.000 OA
ATOM     17  C   UNL     1       6.164   3.881  13.505  0.00  0.00    +0.000 C 
ATOM     18  C   UNL     1       7.325   4.835  13.742  0.00  0.00    +0.000 C 
ATOM     19  O   UNL     1       7.852   4.679  15.065  0.00  0.00    +0.000 OA
ENDBRANCH   8  10
BRANCH   5  20
ATOM     20  C   UNL     1       0.320   8.981  21.041  0.00  0.00    +0.000 C 
ATOM     21  C   UNL     1       0.664   9.193  22.508  0.00  0.00    +0.000 C 
ATOM     22  C   UNL     1      -0.551   9.943  23.043  0.00  0.00    +0.000 C 
ATOM     23  C   UNL     1      -1.086  10.762  21.868  0.00  0.00    +0.000 C 
ATOM     24  C   UNL     1      -0.277  10.328  20.646  0.00  0.00    +0.000 C 
ENDBRANCH   5  20
TORSDOF 2
ENDMDL
MODEL 2
REMARK VINA RESULT:      -7.4      1.800      2.109
REMARK  Name = 
REMARK  2 active torsions:
REMARK  status: ('A' for Active; 'I' for Inactive)
REMARK    1  A    between atoms: N_5  and  C_6
REMARK    2  A    between atoms: C_13  and  C_14
REMARK                            x       y       z     vdW  Elec       q    Type
REMARK                         _______ _______ _______ _____ _____    ______ ____
ROOT
ATOM      1  O   UNL     1       1.828   6.182  20.797  0.00  0.00    +0.000 OA
ATOM      2  C   UNL     1       1.986   7.000  19.906  0.00  0.00    +0.000 C 
ATOM      3  N   UNL     1       1.224   8.121  19.742  0.00  0.00    +0.000 N 
ATOM      4  C   UNL     1       1.498   8.922  18.678  0.00  0.00    +0.000 C 
ATOM      5  N   UNL     1       0.858   9.958  18.287  0.00  0.00    +0.000 NA
ATOM      6  S   UNL     1       2.903   8.319  17.826  0.00  0.00    +0.000 S 
ATOM      7  C   UNL     1       3.010   6.918  18.831  0.00  0.00    +0.000 C 
ATOM      8  C   UNL     1       3.838   5.868  18.720  0.00  0.00    +0.000 C 
ATOM      9  H   UNL     1       0.480   8.304  20.391  0.00  0.00    +0.000 HD
ENDROOT
BRANCH   8  10
ATOM     10  C   UNL     1       4.865   5.704  17.692  0.00  0.00    +0.000 A 
ATOM     11  C   UNL     1       6.175   6.144  17.918  0.00  0.00    +0.000 A 
ATOM     12  C   UNL     1       7.155   5.973  16.937  0.00  0.00    +0.000 A 
ATOM     13  C   UNL     1       6.828   5.365  15.727  0.00  0.00    +0.000 A 
ATOM     14  C   UNL     1       5.523   4.914  15.502  0.00  0.00    +0.000 A 
ATOM     15  C   UNL     1       4.540   5.098  16.473  0.00  0.00    +0.000 A 
ATOM     16  O   UNL     1       5.135   4.284  14.346  0.00  0.00    +0.000 OA
ATOM     17  C   UNL     1       6.268   3.817  13.606  0.00  0.00    +0.000 C 
ATOM     18  C   UNL     1       7.332   4.899  13.513  0.00  0.00    +0.000 C 
ATOM     19  O   UNL     1       7.839   5.231  14.811  0.00  0.00    +0.000 OA
ENDBRANCH   8  10
BRANCH   5  20
ATOM     20  C   UNL     1      -0.374  10.361  18.957  0.00  0.00    +0.000 C 
ATOM     21  C   UNL     1      -0.305  11.787  19.483  0.00  0.00    +0.000 C 
ATOM     22  C   UNL     1      -1.772  12.157  19.672  0.00  0.00    +0.000 C 
ATOM     23  C   UNL     1      -2.540  11.369  18.610  0.00  0.00    +0.000 C 
ATOM     24  C   UNL     1      -1.523  10.436  17.956  0.00  0.00    +0.000 C 
ENDBRANCH   5  20
TORSDOF 2
ENDMDL
MODEL 3
REMARK VINA RESULT:      -7.3      1.001      1.178
REMARK  Name = 
REMARK  2 active torsions:
REMARK  status: ('A' for Active; 'I' for Inactive)
REMARK    1  A    between atoms: N_5  and  C_6
REMARK    2  A    between atoms: C_13  and  C_14
REMARK                            x       y       z     vdW  Elec       q    Type
REMARK                         _______ _______ _______ _____ _____    ______ ____
ROOT
ATOM      1  O   UNL     1       2.333   3.704  19.945  0.00  0.00    +0.000 OA
ATOM      2  C   UNL     1       2.608   4.836  19.582  0.00  0.00    +0.000 C 
ATOM      3  N   UNL     1       2.046   5.970  20.095  0.00  0.00    +0.000 N 
ATOM      4  C   UNL     1       2.428   7.162  19.563  0.00  0.00    +0.000 C 
ATOM      5  N   UNL     1       1.966   8.325  19.825  0.00  0.00    +0.000 NA
ATOM      6  S   UNL     1       3.690   6.906  18.377  0.00  0.00    +0.000 S 
ATOM      7  C   UNL     1       3.578   5.187  18.512  0.00  0.00    +0.000 C 
ATOM      8  C   UNL     1       4.211   4.247  17.793  0.00  0.00    +0.000 C 
ATOM      9  H   UNL     1       1.359   5.888  20.823  0.00  0.00    +0.000 HD
ENDROOT
BRANCH   8  10
ATOM     10  C   UNL     1       5.171   4.505  16.720  0.00  0.00    +0.000 A 
ATOM     11  C   UNL     1       6.345   5.225  16.974  0.00  0.00    +0.000 A 
ATOM     12  C   UNL     1       7.265   5.457  15.948  0.00  0.00    +0.000 A 
ATOM     13  C   UNL     1       7.013   4.972  14.666  0.00  0.00    +0.000 A 
ATOM     14  C   UNL     1       5.847   4.242  14.412  0.00  0.00    +0.000 A 
ATOM     15  C   UNL     1       4.920   4.024  15.430  0.00  0.00    +0.000 A 
ATOM     16  O   UNL     1       5.545   3.713  13.183  0.00  0.00    +0.000 OA
ATOM     17  C   UNL     1       6.703   3.664  12.342  0.00  0.00    +0.000 C 
ATOM     18  C   UNL     1       7.457   4.984  12.392  0.00  0.00    +0.000 C 
ATOM     19  O   UNL     1       7.958   5.237  13.710  0.00  0.00    +0.000 OA
ENDBRANCH   8  10
BRANCH   5  20
ATOM     20  C   UNL     1       0.838   8.483  20.736  0.00  0.00    +0.000 C 
ATOM     21  C   UNL     1       1.281   8.823  22.151  0.00  0.00    +0.000 C 
ATOM     22  C   UNL     1       0.022   9.415  22.775  0.00  0.00    +0.000 C 
ATOM     23  C   UNL     1      -0.737  10.082  21.627  0.00  0.00    +0.000 C 
ATOM     24  C   UNL     1       0.011   9.706  20.350  0.00  0.00    +0.000 C 
ENDBRANCH   5  20
TORSDOF 2
ENDMDL
MODEL 4
REMARK VINA RESULT:      -7.1      3.045      9.056
REMARK  Name = 
REMARK  2 active torsions:
REMARK  status: ('A' for Active; 'I' for Inactive)
REMARK    1  A    between atoms: N_5  and  C_6
REMARK    2  A    between atoms: C_13  and  C_14
REMARK                            x       y       z     vdW  Elec       q    Type
REMARK                         _______ _______ _______ _____ _____    ______ ____
ROOT
ATOM      1  O   UNL     1       2.179   5.034  20.991  0.00  0.00    +0.000 OA
ATOM      2  C   UNL     1       2.426   5.805  20.078  0.00  0.00    +0.000 C 
ATOM      3  N   UNL     1       3.242   5.515  19.021  0.00  0.00    +0.000 N 
ATOM      4  C   UNL     1       3.451   6.491  18.098  0.00  0.00    +0.000 C 
ATOM      5  N   UNL     1       4.241   6.466  17.092  0.00  0.00    +0.000 NA
ATOM      6  S   UNL     1       2.473   7.892  18.481  0.00  0.00    +0.000 S 
ATOM      7  C   UNL     1       1.911   7.194  19.958  0.00  0.00    +0.000 C 
ATOM      8  C   UNL     1       1.148   7.752  20.911  0.00  0.00    +0.000 C 
ATOM      9  H   UNL     1       3.674   4.610  18.974  0.00  0.00    +0.000 HD
ENDROOT
BRANCH   8  10
ATOM     10  C   UNL     1       0.608   9.110  20.876  0.00  0.00    +0.000 A 
ATOM     11  C   UNL     1       0.421   9.770  19.655  0.00  0.00    +0.000 A 
ATOM     12  C   UNL     1      -0.108  11.064  19.627  0.00  0.00    +0.000 A 
ATOM     13  C   UNL     1      -0.448  11.701  20.819  0.00  0.00    +0.000 A 
ATOM     14  C   UNL     1      -0.273  11.040  22.039  0.00  0.00    +0.000 A 
ATOM     15  C   UNL     1       0.270   9.757  22.071  0.00  0.00    +0.000 A 
ATOM     16  O   UNL     1      -0.608  11.595  23.249  0.00  0.00    +0.000 OA
ATOM     17  C   UNL     1      -1.482  12.716  23.079  0.00  0.00    +0.000 C 
ATOM     18  C   UNL     1      -0.968  13.636  21.983  0.00  0.00    +0.000 C 
ATOM     19  O   UNL     1      -0.960  12.968  20.716  0.00  0.00    +0.000 OA
ENDBRANCH   8  10
BRANCH   5  20
ATOM     20  C   UNL     1       5.122   5.324  16.874  0.00  0.00    +0.000 C 
ATOM     21  C   UNL     1       5.502   5.160  15.410  0.00  0.00    +0.000 C 
ATOM     22  C   UNL     1       6.752   4.289  15.473  0.00  0.00    +0.000 C 
ATOM     23  C   UNL     1       7.436   4.636  16.796  0.00  0.00    +0.000 C 
ATOM     24  C   UNL     1       6.475   5.562  17.539  0.00  0.00    +0.000 C 
ENDBRANCH   5  20
TORSDOF 2
ENDMDL
MODEL 5
REMARK VINA RESULT:      -7.1      1.083      1.145
REMARK  Name = 
REMARK  2 active torsions:
REMARK  status: ('A' for Active; 'I' for Inactive)
REMARK    1  A    between atoms: N_5  and  C_6
REMARK    2  A    between atoms: C_13  and  C_14
REMARK                            x       y       z     vdW  Elec       q    Type
REMARK                         _______ _______ _______ _____ _____    ______ ____
ROOT
ATOM      1  O   UNL     1       2.188   5.034  20.625  0.00  0.00    +0.000 OA
ATOM      2  C   UNL     1       2.372   6.027  19.940  0.00  0.00    +0.000 C 
ATOM      3  N   UNL     1       1.694   7.204  20.089  0.00  0.00    +0.000 N 
ATOM      4  C   UNL     1       1.983   8.214  19.226  0.00  0.00    +0.000 C 
ATOM      5  N   UNL     1       1.410   9.353  19.128  0.00  0.00    +0.000 NA
ATOM      6  S   UNL     1       3.299   7.738  18.174  0.00  0.00    +0.000 S 
ATOM      7  C   UNL     1       3.339   6.135  18.816  0.00  0.00    +0.000 C 
ATOM      8  C   UNL     1       4.076   5.089  18.413  0.00  0.00    +0.000 C 
ATOM      9  H   UNL     1       0.995   7.276  20.807  0.00  0.00    +0.000 HD
ENDROOT
BRANCH   8  10
ATOM     10  C   UNL     1       5.041   5.106  17.315  0.00  0.00    +0.000 A 
ATOM     11  C   UNL     1       6.322   5.642  17.502  0.00  0.00    +0.000 A 
ATOM     12  C   UNL     1       7.244   5.644  16.452  0.00  0.00    +0.000 A 
ATOM     13  C   UNL     1       6.889   5.113  15.214  0.00  0.00    +0.000 A 
ATOM     14  C   UNL     1       5.615   4.566  15.028  0.00  0.00    +0.000 A 
ATOM     15  C   UNL     1       4.688   4.578  16.068  0.00  0.00    +0.000 A 
ATOM     16  O   UNL     1       5.205   4.004  13.845  0.00  0.00    +0.000 OA
ATOM     17  C   UNL     1       6.321   3.705  13.000  0.00  0.00    +0.000 C 
ATOM     18  C   UNL     1       7.281   4.883  12.941  0.00  0.00    +0.000 C 
ATOM     19  O   UNL     1       7.845   5.149  14.231  0.00  0.00    +0.000 OA
ENDBRANCH   8  10
BRANCH   5  20
ATOM     20  C   UNL     1       0.245   9.666  19.947  0.00  0.00    +0.000 C 
ATOM     21  C   UNL     1       0.626  10.298  21.277  0.00  0.00    +0.000 C 
ATOM     22  C   UNL     1      -0.666  10.975  21.722  0.00  0.00    +0.000 C 
ATOM     23  C   UNL     1      -1.390  11.375  20.436  0.00  0.00    +0.000 C 
ATOM     24  C   UNL     1      -0.587  10.764  19.290  0.00  0.00    +0.000 C 
ENDBRANCH   5  20
TORSDOF 2
ENDMDL
MODEL 6
REMARK VINA RESULT:      -7.0      3.512      9.003
REMARK  Name = 
REMARK  2 active torsions:
REMARK  status: ('A' for Active; 'I' for Inactive)
REMARK    1  A    between atoms: N_5  and  C_6
REMARK    2  A    between atoms: C_13  and  C_14
REMARK                            x       y       z     vdW  Elec       q    Type
REMARK                         _______ _______ _______ _____ _____    ______ ____
ROOT
ATOM      1  O   UNL     1       1.918   5.778  20.882  0.00  0.00    +0.000 OA
ATOM      2  C   UNL     1       2.235   6.464  19.924  0.00  0.00    +0.000 C 
ATOM      3  N   UNL     1       3.097   6.067  18.941  0.00  0.00    +0.000 N 
ATOM      4  C   UNL     1       3.383   6.957  17.954  0.00  0.00    +0.000 C 
ATOM      5  N   UNL     1       4.224   6.829  16.999  0.00  0.00    +0.000 NA
ATOM      6  S   UNL     1       2.427   8.408  18.166  0.00  0.00    +0.000 S 
ATOM      7  C   UNL     1       1.767   7.851  19.662  0.00  0.00    +0.000 C 
ATOM      8  C   UNL     1       0.971   8.504  20.522  0.00  0.00    +0.000 C 
ATOM      9  H   UNL     1       3.505   5.151  18.992  0.00  0.00    +0.000 HD
ENDROOT
BRANCH   8  10
ATOM     10  C   UNL     1       0.473   9.868  20.347  0.00  0.00    +0.000 A 
ATOM     11  C   UNL     1      -0.635  10.120  19.528  0.00  0.00    +0.000 A 
ATOM     12  C   UNL     1      -1.114  11.424  19.374  0.00  0.00    +0.000 A 
ATOM     13  C   UNL     1      -0.487  12.477  20.036  0.00  0.00    +0.000 A 
ATOM     14  C   UNL     1       0.613  12.227  20.863  0.00  0.00    +0.000 A 
ATOM     15  C   UNL     1       1.103  10.930  21.005  0.00  0.00    +0.000 A 
ATOM     16  O   UNL     1       1.265  13.210  21.564  0.00  0.00    +0.000 OA
ATOM     17  C   UNL     1       0.470  14.398  21.649  0.00  0.00    +0.000 C 
ATOM     18  C   UNL     1      -0.114  14.751  20.291  0.00  0.00    +0.000 C 
ATOM     19  O   UNL     1      -1.011  13.729  19.838  0.00  0.00    +0.000 OA
ENDBRANCH   8  10
BRANCH   5  20
ATOM     20  C   UNL     1       5.082   5.652  16.924  0.00  0.00    +0.000 C 
ATOM     21  C   UNL     1       5.537   5.359  15.502  0.00  0.00    +0.000 C 
ATOM     22  C   UNL     1       6.755   4.465  15.706  0.00  0.00    +0.000 C 
ATOM     23  C   UNL     1       7.376   4.903  17.033  0.00  0.00    +0.000 C 
ATOM     24  C   UNL     1       6.403   5.911  17.642  0.00  0.00    +0.000 C 
ENDBRANCH   5  20
TORSDOF 2
ENDMDL
MODEL 7
REMARK VINA RESULT:      -7.0      3.277      4.322
REMARK  Name = 
REMARK  2 active torsions:
REMARK  status: ('A' for Active; 'I' for Inactive)
REMARK    1  A    between atoms: N_5  and  C_6
REMARK    2  A    between atoms: C_13  and  C_14
REMARK                            x       y       z     vdW  Elec       q    Type
REMARK                         _______ _______ _______ _____ _____    ______ ____
ROOT
ATOM      1  O   UNL     1       2.171  10.623  17.380  0.00  0.00    +0.000 OA
ATOM      2  C   UNL     1       1.731  10.042  18.359  0.00  0.00    +0.000 C 
ATOM      3  N   UNL     1       0.924  10.615  19.300  0.00  0.00    +0.000 N 
ATOM      4  C   UNL     1       0.542   9.849  20.357  0.00  0.00    +0.000 C 
ATOM      5  N   UNL     1      -0.126  10.206  21.387  0.00  0.00    +0.000 NA
ATOM      6  S   UNL     1       1.133   8.214  20.150  0.00  0.00    +0.000 S 
ATOM      7  C   UNL     1       2.007   8.626  18.718  0.00  0.00    +0.000 C 
ATOM      8  C   UNL     1       2.839   7.861  17.994  0.00  0.00    +0.000 C 
ATOM      9  H   UNL     1       0.662  11.579  19.196  0.00  0.00    +0.000 HD
ENDROOT
BRANCH   8  10
ATOM     10  C   UNL     1       3.171   6.465  18.281  0.00  0.00    +0.000 A 
ATOM     11  C   UNL     1       4.365   6.139  18.936  0.00  0.00    +0.000 A 
ATOM     12  C   UNL     1       4.671   4.805  19.218  0.00  0.00    +0.000 A 
ATOM     13  C   UNL     1       3.786   3.795  18.845  0.00  0.00    +0.000 A 
ATOM     14  C   UNL     1       2.587   4.119  18.201  0.00  0.00    +0.000 A 
ATOM     15  C   UNL     1       2.287   5.447  17.903  0.00  0.00    +0.000 A 
ATOM     16  O   UNL     1       1.658   3.181  17.827  0.00  0.00    +0.000 OA
ATOM     17  C   UNL     1       1.878   1.938  18.502  0.00  0.00    +0.000 C 
ATOM     18  C   UNL     1       3.348   1.553  18.453  0.00  0.00    +0.000 C 
ATOM     19  O   UNL     1       4.151   2.510  19.154  0.00  0.00    +0.000 OA
ENDBRANCH   8  10
BRANCH   5  20
ATOM     20  C   UNL     1      -0.501  11.603  21.576  0.00  0.00    +0.000 C 
ATOM     21  C   UNL     1      -1.656  12.017  20.677  0.00  0.00    +0.000 C 
ATOM     22  C   UNL     1      -2.191  13.272  21.358  0.00  0.00    +0.000 C 
ATOM     23  C   UNL     1      -1.920  13.084  22.851  0.00  0.00    +0.000 C 
ATOM     24  C   UNL     1      -1.080  11.813  22.971  0.00  0.00    +0.000 C 
ENDBRANCH   5  20
TORSDOF 2
ENDMDL
MODEL 8
REMARK VINA RESULT:      -7.0      4.496      6.669
REMARK  Name = 
REMARK  2 active torsions:
REMARK  status: ('A' for Active; 'I' for Inactive)
REMARK    1  A    between atoms: N_5  and  C_6
REMARK    2  A    between atoms: C_13  and  C_14
REMARK                            x       y       z     vdW  Elec       q    Type
REMARK                         _______ _______ _______ _____ _____    ______ ____
ROOT
ATOM      1  O   UNL     1      -0.744  12.522  20.861  0.00  0.00    +0.000 OA
ATOM      2  C   UNL     1      -1.188  11.826  19.962  0.00  0.00    +0.000 C 
ATOM      3  N   UNL     1      -2.423  11.984  19.401  0.00  0.00    +0.000 N 
ATOM      4  C   UNL     1      -2.794  11.106  18.430  0.00  0.00    +0.000 C 
ATOM      5  N   UNL     1      -3.926  11.014  17.843  0.00  0.00    +0.000 NA
ATOM      6  S   UNL     1      -1.466  10.024  18.070  0.00  0.00    +0.000 S 
ATOM      7  C   UNL     1      -0.486  10.677  19.333  0.00  0.00    +0.000 C 
ATOM      8  C   UNL     1       0.717  10.262  19.760  0.00  0.00    +0.000 C 
ATOM      9  H   UNL     1      -3.020  12.719  19.735  0.00  0.00    +0.000 HD
ENDROOT
BRANCH   8  10
ATOM     10  C   UNL     1       1.472   9.139  19.205  0.00  0.00    +0.000 A 
ATOM     11  C   UNL     1       2.039   9.225  17.928  0.00  0.00    +0.000 A 
ATOM     12  C   UNL     1       2.770   8.154  17.408  0.00  0.00    +0.000 A 
ATOM     13  C   UNL     1       2.934   6.994  18.162  0.00  0.00    +0.000 A 
ATOM     14  C   UNL     1       2.378   6.909  19.443  0.00  0.00    +0.000 A 
ATOM     15  C   UNL     1       1.635   7.970  19.957  0.00  0.00    +0.000 A 
ATOM     16  O   UNL     1       2.520   5.809  20.252  0.00  0.00    +0.000 OA
ATOM     17  C   UNL     1       3.586   4.968  19.799  0.00  0.00    +0.000 C 
ATOM     18  C   UNL     1       3.495   4.749  18.297  0.00  0.00    +0.000 C 
ATOM     19  O   UNL     1       3.662   5.983  17.589  0.00  0.00    +0.000 OA
ENDBRANCH   8  10
BRANCH   5  20
ATOM     20  C   UNL     1      -5.041  11.861  18.253  0.00  0.00    +0.000 C 
ATOM     21  C   UNL     1      -5.763  12.480  17.066  0.00  0.00    +0.000 C 
ATOM     22  C   UNL     1      -7.114  12.878  17.651  0.00  0.00    +0.000 C 
ATOM     23  C   UNL     1      -7.403  11.863  18.758  0.00  0.00    +0.000 C 
ATOM     24  C   UNL     1      -6.137  11.019  18.900  0.00  0.00    +0.000 C 
ENDBRANCH   5  20
TORSDOF 2
ENDMDL
MODEL 9
REMARK VINA RESULT:      -6.9      2.972      8.611
REMARK  Name = 
REMARK  2 active torsions:
REMARK  status: ('A' for Active; 'I' for Inactive)
REMARK    1  A    between atoms: N_5  and  C_6
REMARK    2  A    between atoms: C_13  and  C_14
REMARK                            x       y       z     vdW  Elec       q    Type
REMARK                         _______ _______ _______ _____ _____    ______ ____
ROOT
ATOM      1  O   UNL     1       2.195   4.758  21.132  0.00  0.00    +0.000 OA
ATOM      2  C   UNL     1       2.410   5.579  20.255  0.00  0.00    +0.000 C 
ATOM      3  N   UNL     1       3.229   5.367  19.182  0.00  0.00    +0.000 N 
ATOM      4  C   UNL     1       3.399   6.391  18.304  0.00  0.00    +0.000 C 
ATOM      5  N   UNL     1       4.183   6.440  17.295  0.00  0.00    +0.000 NA
ATOM      6  S   UNL     1       2.375   7.737  18.756  0.00  0.00    +0.000 S 
ATOM      7  C   UNL     1       1.847   6.953  20.202  0.00  0.00    +0.000 C 
ATOM      8  C   UNL     1       1.070   7.439  21.183  0.00  0.00    +0.000 C 
ATOM      9  H   UNL     1       3.692   4.480  19.090  0.00  0.00    +0.000 HD
ENDROOT
BRANCH   8  10
ATOM     10  C   UNL     1       0.484   8.778  21.214  0.00  0.00    +0.000 A 
ATOM     11  C   UNL     1       0.132   9.372  22.432  0.00  0.00    +0.000 A 
ATOM     12  C   UNL     1      -0.417  10.657  22.457  0.00  0.00    +0.000 A 
ATOM     13  C   UNL     1      -0.616  11.350  21.265  0.00  0.00    +0.000 A 
ATOM     14  C   UNL     1      -0.255  10.764  20.047  0.00  0.00    +0.000 A 
ATOM     15  C   UNL     1       0.276   9.476  20.019  0.00  0.00    +0.000 A 
ATOM     16  O   UNL     1      -0.400  11.396  18.838  0.00  0.00    +0.000 OA
ATOM     17  C   UNL     1      -0.584  12.806  19.010  0.00  0.00    +0.000 C 
ATOM     18  C   UNL     1      -1.613  13.084  20.094  0.00  0.00    +0.000 C 
ATOM     19  O   UNL     1      -1.158  12.606  21.365  0.00  0.00    +0.000 OA
ENDBRANCH   8  10
BRANCH   5  20
ATOM     20  C   UNL     1       5.101   5.341  17.019  0.00  0.00    +0.000 C 
ATOM     21  C   UNL     1       5.421   5.213  15.537  0.00  0.00    +0.000 C 
ATOM     22  C   UNL     1       6.708   4.397  15.530  0.00  0.00    +0.000 C 
ATOM     23  C   UNL     1       7.436   4.756  16.826  0.00  0.00    +0.000 C 
ATOM     24  C   UNL     1       6.471   5.630  17.625  0.00  0.00    +0.000 C 
ENDBRANCH   5  20
TORSDOF 2
ENDMDL
