MODEL 1
REMARK VINA RESULT:      -7.9      0.000      0.000
REMARK  Name = 
REMARK  5 active torsions:
REMARK  status: ('A' for Active; 'I' for Inactive)
REMARK    1  A    between atoms: C_1  and  S_2
REMARK    2  A    between atoms: S_2  and  N_5
REMARK    3  A    between atoms: N_5  and  C_6
REMARK    4  A    between atoms: C_9  and  N_10
REMARK    5  A    between atoms: C_15  and  C_16
REMARK                            x       y       z     vdW  Elec       q    Type
REMARK                         _______ _______ _______ _____ _____    ______ ____
ROOT
ATOM      1  N   UNL     1       1.388   8.973  21.543  0.00  0.00    +0.000 N 
ATOM      2  C   UNL     1       1.695   8.539  20.254  0.00  0.00    +0.000 A 
ATOM      3  N   UNL     1       1.348   9.279  19.193  0.00  0.00    +0.000 NA
ATOM      4  C   UNL     1       1.645   8.793  17.978  0.00  0.00    +0.000 A 
ATOM      5  C   UNL     1       2.286   7.599  17.782  0.00  0.00    +0.000 A 
ATOM      6  C   UNL     1       2.627   6.912  18.927  0.00  0.00    +0.000 A 
ATOM      7  N   UNL     1       2.325   7.360  20.163  0.00  0.00    +0.000 NA
ATOM      8  H   UNL     1       1.428   8.137  22.117  0.00  0.00    +0.000 HD
ENDROOT
BRANCH   6   9
ATOM      9  C   UNL     1       3.333   5.635  18.855  0.00  0.00    +0.000 A 
ATOM     10  C   UNL     1       4.697   5.380  18.903  0.00  0.00    +0.000 A 
ATOM     11  N   UNL     1       4.980   4.043  18.855  0.00  0.00    +0.000 NA
ATOM     12  C   UNL     1       3.811   3.453  18.777  0.00  0.00    +0.000 A 
ATOM     13  C   UNL     1       3.480   2.068  18.714  0.00  0.00    +0.000 A 
ATOM     14  C   UNL     1       2.191   1.686  18.658  0.00  0.00    +0.000 A 
ATOM     15  C   UNL     1       1.115   2.661  18.664  0.00  0.00    +0.000 A 
ATOM     16  C   UNL     1       1.418   3.970  18.725  0.00  0.00    +0.000 A 
ATOM     17  N   UNL     1       2.758   4.373  18.772  0.00  0.00    +0.000 N 
ENDBRANCH   6   9
BRANCH   1  21
ATOM     18  C   UNL     1      -1.500  12.012  22.678  0.00  0.00    +0.000 C 
ATOM     19  C   UNL     1      -1.630  10.581  23.211  0.00  0.00    +0.000 C 
ATOM     20  C   UNL     1      -0.325   9.790  23.095  0.00  0.00    +0.000 C 
ATOM     21  C   UNL     1       0.160   9.757  21.641  0.00  0.00    +0.000 C 
ATOM     22  C   UNL     1       0.408  11.199  21.180  0.00  0.00    +0.000 C 
ATOM     23  C   UNL     1      -0.873  12.024  21.271  0.00  0.00    +0.000 C 
BRANCH  18  24
ATOM     24  N   UNL     1      -2.813  12.673  22.572  0.00  0.00    +0.000 NA
ATOM     25  H   UNL     1      -3.048  13.141  21.695  0.00  0.00    +0.000 HD
BRANCH  24  27
ATOM     26  C   UNL     1      -4.918  14.292  23.117  0.00  0.00    +0.000 C 
ATOM     27  S   UNL     1      -3.681  13.259  23.872  0.00  0.00    +0.000 S 
ATOM     28  O   UNL     1      -2.817  14.088  24.679  0.00  0.00    +0.000 OA
ATOM     29  O   UNL     1      -4.351  12.104  24.431  0.00  0.00    +0.000 OA
ENDBRANCH  24  27
ENDBRANCH  18  24
ENDBRANCH   1  21
TORSDOF 4
ENDMDL
MODEL 2
REMARK VINA RESULT:      -7.9      3.583      4.276
REMARK  Name = 
REMARK  5 active torsions:
REMARK  status: ('A' for Active; 'I' for Inactive)
REMARK    1  A    between atoms: C_1  and  S_2
REMARK    2  A    between atoms: S_2  and  N_5
REMARK    3  A    between atoms: N_5  and  C_6
REMARK    4  A    between atoms: C_9  and  N_10
REMARK    5  A    between atoms: C_15  and  C_16
REMARK                            x       y       z     vdW  Elec       q    Type
REMARK                         _______ _______ _______ _____ _____    ______ ____
ROOT
ATOM      1  N   UNL     1       1.155  10.575  17.978  0.00  0.00    +0.000 N 
ATOM      2  C   UNL     1       1.417   9.463  18.776  0.00  0.00    +0.000 A 
ATOM      3  N   UNL     1       1.017   9.440  20.054  0.00  0.00    +0.000 NA
ATOM      4  C   UNL     1       1.325   8.353  20.777  0.00  0.00    +0.000 A 
ATOM      5  C   UNL     1       2.012   7.282  20.271  0.00  0.00    +0.000 A 
ATOM      6  C   UNL     1       2.368   7.378  18.943  0.00  0.00    +0.000 A 
ATOM      7  N   UNL     1       2.093   8.464  18.192  0.00  0.00    +0.000 NA
ATOM      8  H   UNL     1       1.820  10.512  17.213  0.00  0.00    +0.000 HD
ENDROOT
BRANCH   6   9
ATOM      9  C   UNL     1       3.085   6.293  18.277  0.00  0.00    +0.000 A 
ATOM     10  C   UNL     1       4.315   6.317  17.633  0.00  0.00    +0.000 A 
ATOM     11  N   UNL     1       4.686   5.085  17.171  0.00  0.00    +0.000 NA
ATOM     12  C   UNL     1       3.704   4.285  17.515  0.00  0.00    +0.000 A 
ATOM     13  C   UNL     1       3.544   2.884  17.314  0.00  0.00    +0.000 A 
ATOM     14  C   UNL     1       2.446   2.259  17.778  0.00  0.00    +0.000 A 
ATOM     15  C   UNL     1       1.412   2.985  18.493  0.00  0.00    +0.000 A 
ATOM     16  C   UNL     1       1.555   4.306  18.689  0.00  0.00    +0.000 A 
ATOM     17  N   UNL     1       2.690   4.964  18.198  0.00  0.00    +0.000 N 
ENDBRANCH   6   9
BRANCH   1  21
ATOM     18  C   UNL     1       0.967  14.821  18.873  0.00  0.00    +0.000 C 
ATOM     19  C   UNL     1       2.292  14.061  18.998  0.00  0.00    +0.000 C 
ATOM     20  C   UNL     1       2.284  12.738  18.229  0.00  0.00    +0.000 C 
ATOM     21  C   UNL     1       1.129  11.845  18.699  0.00  0.00    +0.000 C 
ATOM     22  C   UNL     1      -0.190  12.582  18.438  0.00  0.00    +0.000 C 
ATOM     23  C   UNL     1      -0.230  13.907  19.196  0.00  0.00    +0.000 C 
BRANCH  18  24
ATOM     24  N   UNL     1       0.905  15.960  19.807  0.00  0.00    +0.000 NA
ATOM     25  H   UNL     1       0.542  15.792  20.748  0.00  0.00    +0.000 HD
BRANCH  24  27
ATOM     26  C   UNL     1      -0.510  17.538  18.119  0.00  0.00    +0.000 C 
ATOM     27  S   UNL     1       0.783  17.558  19.340  0.00  0.00    +0.000 S 
ATOM     28  O   UNL     1       2.015  17.956  18.703  0.00  0.00    +0.000 OA
ATOM     29  O   UNL     1       0.280  18.254  20.506  0.00  0.00    +0.000 OA
ENDBRANCH  24  27
ENDBRANCH  18  24
ENDBRANCH   1  21
TORSDOF 4
ENDMDL
MODEL 3
REMARK VINA RESULT:      -7.9      1.155      1.206
REMARK  Name = 
REMARK  5 active torsions:
REMARK  status: ('A' for Active; 'I' for Inactive)
REMARK    1  A    between atoms: C_1  and  S_2
REMARK    2  A    between atoms: S_2  and  N_5
REMARK    3  A    between atoms: N_5  and  C_6
REMARK    4  A    between atoms: C_9  and  N_10
REMARK    5  A    between atoms: C_15  and  C_16
REMARK                            x       y       z     vdW  Elec       q    Type
REMARK                         _______ _______ _______ _____ _____    ______ ____
ROOT
ATOM      1  N   UNL     1       1.576   8.593  21.344  0.00  0.00    +0.000 N 
ATOM      2  C   UNL     1       1.866   8.326  20.008  0.00  0.00    +0.000 A 
ATOM      3  N   UNL     1       1.643   9.256  19.070  0.00  0.00    +0.000 NA
ATOM      4  C   UNL     1       1.916   8.927  17.798  0.00  0.00    +0.000 A 
ATOM      5  C   UNL     1       2.412   7.706  17.426  0.00  0.00    +0.000 A 
ATOM      6  C   UNL     1       2.632   6.816  18.455  0.00  0.00    +0.000 A 
ATOM      7  N   UNL     1       2.349   7.105  19.742  0.00  0.00    +0.000 NA
ATOM      8  H   UNL     1       1.496   7.681  21.783  0.00  0.00    +0.000 HD
ENDROOT
BRANCH   6   9
ATOM      9  C   UNL     1       3.179   5.487  18.194  0.00  0.00    +0.000 A 
ATOM     10  C   UNL     1       4.424   5.130  17.692  0.00  0.00    +0.000 A 
ATOM     11  N   UNL     1       4.595   3.776  17.633  0.00  0.00    +0.000 NA
ATOM     12  C   UNL     1       3.472   3.273  18.091  0.00  0.00    +0.000 A 
ATOM     13  C   UNL     1       3.077   1.916  18.276  0.00  0.00    +0.000 A 
ATOM     14  C   UNL     1       1.866   1.632  18.788  0.00  0.00    +0.000 A 
ATOM     15  C   UNL     1       0.941   2.686  19.165  0.00  0.00    +0.000 A 
ATOM     16  C   UNL     1       1.305   3.968  18.996  0.00  0.00    +0.000 A 
ATOM     17  N   UNL     1       2.561   4.269  18.453  0.00  0.00    +0.000 N 
ENDBRANCH   6   9
BRANCH   1  21
ATOM     18  C   UNL     1      -0.908  11.838  22.819  0.00  0.00    +0.000 C 
ATOM     19  C   UNL     1      -1.187  10.392  23.245  0.00  0.00    +0.000 C 
ATOM     20  C   UNL     1       0.013   9.471  23.019  0.00  0.00    +0.000 C 
ATOM     21  C   UNL     1       0.450   9.501  21.549  0.00  0.00    +0.000 C 
ATOM     22  C   UNL     1       0.849  10.938  21.192  0.00  0.00    +0.000 C 
ATOM     23  C   UNL     1      -0.325  11.893  21.394  0.00  0.00    +0.000 C 
BRANCH  18  24
ATOM     24  N   UNL     1      -2.138  12.649  22.815  0.00  0.00    +0.000 NA
ATOM     25  H   UNL     1      -2.854  12.436  22.117  0.00  0.00    +0.000 HD
BRANCH  24  27
ATOM     26  C   UNL     1      -3.571  14.143  24.564  0.00  0.00    +0.000 C 
ATOM     27  S   UNL     1      -2.238  14.214  23.388  0.00  0.00    +0.000 S 
ATOM     28  O   UNL     1      -2.624  15.087  22.305  0.00  0.00    +0.000 OA
ATOM     29  O   UNL     1      -1.010  14.425  24.124  0.00  0.00    +0.000 OA
ENDBRANCH  24  27
ENDBRANCH  18  24
ENDBRANCH   1  21
TORSDOF 4
ENDMDL
MODEL 4
REMARK VINA RESULT:      -7.8      5.807      9.996
REMARK  Name = 
REMARK  5 active torsions:
REMARK  status: ('A' for Active; 'I' for Inactive)
REMARK    1  A    between atoms: C_1  and  S_2
REMARK    2  A    between atoms: S_2  and  N_5
REMARK    3  A    between atoms: N_5  and  C_6
REMARK    4  A    between atoms: C_9  and  N_10
REMARK    5  A    between atoms: C_15  and  C_16
REMARK                            x       y       z     vdW  Elec       q    Type
REMARK                         _______ _______ _______ _____ _____    ______ ____
ROOT
ATOM      1  N   UNL     1       2.309   6.135  18.726  0.00  0.00    +0.000 N 
ATOM      2  C   UNL     1       1.928   7.475  18.768  0.00  0.00    +0.000 A 
ATOM      3  N   UNL     1       2.076   8.253  17.688  0.00  0.00    +0.000 NA
ATOM      4  C   UNL     1       1.718   9.541  17.802  0.00  0.00    +0.000 A 
ATOM      5  C   UNL     1       1.210  10.082  18.953  0.00  0.00    +0.000 A 
ATOM      6  C   UNL     1       1.072   9.207  20.009  0.00  0.00    +0.000 A 
ATOM      7  N   UNL     1       1.440   7.912  19.937  0.00  0.00    +0.000 NA
ATOM      8  H   UNL     1       2.429   5.864  19.697  0.00  0.00    +0.000 HD
ENDROOT
BRANCH   6   9
ATOM      9  C   UNL     1       0.521   9.654  21.287  0.00  0.00    +0.000 A 
ATOM     10  C   UNL     1       0.863   9.267  22.576  0.00  0.00    +0.000 A 
ATOM     11  N   UNL     1       0.157   9.946  23.529  0.00  0.00    +0.000 NA
ATOM     12  C   UNL     1      -0.627  10.757  22.857  0.00  0.00    +0.000 A 
ATOM     13  C   UNL     1      -1.574  11.716  23.318  0.00  0.00    +0.000 A 
ATOM     14  C   UNL     1      -2.261  12.462  22.433  0.00  0.00    +0.000 A 
ATOM     15  C   UNL     1      -2.055  12.315  21.004  0.00  0.00    +0.000 A 
ATOM     16  C   UNL     1      -1.161  11.415  20.560  0.00  0.00    +0.000 A 
ATOM     17  N   UNL     1      -0.452  10.627  21.476  0.00  0.00    +0.000 N 
ENDBRANCH   6   9
BRANCH   1  21
ATOM     18  C   UNL     1       5.962   4.450  17.087  0.00  0.00    +0.000 C 
ATOM     19  C   UNL     1       5.949   5.877  17.647  0.00  0.00    +0.000 C 
ATOM     20  C   UNL     1       4.756   6.135  18.570  0.00  0.00    +0.000 C 
ATOM     21  C   UNL     1       3.437   5.854  17.841  0.00  0.00    +0.000 C 
ATOM     22  C   UNL     1       3.425   4.382  17.410  0.00  0.00    +0.000 C 
ATOM     23  C   UNL     1       4.597   4.081  16.477  0.00  0.00    +0.000 C 
BRANCH  18  24
ATOM     24  N   UNL     1       6.968   4.295  16.021  0.00  0.00    +0.000 NA
ATOM     25  H   UNL     1       7.924   4.055  16.291  0.00  0.00    +0.000 HD
BRANCH  24  27
ATOM     26  C   UNL     1       6.310   3.751  13.449  0.00  0.00    +0.000 C 
ATOM     27  S   UNL     1       6.885   5.041  14.529  0.00  0.00    +0.000 S 
ATOM     28  O   UNL     1       8.215   5.427  14.122  0.00  0.00    +0.000 OA
ATOM     29  O   UNL     1       5.824   6.018  14.655  0.00  0.00    +0.000 OA
ENDBRANCH  24  27
ENDBRANCH  18  24
ENDBRANCH   1  21
TORSDOF 4
ENDMDL
MODEL 5
REMARK VINA RESULT:      -7.8      3.814      4.575
REMARK  Name = 
REMARK  5 active torsions:
REMARK  status: ('A' for Active; 'I' for Inactive)
REMARK    1  A    between atoms: C_1  and  S_2
REMARK    2  A    between atoms: S_2  and  N_5
REMARK    3  A    between atoms: N_5  and  C_6
REMARK    4  A    between atoms: C_9  and  N_10
REMARK    5  A    between atoms: C_15  and  C_16
REMARK                            x       y       z     vdW  Elec       q    Type
REMARK                         _______ _______ _______ _____ _____    ______ ____
ROOT
ATOM      1  N   UNL     1       1.255  10.693  17.941  0.00  0.00    +0.000 N 
ATOM      2  C   UNL     1       1.474   9.563  18.727  0.00  0.00    +0.000 A 
ATOM      3  N   UNL     1       1.063   9.537  20.002  0.00  0.00    +0.000 NA
ATOM      4  C   UNL     1       1.331   8.433  20.714  0.00  0.00    +0.000 A 
ATOM      5  C   UNL     1       1.987   7.346  20.200  0.00  0.00    +0.000 A 
ATOM      6  C   UNL     1       2.356   7.447  18.876  0.00  0.00    +0.000 A 
ATOM      7  N   UNL     1       2.123   8.550  18.136  0.00  0.00    +0.000 NA
ATOM      8  H   UNL     1       1.924  10.618  17.181  0.00  0.00    +0.000 HD
ENDROOT
BRANCH   6   9
ATOM      9  C   UNL     1       3.044   6.348  18.203  0.00  0.00    +0.000 A 
ATOM     10  C   UNL     1       4.248   6.355  17.512  0.00  0.00    +0.000 A 
ATOM     11  N   UNL     1       4.597   5.114  17.057  0.00  0.00    +0.000 NA
ATOM     12  C   UNL     1       3.626   4.324  17.453  0.00  0.00    +0.000 A 
ATOM     13  C   UNL     1       3.453   2.920  17.281  0.00  0.00    +0.000 A 
ATOM     14  C   UNL     1       2.371   2.308  17.798  0.00  0.00    +0.000 A 
ATOM     15  C   UNL     1       1.367   3.050  18.538  0.00  0.00    +0.000 A 
ATOM     16  C   UNL     1       1.523   4.375  18.707  0.00  0.00    +0.000 A 
ATOM     17  N   UNL     1       2.641   5.019  18.161  0.00  0.00    +0.000 N 
ENDBRANCH   6   9
BRANCH   1  21
ATOM     18  C   UNL     1       1.226  14.932  18.887  0.00  0.00    +0.000 C 
ATOM     19  C   UNL     1       2.513  14.113  19.038  0.00  0.00    +0.000 C 
ATOM     20  C   UNL     1       2.469  12.800  18.251  0.00  0.00    +0.000 C 
ATOM     21  C   UNL     1       1.264  11.954  18.678  0.00  0.00    +0.000 C 
ATOM     22  C   UNL     1      -0.015  12.751  18.390  0.00  0.00    +0.000 C 
ATOM     23  C   UNL     1      -0.018  14.067  19.164  0.00  0.00    +0.000 C 
BRANCH  18  24
ATOM     24  N   UNL     1       1.188  16.061  19.833  0.00  0.00    +0.000 NA
ATOM     25  H   UNL     1       0.429  16.092  20.516  0.00  0.00    +0.000 HD
BRANCH  24  27
ATOM     26  C   UNL     1       3.291  17.595  20.589  0.00  0.00    +0.000 C 
ATOM     27  S   UNL     1       1.856  17.563  19.538  0.00  0.00    +0.000 S 
ATOM     28  O   UNL     1       0.934  18.581  19.983  0.00  0.00    +0.000 OA
ATOM     29  O   UNL     1       2.313  17.509  18.167  0.00  0.00    +0.000 OA
ENDBRANCH  24  27
ENDBRANCH  18  24
ENDBRANCH   1  21
TORSDOF 4
ENDMDL
MODEL 6
REMARK VINA RESULT:      -7.8      3.775      4.848
REMARK  Name = 
REMARK  5 active torsions:
REMARK  status: ('A' for Active; 'I' for Inactive)
REMARK    1  A    between atoms: C_1  and  S_2
REMARK    2  A    between atoms: S_2  and  N_5
REMARK    3  A    between atoms: N_5  and  C_6
REMARK    4  A    between atoms: C_9  and  N_10
REMARK    5  A    between atoms: C_15  and  C_16
REMARK                            x       y       z     vdW  Elec       q    Type
REMARK                         _______ _______ _______ _____ _____    ______ ____
ROOT
ATOM      1  N   UNL     1       1.442  10.130  17.876  0.00  0.00    +0.000 N 
ATOM      2  C   UNL     1       1.666   8.993  18.651  0.00  0.00    +0.000 A 
ATOM      3  N   UNL     1       1.328   8.983  19.948  0.00  0.00    +0.000 NA
ATOM      4  C   UNL     1       1.596   7.870  20.647  0.00  0.00    +0.000 A 
ATOM      5  C   UNL     1       2.182   6.760  20.098  0.00  0.00    +0.000 A 
ATOM      6  C   UNL     1       2.477   6.847  18.755  0.00  0.00    +0.000 A 
ATOM      7  N   UNL     1       2.241   7.957  18.027  0.00  0.00    +0.000 NA
ATOM      8  H   UNL     1       2.062  10.031  17.079  0.00  0.00    +0.000 HD
ENDROOT
BRANCH   6   9
ATOM      9  C   UNL     1       3.084   5.723  18.045  0.00  0.00    +0.000 A 
ATOM     10  C   UNL     1       2.538   4.488  17.722  0.00  0.00    +0.000 A 
ATOM     11  N   UNL     1       3.401   3.707  17.005  0.00  0.00    +0.000 NA
ATOM     12  C   UNL     1       4.485   4.435  16.872  0.00  0.00    +0.000 A 
ATOM     13  C   UNL     1       5.712   4.149  16.206  0.00  0.00    +0.000 A 
ATOM     14  C   UNL     1       6.694   5.068  16.181  0.00  0.00    +0.000 A 
ATOM     15  C   UNL     1       6.532   6.362  16.820  0.00  0.00    +0.000 A 
ATOM     16  C   UNL     1       5.378   6.641  17.449  0.00  0.00    +0.000 A 
ATOM     17  N   UNL     1       4.356   5.683  17.488  0.00  0.00    +0.000 N 
ENDBRANCH   6   9
BRANCH   1  21
ATOM     18  C   UNL     1       1.417  14.364  18.845  0.00  0.00    +0.000 C 
ATOM     19  C   UNL     1       2.742  13.601  18.739  0.00  0.00    +0.000 C 
ATOM     20  C   UNL     1       2.603  12.288  17.965  0.00  0.00    +0.000 C 
ATOM     21  C   UNL     1       1.539  11.390  18.608  0.00  0.00    +0.000 C 
ATOM     22  C   UNL     1       0.197  12.132  18.579  0.00  0.00    +0.000 C 
ATOM     23  C   UNL     1       0.287  13.447  19.349  0.00  0.00    +0.000 C 
BRANCH  18  24
ATOM     24  N   UNL     1       1.514  15.490  19.791  0.00  0.00    +0.000 NA
ATOM     25  H   UNL     1       1.290  15.316  20.772  0.00  0.00    +0.000 HD
BRANCH  24  27
ATOM     26  C   UNL     1      -0.087  17.111  18.323  0.00  0.00    +0.000 C 
ATOM     27  S   UNL     1       1.354  17.097  19.365  0.00  0.00    +0.000 S 
ATOM     28  O   UNL     1       2.498  17.490  18.577  0.00  0.00    +0.000 OA
ATOM     29  O   UNL     1       1.018  17.781  20.595  0.00  0.00    +0.000 OA
ENDBRANCH  24  27
ENDBRANCH  18  24
ENDBRANCH   1  21
TORSDOF 4
ENDMDL
MODEL 7
REMARK VINA RESULT:      -7.7      4.101      5.228
REMARK  Name = 
REMARK  5 active torsions:
REMARK  status: ('A' for Active; 'I' for Inactive)
REMARK    1  A    between atoms: C_1  and  S_2
REMARK    2  A    between atoms: S_2  and  N_5
REMARK    3  A    between atoms: N_5  and  C_6
REMARK    4  A    between atoms: C_9  and  N_10
REMARK    5  A    between atoms: C_15  and  C_16
REMARK                            x       y       z     vdW  Elec       q    Type
REMARK                         _______ _______ _______ _____ _____    ______ ____
ROOT
ATOM      1  N   UNL     1       1.303  10.347  17.953  0.00  0.00    +0.000 N 
ATOM      2  C   UNL     1       1.505   9.231  18.763  0.00  0.00    +0.000 A 
ATOM      3  N   UNL     1       1.238   9.291  20.074  0.00  0.00    +0.000 NA
ATOM      4  C   UNL     1       1.481   8.193  20.805  0.00  0.00    +0.000 A 
ATOM      5  C   UNL     1       1.974   7.030  20.274  0.00  0.00    +0.000 A 
ATOM      6  C   UNL     1       2.201   7.047  18.915  0.00  0.00    +0.000 A 
ATOM      7  N   UNL     1       1.988   8.139  18.154  0.00  0.00    +0.000 NA
ATOM      8  H   UNL     1       1.873  10.181  17.130  0.00  0.00    +0.000 HD
ENDROOT
BRANCH   6   9
ATOM      9  C   UNL     1       2.705   5.863  18.223  0.00  0.00    +0.000 A 
ATOM     10  C   UNL     1       2.095   4.630  18.029  0.00  0.00    +0.000 A 
ATOM     11  N   UNL     1       2.864   3.780  17.284  0.00  0.00    +0.000 NA
ATOM     12  C   UNL     1       3.951   4.460  17.008  0.00  0.00    +0.000 A 
ATOM     13  C   UNL     1       5.101   4.093  16.250  0.00  0.00    +0.000 A 
ATOM     14  C   UNL     1       6.103   4.974  16.078  0.00  0.00    +0.000 A 
ATOM     15  C   UNL     1       6.039   6.308  16.648  0.00  0.00    +0.000 A 
ATOM     16  C   UNL     1       4.958   6.664  17.363  0.00  0.00    +0.000 A 
ATOM     17  N   UNL     1       3.917   5.746  17.554  0.00  0.00    +0.000 N 
ENDBRANCH   6   9
BRANCH   1  21
ATOM     18  C   UNL     1       1.680  14.608  18.713  0.00  0.00    +0.000 C 
ATOM     19  C   UNL     1       2.924  13.713  18.680  0.00  0.00    +0.000 C 
ATOM     20  C   UNL     1       2.671  12.382  17.967  0.00  0.00    +0.000 C 
ATOM     21  C   UNL     1       1.510  11.627  18.625  0.00  0.00    +0.000 C 
ATOM     22  C   UNL     1       0.249  12.495  18.524  0.00  0.00    +0.000 C 
ATOM     23  C   UNL     1       0.453  13.832  19.231  0.00  0.00    +0.000 C 
BRANCH  18  24
ATOM     24  N   UNL     1       1.868  15.765  19.605  0.00  0.00    +0.000 NA
ATOM     25  H   UNL     1       1.153  15.952  20.311  0.00  0.00    +0.000 HD
BRANCH  24  27
ATOM     26  C   UNL     1       4.345  16.805  19.964  0.00  0.00    +0.000 C 
ATOM     27  S   UNL     1       2.763  17.120  19.216  0.00  0.00    +0.000 S 
ATOM     28  O   UNL     1       2.172  18.272  19.854  0.00  0.00    +0.000 OA
ATOM     29  O   UNL     1       2.933  17.061  17.780  0.00  0.00    +0.000 OA
ENDBRANCH  24  27
ENDBRANCH  18  24
ENDBRANCH   1  21
TORSDOF 4
ENDMDL
MODEL 8
REMARK VINA RESULT:      -7.7      1.042      1.052
REMARK  Name = 
REMARK  5 active torsions:
REMARK  status: ('A' for Active; 'I' for Inactive)
REMARK    1  A    between atoms: C_1  and  S_2
REMARK    2  A    between atoms: S_2  and  N_5
REMARK    3  A    between atoms: N_5  and  C_6
REMARK    4  A    between atoms: C_9  and  N_10
REMARK    5  A    between atoms: C_15  and  C_16
REMARK                            x       y       z     vdW  Elec       q    Type
REMARK                         _______ _______ _______ _____ _____    ______ ____
ROOT
ATOM      1  N   UNL     1       1.102   9.619  21.575  0.00  0.00    +0.000 N 
ATOM      2  C   UNL     1       1.421   9.143  20.305  0.00  0.00    +0.000 A 
ATOM      3  N   UNL     1       1.139   9.876  19.219  0.00  0.00    +0.000 NA
ATOM      4  C   UNL     1       1.444   9.350  18.023  0.00  0.00    +0.000 A 
ATOM      5  C   UNL     1       2.029   8.122  17.869  0.00  0.00    +0.000 A 
ATOM      6  C   UNL     1       2.304   7.444  19.037  0.00  0.00    +0.000 A 
ATOM      7  N   UNL     1       1.992   7.932  20.254  0.00  0.00    +0.000 NA
ATOM      8  H   UNL     1       1.084   8.795  22.167  0.00  0.00    +0.000 HD
ENDROOT
BRANCH   6   9
ATOM      9  C   UNL     1       2.947   6.132  19.010  0.00  0.00    +0.000 A 
ATOM     10  C   UNL     1       4.169   5.761  18.464  0.00  0.00    +0.000 A 
ATOM     11  N   UNL     1       4.458   4.443  18.680  0.00  0.00    +0.000 NA
ATOM     12  C   UNL     1       3.433   3.977  19.354  0.00  0.00    +0.000 A 
ATOM     13  C   UNL     1       3.184   2.671  19.868  0.00  0.00    +0.000 A 
ATOM     14  C   UNL     1       2.056   2.424  20.557  0.00  0.00    +0.000 A 
ATOM     15  C   UNL     1       1.075   3.467  20.797  0.00  0.00    +0.000 A 
ATOM     16  C   UNL     1       1.302   4.702  20.317  0.00  0.00    +0.000 A 
ATOM     17  N   UNL     1       2.470   4.962  19.589  0.00  0.00    +0.000 N 
ENDBRANCH   6   9
BRANCH   1  21
ATOM     18  C   UNL     1      -1.712  12.742  22.671  0.00  0.00    +0.000 C 
ATOM     19  C   UNL     1      -1.964  11.289  23.091  0.00  0.00    +0.000 C 
ATOM     20  C   UNL     1      -0.697  10.433  23.030  0.00  0.00    +0.000 C 
ATOM     21  C   UNL     1      -0.087  10.466  21.624  0.00  0.00    +0.000 C 
ATOM     22  C   UNL     1       0.275  11.918  21.286  0.00  0.00    +0.000 C 
ATOM     23  C   UNL     1      -0.964  12.809  21.326  0.00  0.00    +0.000 C 
BRANCH  18  24
ATOM     24  N   UNL     1      -2.974  13.483  22.501  0.00  0.00    +0.000 NA
ATOM     25  H   UNL     1      -2.954  14.352  21.963  0.00  0.00    +0.000 HD
BRANCH  24  27
ATOM     26  C   UNL     1      -5.075  14.974  23.344  0.00  0.00    +0.000 C 
ATOM     27  S   UNL     1      -4.264  13.406  23.559  0.00  0.00    +0.000 S 
ATOM     28  O   UNL     1      -3.759  13.327  24.909  0.00  0.00    +0.000 OA
ATOM     29  O   UNL     1      -5.132  12.382  23.019  0.00  0.00    +0.000 OA
ENDBRANCH  24  27
ENDBRANCH  18  24
ENDBRANCH   1  21
TORSDOF 4
ENDMDL
MODEL 9
REMARK VINA RESULT:      -7.5      5.720      9.618
REMARK  Name = 
REMARK  5 active torsions:
REMARK  status: ('A' for Active; 'I' for Inactive)
REMARK    1  A    between atoms: C_1  and  S_2
REMARK    2  A    between atoms: S_2  and  N_5
REMARK    3  A    between atoms: N_5  and  C_6
REMARK    4  A    between atoms: C_9  and  N_10
REMARK    5  A    between atoms: C_15  and  C_16
REMARK                            x       y       z     vdW  Elec       q    Type
REMARK                         _______ _______ _______ _____ _____    ______ ____
ROOT
ATOM      1  N   UNL     1       1.968   8.576  17.501  0.00  0.00    +0.000 N 
ATOM      2  C   UNL     1       0.974   9.220  18.235  0.00  0.00    +0.000 A 
ATOM      3  N   UNL     1       1.105   9.375  19.559  0.00  0.00    +0.000 NA
ATOM      4  C   UNL     1       0.100   9.978  20.212  0.00  0.00    +0.000 A 
ATOM      5  C   UNL     1      -1.030  10.441  19.592  0.00  0.00    +0.000 A 
ATOM      6  C   UNL     1      -1.075  10.260  18.227  0.00  0.00    +0.000 A 
ATOM      7  N   UNL     1      -0.093   9.640  17.541  0.00  0.00    +0.000 NA
ATOM      8  H   UNL     1       1.512   8.282  16.643  0.00  0.00    +0.000 HD
ENDROOT
BRANCH   6   9
ATOM      9  C   UNL     1      -2.216  10.729  17.444  0.00  0.00    +0.000 A 
ATOM     10  C   UNL     1      -2.470  10.587  16.086  0.00  0.00    +0.000 A 
ATOM     11  N   UNL     1      -3.675  11.118  15.723  0.00  0.00    +0.000 NA
ATOM     12  C   UNL     1      -4.184  11.595  16.835  0.00  0.00    +0.000 A 
ATOM     13  C   UNL     1      -5.428  12.250  17.073  0.00  0.00    +0.000 A 
ATOM     14  C   UNL     1      -5.754  12.641  18.318  0.00  0.00    +0.000 A 
ATOM     15  C   UNL     1      -4.863  12.405  19.440  0.00  0.00    +0.000 A 
ATOM     16  C   UNL     1      -3.689  11.787  19.225  0.00  0.00    +0.000 A 
ATOM     17  N   UNL     1      -3.339  11.389  17.928  0.00  0.00    +0.000 N 
ENDBRANCH   6   9
BRANCH   1  21
ATOM     18  C   UNL     1       3.815   4.790  18.564  0.00  0.00    +0.000 C 
ATOM     19  C   UNL     1       2.495   5.219  19.215  0.00  0.00    +0.000 C 
ATOM     20  C   UNL     1       1.775   6.310  18.420  0.00  0.00    +0.000 C 
ATOM     21  C   UNL     1       2.681   7.533  18.235  0.00  0.00    +0.000 C 
ATOM     22  C   UNL     1       3.933   7.096  17.463  0.00  0.00    +0.000 C 
ATOM     23  C   UNL     1       4.689   6.012  18.227  0.00  0.00    +0.000 C 
BRANCH  18  24
ATOM     24  N   UNL     1       4.605   3.926  19.458  0.00  0.00    +0.000 NA
ATOM     25  H   UNL     1       5.614   4.079  19.509  0.00  0.00    +0.000 HD
BRANCH  24  27
ATOM     26  C   UNL     1       2.851   2.654  21.087  0.00  0.00    +0.000 C 
ATOM     27  S   UNL     1       4.160   2.382  19.914  0.00  0.00    +0.000 S 
ATOM     28  O   UNL     1       5.269   1.756  20.596  0.00  0.00    +0.000 OA
ATOM     29  O   UNL     1       3.577   1.792  18.729  0.00  0.00    +0.000 OA
ENDBRANCH  24  27
ENDBRANCH  18  24
ENDBRANCH   1  21
TORSDOF 4
ENDMDL
