MODEL 1
REMARK VINA RESULT:      -6.8      0.000      0.000
REMARK  Name = 
REMARK  7 active torsions:
REMARK  status: ('A' for Active; 'I' for Inactive)
REMARK    1  A    between atoms: C_1  and  O_2
REMARK    2  A    between atoms: O_2  and  C_3
REMARK    3  A    between atoms: C_3  and  C_4
REMARK    4  A    between atoms: C_4  and  C_5
REMARK    5  A    between atoms: C_4  and  C_6
REMARK    6  A    between atoms: C_4  and  N_8
REMARK    7  A    between atoms: C_9  and  C_11
REMARK                            x       y       z     vdW  Elec       q    Type
REMARK                         _______ _______ _______ _____ _____    ______ ____
ROOT
ATOM      1  N   UNL     1       5.160   5.337  18.292  0.00  0.00    +0.000 N 
ATOM      2  C   UNL     1       4.793   4.236  19.030  0.00  0.00    +0.000 C 
ATOM      3  O   UNL     1       5.598   3.387  19.399  0.00  0.00    +0.000 OA
ATOM      4  H   UNL     1       4.457   6.017  18.024  0.00  0.00    +0.000 HD
ENDROOT
BRANCH   2   5
ATOM      5  C   UNL     1       3.357   4.055  19.377  0.00  0.00    +0.000 A 
ATOM      6  C   UNL     1       2.835   4.974  20.312  0.00  0.00    +0.000 A 
ATOM      7  C   UNL     1       1.487   4.950  20.676  0.00  0.00    +0.000 A 
ATOM      8  C   UNL     1       0.641   4.008  20.101  0.00  0.00    +0.000 A 
ATOM      9  C   UNL     1       1.154   3.097  19.180  0.00  0.00    +0.000 A 
ATOM     10  F   UNL     1       0.304   2.207  18.639  0.00  0.00    +0.000 F 
ATOM     11  C   UNL     1       2.502   3.104  18.808  0.00  0.00    +0.000 A 
ATOM     12 CL   UNL     1       3.008   1.946  17.626  0.00  0.00    +0.000 Cl
ENDBRANCH   2   5
BRANCH   1  13
ATOM     13  C   UNL     1       6.565   5.655  17.957  0.00  0.00    +0.000 C 
ATOM     14  C   UNL     1       7.112   4.672  16.902  0.00  0.00    +0.000 C 
BRANCH  13  15
ATOM     15  C   UNL     1       7.422   5.574  19.209  0.00  0.00    +0.000 C 
ATOM     16  N   UNL     1       8.133   5.508  20.249  0.00  0.00    +0.000 NA
ENDBRANCH  13  15
BRANCH  13  17
ATOM     17  C   UNL     1       6.664   7.098  17.399  0.00  0.00    +0.000 C 
BRANCH  17  19
ATOM     18  C   UNL     1       7.972   9.031  17.817  0.00  0.00    +0.000 C 
ATOM     19  O   UNL     1       7.981   7.621  17.629  0.00  0.00    +0.000 OA
ENDBRANCH  17  19
ENDBRANCH  13  17
ENDBRANCH   1  13
TORSDOF 5
ENDMDL
MODEL 2
REMARK VINA RESULT:      -6.8      1.193      1.307
REMARK  Name = 
REMARK  7 active torsions:
REMARK  status: ('A' for Active; 'I' for Inactive)
REMARK    1  A    between atoms: C_1  and  O_2
REMARK    2  A    between atoms: O_2  and  C_3
REMARK    3  A    between atoms: C_3  and  C_4
REMARK    4  A    between atoms: C_4  and  C_5
REMARK    5  A    between atoms: C_4  and  C_6
REMARK    6  A    between atoms: C_4  and  N_8
REMARK    7  A    between atoms: C_9  and  C_11
REMARK                            x       y       z     vdW  Elec       q    Type
REMARK                         _______ _______ _______ _____ _____    ______ ____
ROOT
ATOM      1  N   UNL     1       4.802   5.167  17.374  0.00  0.00    +0.000 N 
ATOM      2  C   UNL     1       4.771   4.798  18.699  0.00  0.00    +0.000 C 
ATOM      3  O   UNL     1       5.764   4.823  19.419  0.00  0.00    +0.000 OA
ATOM      4  H   UNL     1       3.950   5.141  16.827  0.00  0.00    +0.000 HD
ENDROOT
BRANCH   2   5
ATOM      5  C   UNL     1       3.484   4.326  19.278  0.00  0.00    +0.000 A 
ATOM      6  C   UNL     1       2.814   5.249  20.110  0.00  0.00    +0.000 A 
ATOM      7  C   UNL     1       1.568   4.952  20.666  0.00  0.00    +0.000 A 
ATOM      8  C   UNL     1       0.972   3.727  20.390  0.00  0.00    +0.000 A 
ATOM      9  C   UNL     1       1.631   2.812  19.571  0.00  0.00    +0.000 A 
ATOM     10  F   UNL     1       1.020   1.642  19.320  0.00  0.00    +0.000 F 
ATOM     11  C   UNL     1       2.881   3.091  19.010  0.00  0.00    +0.000 A 
ATOM     12 CL   UNL     1       3.579   1.888  17.981  0.00  0.00    +0.000 Cl
ENDBRANCH   2   5
BRANCH   1  13
ATOM     13  C   UNL     1       6.007   5.721  16.717  0.00  0.00    +0.000 C 
ATOM     14  C   UNL     1       5.825   5.764  15.187  0.00  0.00    +0.000 C 
BRANCH  13  15
ATOM     15  C   UNL     1       7.215   4.863  17.055  0.00  0.00    +0.000 C 
ATOM     16  N   UNL     1       8.218   4.151  17.336  0.00  0.00    +0.000 NA
ENDBRANCH  13  15
BRANCH  13  17
ATOM     17  C   UNL     1       6.279   7.158  17.233  0.00  0.00    +0.000 C 
BRANCH  17  19
ATOM     18  C   UNL     1       8.147   8.483  17.844  0.00  0.00    +0.000 C 
ATOM     19  O   UNL     1       7.623   7.546  16.912  0.00  0.00    +0.000 OA
ENDBRANCH  17  19
ENDBRANCH  13  17
ENDBRANCH   1  13
TORSDOF 5
ENDMDL
MODEL 3
REMARK VINA RESULT:      -6.7      1.793      2.190
REMARK  Name = 
REMARK  7 active torsions:
REMARK  status: ('A' for Active; 'I' for Inactive)
REMARK    1  A    between atoms: C_1  and  O_2
REMARK    2  A    between atoms: O_2  and  C_3
REMARK    3  A    between atoms: C_3  and  C_4
REMARK    4  A    between atoms: C_4  and  C_5
REMARK    5  A    between atoms: C_4  and  C_6
REMARK    6  A    between atoms: C_4  and  N_8
REMARK    7  A    between atoms: C_9  and  C_11
REMARK                            x       y       z     vdW  Elec       q    Type
REMARK                         _______ _______ _______ _____ _____    ______ ____
ROOT
ATOM      1  N   UNL     1       5.028   4.674  17.071  0.00  0.00    +0.000 N 
ATOM      2  C   UNL     1       4.767   4.411  18.396  0.00  0.00    +0.000 C 
ATOM      3  O   UNL     1       5.589   4.606  19.286  0.00  0.00    +0.000 OA
ATOM      4  H   UNL     1       4.309   4.508  16.377  0.00  0.00    +0.000 HD
ENDROOT
BRANCH   2   5
ATOM      5  C   UNL     1       3.441   3.845  18.763  0.00  0.00    +0.000 A 
ATOM      6  C   UNL     1       3.241   2.490  18.424  0.00  0.00    +0.000 A 
ATOM      7  C   UNL     1       2.063   1.822  18.767  0.00  0.00    +0.000 A 
ATOM      8  C   UNL     1       1.071   2.504  19.463  0.00  0.00    +0.000 A 
ATOM      9  C   UNL     1       1.263   3.843  19.797  0.00  0.00    +0.000 A 
ATOM     10  F   UNL     1       0.285   4.467  20.477  0.00  0.00    +0.000 F 
ATOM     11  C   UNL     1       2.434   4.527  19.457  0.00  0.00    +0.000 A 
ATOM     12 CL   UNL     1       2.568   6.177  19.961  0.00  0.00    +0.000 Cl
ENDBRANCH   2   5
BRANCH   1  13
ATOM     13  C   UNL     1       6.281   5.306  16.604  0.00  0.00    +0.000 C 
ATOM     14  C   UNL     1       6.434   5.159  15.077  0.00  0.00    +0.000 C 
BRANCH  13  15
ATOM     15  C   UNL     1       7.471   4.656  17.292  0.00  0.00    +0.000 C 
ATOM     16  N   UNL     1       8.458   4.117  17.863  0.00  0.00    +0.000 NA
ENDBRANCH  13  15
BRANCH  13  17
ATOM     17  C   UNL     1       6.282   6.814  16.967  0.00  0.00    +0.000 C 
BRANCH  17  19
ATOM     18  C   UNL     1       7.892   8.363  17.760  0.00  0.00    +0.000 C 
ATOM     19  O   UNL     1       7.601   7.356  16.799  0.00  0.00    +0.000 OA
ENDBRANCH  17  19
ENDBRANCH  13  17
ENDBRANCH   1  13
TORSDOF 5
ENDMDL
MODEL 4
REMARK VINA RESULT:      -6.7      1.549      2.286
REMARK  Name = 
REMARK  7 active torsions:
REMARK  status: ('A' for Active; 'I' for Inactive)
REMARK    1  A    between atoms: C_1  and  O_2
REMARK    2  A    between atoms: O_2  and  C_3
REMARK    3  A    between atoms: C_3  and  C_4
REMARK    4  A    between atoms: C_4  and  C_5
REMARK    5  A    between atoms: C_4  and  C_6
REMARK    6  A    between atoms: C_4  and  N_8
REMARK    7  A    between atoms: C_9  and  C_11
REMARK                            x       y       z     vdW  Elec       q    Type
REMARK                         _______ _______ _______ _____ _____    ______ ____
ROOT
ATOM      1  N   UNL     1       5.694   5.189  18.891  0.00  0.00    +0.000 N 
ATOM      2  C   UNL     1       4.503   5.194  18.203  0.00  0.00    +0.000 C 
ATOM      3  O   UNL     1       4.414   5.551  17.033  0.00  0.00    +0.000 OA
ATOM      4  H   UNL     1       5.714   4.872  19.853  0.00  0.00    +0.000 HD
ENDROOT
BRANCH   2   5
ATOM      5  C   UNL     1       3.266   4.769  18.914  0.00  0.00    +0.000 A 
ATOM      6  C   UNL     1       2.866   5.593  19.987  0.00  0.00    +0.000 A 
ATOM      7  C   UNL     1       1.690   5.339  20.697  0.00  0.00    +0.000 A 
ATOM      8  C   UNL     1       0.895   4.258  20.335  0.00  0.00    +0.000 A 
ATOM      9  C   UNL     1       1.288   3.440  19.278  0.00  0.00    +0.000 A 
ATOM     10  F   UNL     1       0.489   2.410  18.951  0.00  0.00    +0.000 F 
ATOM     11  C   UNL     1       2.464   3.678  18.559  0.00  0.00    +0.000 A 
ATOM     12 CL   UNL     1       2.823   2.612  17.244  0.00  0.00    +0.000 Cl
ENDBRANCH   2   5
BRANCH   1  13
ATOM     13  C   UNL     1       6.992   5.519  18.263  0.00  0.00    +0.000 C 
ATOM     14  C   UNL     1       8.125   5.510  19.309  0.00  0.00    +0.000 C 
BRANCH  13  15
ATOM     15  C   UNL     1       6.915   6.893  17.619  0.00  0.00    +0.000 C 
ATOM     16  N   UNL     1       6.852   8.034  17.085  0.00  0.00    +0.000 NA
ENDBRANCH  13  15
BRANCH  13  17
ATOM     17  C   UNL     1       7.322   4.486  17.154  0.00  0.00    +0.000 C 
BRANCH  17  19
ATOM     18  C   UNL     1       6.887   4.545  14.824  0.00  0.00    +0.000 C 
ATOM     19  O   UNL     1       7.563   5.164  15.912  0.00  0.00    +0.000 OA
ENDBRANCH  17  19
ENDBRANCH  13  17
ENDBRANCH   1  13
TORSDOF 5
ENDMDL
MODEL 5
REMARK VINA RESULT:      -6.6      2.048      2.281
REMARK  Name = 
REMARK  7 active torsions:
REMARK  status: ('A' for Active; 'I' for Inactive)
REMARK    1  A    between atoms: C_1  and  O_2
REMARK    2  A    between atoms: O_2  and  C_3
REMARK    3  A    between atoms: C_3  and  C_4
REMARK    4  A    between atoms: C_4  and  C_5
REMARK    5  A    between atoms: C_4  and  C_6
REMARK    6  A    between atoms: C_4  and  N_8
REMARK    7  A    between atoms: C_9  and  C_11
REMARK                            x       y       z     vdW  Elec       q    Type
REMARK                         _______ _______ _______ _____ _____    ______ ____
ROOT
ATOM      1  N   UNL     1       5.042   4.676  17.535  0.00  0.00    +0.000 N 
ATOM      2  C   UNL     1       4.918   4.885  18.889  0.00  0.00    +0.000 C 
ATOM      3  O   UNL     1       5.809   5.386  19.567  0.00  0.00    +0.000 OA
ATOM      4  H   UNL     1       4.270   4.270  17.019  0.00  0.00    +0.000 HD
ENDROOT
BRANCH   2   5
ATOM      5  C   UNL     1       3.660   4.466  19.564  0.00  0.00    +0.000 A 
ATOM      6  C   UNL     1       3.620   3.125  20.002  0.00  0.00    +0.000 A 
ATOM      7  C   UNL     1       2.520   2.624  20.703  0.00  0.00    +0.000 A 
ATOM      8  C   UNL     1       1.448   3.464  20.980  0.00  0.00    +0.000 A 
ATOM      9  C   UNL     1       1.482   4.787  20.547  0.00  0.00    +0.000 A 
ATOM     10  F   UNL     1       0.430   5.571  20.841  0.00  0.00    +0.000 F 
ATOM     11  C   UNL     1       2.573   5.304  19.840  0.00  0.00    +0.000 A 
ATOM     12 CL   UNL     1       2.511   6.973  19.389  0.00  0.00    +0.000 Cl
ENDBRANCH   2   5
BRANCH   1  13
ATOM     13  C   UNL     1       6.216   5.121  16.752  0.00  0.00    +0.000 C 
ATOM     14  C   UNL     1       6.123   4.625  15.295  0.00  0.00    +0.000 C 
BRANCH  13  15
ATOM     15  C   UNL     1       7.488   4.582  17.385  0.00  0.00    +0.000 C 
ATOM     16  N   UNL     1       8.544   4.134  17.911  0.00  0.00    +0.000 NA
ENDBRANCH  13  15
BRANCH  13  17
ATOM     17  C   UNL     1       6.297   6.669  16.753  0.00  0.00    +0.000 C 
BRANCH  17  19
ATOM     18  C   UNL     1       7.903   8.163  17.654  0.00  0.00    +0.000 C 
ATOM     19  O   UNL     1       7.671   7.086  16.755  0.00  0.00    +0.000 OA
ENDBRANCH  17  19
ENDBRANCH  13  17
ENDBRANCH   1  13
TORSDOF 5
ENDMDL
MODEL 6
REMARK VINA RESULT:      -6.6      1.493      1.550
REMARK  Name = 
REMARK  7 active torsions:
REMARK  status: ('A' for Active; 'I' for Inactive)
REMARK    1  A    between atoms: C_1  and  O_2
REMARK    2  A    between atoms: O_2  and  C_3
REMARK    3  A    between atoms: C_3  and  C_4
REMARK    4  A    between atoms: C_4  and  C_5
REMARK    5  A    between atoms: C_4  and  C_6
REMARK    6  A    between atoms: C_4  and  N_8
REMARK    7  A    between atoms: C_9  and  C_11
REMARK                            x       y       z     vdW  Elec       q    Type
REMARK                         _______ _______ _______ _____ _____    ______ ____
ROOT
ATOM      1  N   UNL     1       5.046   4.926  17.953  0.00  0.00    +0.000 N 
ATOM      2  C   UNL     1       3.794   5.491  18.034  0.00  0.00    +0.000 C 
ATOM      3  O   UNL     1       3.527   6.585  17.547  0.00  0.00    +0.000 OA
ATOM      4  H   UNL     1       5.210   4.013  18.361  0.00  0.00    +0.000 HD
ENDROOT
BRANCH   2   5
ATOM      5  C   UNL     1       2.725   4.755  18.762  0.00  0.00    +0.000 A 
ATOM      6  C   UNL     1       2.265   5.363  19.949  0.00  0.00    +0.000 A 
ATOM      7  C   UNL     1       1.222   4.805  20.692  0.00  0.00    +0.000 A 
ATOM      8  C   UNL     1       0.622   3.632  20.251  0.00  0.00    +0.000 A 
ATOM      9  C   UNL     1       1.075   3.026  19.081  0.00  0.00    +0.000 A 
ATOM     10  F   UNL     1       0.464   1.898  18.682  0.00  0.00    +0.000 F 
ATOM     11  C   UNL     1       2.120   3.569  18.327  0.00  0.00    +0.000 A 
ATOM     12 CL   UNL     1       2.566   2.743  16.874  0.00  0.00    +0.000 Cl
ENDBRANCH   2   5
BRANCH   1  13
ATOM     13  C   UNL     1       6.159   5.533  17.192  0.00  0.00    +0.000 C 
ATOM     14  C   UNL     1       5.880   5.482  15.677  0.00  0.00    +0.000 C 
BRANCH  13  15
ATOM     15  C   UNL     1       7.450   4.788  17.490  0.00  0.00    +0.000 C 
ATOM     16  N   UNL     1       8.522   4.170  17.737  0.00  0.00    +0.000 NA
ENDBRANCH  13  15
BRANCH  13  17
ATOM     17  C   UNL     1       6.349   7.012  17.619  0.00  0.00    +0.000 C 
BRANCH  17  19
ATOM     18  C   UNL     1       8.074   8.632  17.769  0.00  0.00    +0.000 C 
ATOM     19  O   UNL     1       7.544   7.542  17.025  0.00  0.00    +0.000 OA
ENDBRANCH  17  19
ENDBRANCH  13  17
ENDBRANCH   1  13
TORSDOF 5
ENDMDL
MODEL 7
REMARK VINA RESULT:      -6.6      1.624      2.177
REMARK  Name = 
REMARK  7 active torsions:
REMARK  status: ('A' for Active; 'I' for Inactive)
REMARK    1  A    between atoms: C_1  and  O_2
REMARK    2  A    between atoms: O_2  and  C_3
REMARK    3  A    between atoms: C_3  and  C_4
REMARK    4  A    between atoms: C_4  and  C_5
REMARK    5  A    between atoms: C_4  and  C_6
REMARK    6  A    between atoms: C_4  and  N_8
REMARK    7  A    between atoms: C_9  and  C_11
REMARK                            x       y       z     vdW  Elec       q    Type
REMARK                         _______ _______ _______ _____ _____    ______ ____
ROOT
ATOM      1  N   UNL     1       5.188   4.974  17.406  0.00  0.00    +0.000 N 
ATOM      2  C   UNL     1       5.031   4.496  18.686  0.00  0.00    +0.000 C 
ATOM      3  O   UNL     1       5.981   4.209  19.409  0.00  0.00    +0.000 OA
ATOM      4  H   UNL     1       4.370   5.208  16.856  0.00  0.00    +0.000 HD
ENDROOT
BRANCH   2   5
ATOM      5  C   UNL     1       3.653   4.295  19.209  0.00  0.00    +0.000 A 
ATOM      6  C   UNL     1       3.142   5.346  20.001  0.00  0.00    +0.000 A 
ATOM      7  C   UNL     1       1.838   5.308  20.502  0.00  0.00    +0.000 A 
ATOM      8  C   UNL     1       1.027   4.219  20.209  0.00  0.00    +0.000 A 
ATOM      9  C   UNL     1       1.528   3.178  19.430  0.00  0.00    +0.000 A 
ATOM     10  F   UNL     1       0.711   2.145  19.161  0.00  0.00    +0.000 F 
ATOM     11  C   UNL     1       2.832   3.197  18.924  0.00  0.00    +0.000 A 
ATOM     12 CL   UNL     1       3.324   1.863  17.940  0.00  0.00    +0.000 Cl
ENDBRANCH   2   5
BRANCH   1  13
ATOM     13  C   UNL     1       6.508   5.281  16.814  0.00  0.00    +0.000 C 
ATOM     14  C   UNL     1       7.607   4.391  17.430  0.00  0.00    +0.000 C 
BRANCH  13  15
ATOM     15  C   UNL     1       6.852   6.742  17.057  0.00  0.00    +0.000 C 
ATOM     16  N   UNL     1       7.136   7.954  17.259  0.00  0.00    +0.000 NA
ENDBRANCH  13  15
BRANCH  13  17
ATOM     17  C   UNL     1       6.470   5.045  15.281  0.00  0.00    +0.000 C 
BRANCH  17  19
ATOM     18  C   UNL     1       7.758   5.205  13.297  0.00  0.00    +0.000 C 
ATOM     19  O   UNL     1       7.693   5.505  14.686  0.00  0.00    +0.000 OA
ENDBRANCH  17  19
ENDBRANCH  13  17
ENDBRANCH   1  13
TORSDOF 5
ENDMDL
MODEL 8
REMARK VINA RESULT:      -6.5      2.251      3.176
REMARK  Name = 
REMARK  7 active torsions:
REMARK  status: ('A' for Active; 'I' for Inactive)
REMARK    1  A    between atoms: C_1  and  O_2
REMARK    2  A    between atoms: O_2  and  C_3
REMARK    3  A    between atoms: C_3  and  C_4
REMARK    4  A    between atoms: C_4  and  C_5
REMARK    5  A    between atoms: C_4  and  C_6
REMARK    6  A    between atoms: C_4  and  N_8
REMARK    7  A    between atoms: C_9  and  C_11
REMARK                            x       y       z     vdW  Elec       q    Type
REMARK                         _______ _______ _______ _____ _____    ______ ____
ROOT
ATOM      1  N   UNL     1       5.381   4.493  17.063  0.00  0.00    +0.000 N 
ATOM      2  C   UNL     1       4.997   4.205  18.353  0.00  0.00    +0.000 C 
ATOM      3  O   UNL     1       5.755   4.316  19.311  0.00  0.00    +0.000 OA
ATOM      4  H   UNL     1       4.711   4.398  16.309  0.00  0.00    +0.000 HD
ENDROOT
BRANCH   2   5
ATOM      5  C   UNL     1       3.612   3.718  18.593  0.00  0.00    +0.000 A 
ATOM      6  C   UNL     1       3.326   2.426  18.101  0.00  0.00    +0.000 A 
ATOM      7  C   UNL     1       2.081   1.829  18.315  0.00  0.00    +0.000 A 
ATOM      8  C   UNL     1       1.108   2.516  19.031  0.00  0.00    +0.000 A 
ATOM      9  C   UNL     1       1.386   3.792  19.515  0.00  0.00    +0.000 A 
ATOM     10  F   UNL     1       0.423   4.423  20.210  0.00  0.00    +0.000 F 
ATOM     11  C   UNL     1       2.625   4.407  19.307  0.00  0.00    +0.000 A 
ATOM     12 CL   UNL     1       2.859   5.979  19.991  0.00  0.00    +0.000 Cl
ENDBRANCH   2   5
BRANCH   1  13
ATOM     13  C   UNL     1       6.706   5.054  16.720  0.00  0.00    +0.000 C 
ATOM     14  C   UNL     1       7.817   4.388  17.556  0.00  0.00    +0.000 C 
BRANCH  13  15
ATOM     15  C   UNL     1       6.711   6.552  16.981  0.00  0.00    +0.000 C 
ATOM     16  N   UNL     1       6.715   7.794  17.198  0.00  0.00    +0.000 NA
ENDBRANCH  13  15
BRANCH  13  17
ATOM     17  C   UNL     1       7.004   4.828  15.215  0.00  0.00    +0.000 C 
BRANCH  17  19
ATOM     18  C   UNL     1       6.050   3.753  13.329  0.00  0.00    +0.000 C 
ATOM     19  O   UNL     1       6.260   3.698  14.735  0.00  0.00    +0.000 OA
ENDBRANCH  17  19
ENDBRANCH  13  17
ENDBRANCH   1  13
TORSDOF 5
ENDMDL
MODEL 9
REMARK VINA RESULT:      -6.5      1.456      1.896
REMARK  Name = 
REMARK  7 active torsions:
REMARK  status: ('A' for Active; 'I' for Inactive)
REMARK    1  A    between atoms: C_1  and  O_2
REMARK    2  A    between atoms: O_2  and  C_3
REMARK    3  A    between atoms: C_3  and  C_4
REMARK    4  A    between atoms: C_4  and  C_5
REMARK    5  A    between atoms: C_4  and  C_6
REMARK    6  A    between atoms: C_4  and  N_8
REMARK    7  A    between atoms: C_9  and  C_11
REMARK                            x       y       z     vdW  Elec       q    Type
REMARK                         _______ _______ _______ _____ _____    ______ ____
ROOT
ATOM      1  N   UNL     1       5.052   5.051  17.869  0.00  0.00    +0.000 N 
ATOM      2  C   UNL     1       4.745   3.988  18.686  0.00  0.00    +0.000 C 
ATOM      3  O   UNL     1       5.600   3.339  19.280  0.00  0.00    +0.000 OA
ATOM      4  H   UNL     1       4.306   5.563  17.412  0.00  0.00    +0.000 HD
ENDROOT
BRANCH   2   5
ATOM      5  C   UNL     1       3.318   3.595  18.839  0.00  0.00    +0.000 A 
ATOM      6  C   UNL     1       2.945   2.392  18.204  0.00  0.00    +0.000 A 
ATOM      7  C   UNL     1       1.650   1.881  18.321  0.00  0.00    +0.000 A 
ATOM      8  C   UNL     1       0.713   2.566  19.085  0.00  0.00    +0.000 A 
ATOM      9  C   UNL     1       1.076   3.756  19.712  0.00  0.00    +0.000 A 
ATOM     10  F   UNL     1       0.145   4.387  20.449  0.00  0.00    +0.000 F 
ATOM     11  C   UNL     1       2.366   4.284  19.601  0.00  0.00    +0.000 A 
ATOM     12 CL   UNL     1       2.704   5.749  20.458  0.00  0.00    +0.000 Cl
ENDBRANCH   2   5
BRANCH   1  13
ATOM     13  C   UNL     1       6.426   5.573  17.704  0.00  0.00    +0.000 C 
ATOM     14  C   UNL     1       7.212   4.735  16.676  0.00  0.00    +0.000 C 
BRANCH  13  15
ATOM     15  C   UNL     1       7.151   5.539  19.039  0.00  0.00    +0.000 C 
ATOM     16  N   UNL     1       7.753   5.511  20.148  0.00  0.00    +0.000 NA
ENDBRANCH  13  15
BRANCH  13  17
ATOM     17  C   UNL     1       6.379   7.046  17.221  0.00  0.00    +0.000 C 
BRANCH  17  19
ATOM     18  C   UNL     1       7.953   8.743  17.734  0.00  0.00    +0.000 C 
ATOM     19  O   UNL     1       7.713   7.537  17.020  0.00  0.00    +0.000 OA
ENDBRANCH  17  19
ENDBRANCH  13  17
ENDBRANCH   1  13
TORSDOF 5
ENDMDL
