MODEL 1
REMARK VINA RESULT:      -7.0      0.000      0.000
REMARK  Name = 
REMARK  5 active torsions:
REMARK  status: ('A' for Active; 'I' for Inactive)
REMARK    1  A    between atoms: C_1  and  O_2
REMARK    2  A    between atoms: O_2  and  C_3
REMARK    3  A    between atoms: C_6  and  C_7
REMARK    4  A    between atoms: C_10  and  S_11
REMARK    5  A    between atoms: S_11  and  N_12
REMARK                            x       y       z     vdW  Elec       q    Type
REMARK                         _______ _______ _______ _____ _____    ______ ____
ROOT
ATOM      1  C   UNL     1       4.693   4.150  19.132  0.00  0.00    +0.000 C 
ATOM      2  N   UNL     1       5.075   3.094  19.774  0.00  0.00    +0.000 NA
ATOM      3  O   UNL     1       3.926   2.344  20.110  0.00  0.00    +0.000 OA
ATOM      4  C   UNL     1       2.774   2.960  19.513  0.00  0.00    +0.000 C 
ATOM      5  C   UNL     1       3.231   4.253  18.888  0.00  0.00    +0.000 C 
ENDROOT
BRANCH   1   9
ATOM      6  C   UNL     1       7.363   7.196  17.713  0.00  0.00    +0.000 A 
ATOM      7  C   UNL     1       6.085   7.059  17.170  0.00  0.00    +0.000 A 
ATOM      8  C   UNL     1       5.215   6.072  17.641  0.00  0.00    +0.000 A 
ATOM      9  C   UNL     1       5.627   5.199  18.653  0.00  0.00    +0.000 A 
ATOM     10  C   UNL     1       6.917   5.322  19.183  0.00  0.00    +0.000 A 
ATOM     11  C   UNL     1       7.781   6.318  18.712  0.00  0.00    +0.000 A 
BRANCH   6  13
ATOM     12  C   UNL     1       8.299   9.351  17.975  0.00  0.00    +0.000 C 
ATOM     13  O   UNL     1       8.125   8.191  17.167  0.00  0.00    +0.000 OA
ENDBRANCH   6  13
ENDBRANCH   1   9
BRANCH   4  14
ATOM     14  S   UNL     1       1.411   3.249  20.664  0.00  0.00    +0.000 S 
ATOM     15  O   UNL     1       1.596   2.453  21.855  0.00  0.00    +0.000 OA
ATOM     16  O   UNL     1       1.180   4.676  20.732  0.00  0.00    +0.000 OA
BRANCH  14  17
ATOM     17  N   UNL     1       0.094   2.605  19.858  0.00  0.00    +0.000 NA
ATOM     18  H   UNL     1       0.159   2.653  18.842  0.00  0.00    +0.000 HD
ATOM     19  H   UNL     1      -0.812   2.770  20.287  0.00  0.00    +0.000 HD
ENDBRANCH  14  17
ENDBRANCH   4  14
TORSDOF 4
ENDMDL
MODEL 2
REMARK VINA RESULT:      -6.9      0.133      1.177
REMARK  Name = 
REMARK  5 active torsions:
REMARK  status: ('A' for Active; 'I' for Inactive)
REMARK    1  A    between atoms: C_1  and  O_2
REMARK    2  A    between atoms: O_2  and  C_3
REMARK    3  A    between atoms: C_6  and  C_7
REMARK    4  A    between atoms: C_10  and  S_11
REMARK    5  A    between atoms: S_11  and  N_12
REMARK                            x       y       z     vdW  Elec       q    Type
REMARK                         _______ _______ _______ _____ _____    ______ ____
ROOT
ATOM      1  C   UNL     1       4.667   4.179  19.079  0.00  0.00    +0.000 C 
ATOM      2  N   UNL     1       5.106   3.174  19.766  0.00  0.00    +0.000 NA
ATOM      3  O   UNL     1       3.998   2.391  20.156  0.00  0.00    +0.000 OA
ATOM      4  C   UNL     1       2.811   2.924  19.548  0.00  0.00    +0.000 C 
ATOM      5  C   UNL     1       3.199   4.204  18.853  0.00  0.00    +0.000 C 
ENDROOT
BRANCH   1   9
ATOM      6  C   UNL     1       7.238   7.252  17.538  0.00  0.00    +0.000 A 
ATOM      7  C   UNL     1       7.648   6.445  18.601  0.00  0.00    +0.000 A 
ATOM      8  C   UNL     1       6.812   5.439  19.094  0.00  0.00    +0.000 A 
ATOM      9  C   UNL     1       5.546   5.244  18.535  0.00  0.00    +0.000 A 
ATOM     10  C   UNL     1       5.125   6.067  17.482  0.00  0.00    +0.000 A 
ATOM     11  C   UNL     1       5.970   7.068  16.988  0.00  0.00    +0.000 A 
BRANCH   6  13
ATOM     12  C   UNL     1       8.344   9.273  18.068  0.00  0.00    +0.000 C 
ATOM     13  O   UNL     1       8.137   8.205  17.148  0.00  0.00    +0.000 OA
ENDBRANCH   6  13
ENDBRANCH   1   9
BRANCH   4  14
ATOM     14  S   UNL     1       1.451   3.208  20.705  0.00  0.00    +0.000 S 
ATOM     15  O   UNL     1       1.629   2.391  21.881  0.00  0.00    +0.000 OA
ATOM     16  O   UNL     1       1.235   4.636  20.797  0.00  0.00    +0.000 OA
BRANCH  14  17
ATOM     17  N   UNL     1       0.128   2.591  19.890  0.00  0.00    +0.000 NA
ATOM     18  H   UNL     1      -0.682   2.406  20.482  0.00  0.00    +0.000 HD
ATOM     19  H   UNL     1       0.334   1.932  19.144  0.00  0.00    +0.000 HD
ENDBRANCH  14  17
ENDBRANCH   4  14
TORSDOF 4
ENDMDL
MODEL 3
REMARK VINA RESULT:      -6.8      1.020      1.178
REMARK  Name = 
REMARK  5 active torsions:
REMARK  status: ('A' for Active; 'I' for Inactive)
REMARK    1  A    between atoms: C_1  and  O_2
REMARK    2  A    between atoms: O_2  and  C_3
REMARK    3  A    between atoms: C_6  and  C_7
REMARK    4  A    between atoms: C_10  and  S_11
REMARK    5  A    between atoms: S_11  and  N_12
REMARK                            x       y       z     vdW  Elec       q    Type
REMARK                         _______ _______ _______ _____ _____    ______ ____
ROOT
ATOM      1  C   UNL     1       4.731   3.967  18.841  0.00  0.00    +0.000 C 
ATOM      2  N   UNL     1       5.084   3.056  19.690  0.00  0.00    +0.000 NA
ATOM      3  O   UNL     1       3.991   2.181  19.875  0.00  0.00    +0.000 OA
ATOM      4  C   UNL     1       2.940   2.547  18.967  0.00  0.00    +0.000 C 
ATOM      5  C   UNL     1       3.363   3.820  18.281  0.00  0.00    +0.000 C 
ENDROOT
BRANCH   1   9
ATOM      6  C   UNL     1       7.250   7.221  17.620  0.00  0.00    +0.000 A 
ATOM      7  C   UNL     1       6.008   7.015  17.016  0.00  0.00    +0.000 A 
ATOM      8  C   UNL     1       5.187   5.959  17.423  0.00  0.00    +0.000 A 
ATOM      9  C   UNL     1       5.612   5.088  18.430  0.00  0.00    +0.000 A 
ATOM     10  C   UNL     1       6.867   5.282  19.021  0.00  0.00    +0.000 A 
ATOM     11  C   UNL     1       7.682   6.346  18.615  0.00  0.00    +0.000 A 
BRANCH   6  13
ATOM     12  C   UNL     1       8.361   9.253  18.095  0.00  0.00    +0.000 C 
ATOM     13  O   UNL     1       7.966   8.279  17.133  0.00  0.00    +0.000 OA
ENDBRANCH   6  13
ENDBRANCH   1   9
BRANCH   4  14
ATOM     14  S   UNL     1       1.324   2.747  19.752  0.00  0.00    +0.000 S 
ATOM     15  O   UNL     1       0.287   2.266  18.870  0.00  0.00    +0.000 OA
ATOM     16  O   UNL     1       1.431   2.287  21.120  0.00  0.00    +0.000 OA
BRANCH  14  17
ATOM     17  N   UNL     1       1.149   4.408  19.835  0.00  0.00    +0.000 NA
ATOM     18  H   UNL     1       1.788   4.866  20.484  0.00  0.00    +0.000 HD
ATOM     19  H   UNL     1       0.195   4.757  19.779  0.00  0.00    +0.000 HD
ENDBRANCH  14  17
ENDBRANCH   4  14
TORSDOF 4
ENDMDL
MODEL 4
REMARK VINA RESULT:      -6.8      0.942      1.623
REMARK  Name = 
REMARK  5 active torsions:
REMARK  status: ('A' for Active; 'I' for Inactive)
REMARK    1  A    between atoms: C_1  and  O_2
REMARK    2  A    between atoms: O_2  and  C_3
REMARK    3  A    between atoms: C_6  and  C_7
REMARK    4  A    between atoms: C_10  and  S_11
REMARK    5  A    between atoms: S_11  and  N_12
REMARK                            x       y       z     vdW  Elec       q    Type
REMARK                         _______ _______ _______ _____ _____    ______ ____
ROOT
ATOM      1  C   UNL     1       4.652   3.991  18.886  0.00  0.00    +0.000 C 
ATOM      2  N   UNL     1       5.072   3.091  19.716  0.00  0.00    +0.000 NA
ATOM      3  O   UNL     1       3.991   2.233  20.017  0.00  0.00    +0.000 OA
ATOM      4  C   UNL     1       2.865   2.596  19.204  0.00  0.00    +0.000 C 
ATOM      5  C   UNL     1       3.237   3.851  18.457  0.00  0.00    +0.000 C 
ENDROOT
BRANCH   1   9
ATOM      6  C   UNL     1       7.146   7.171  17.441  0.00  0.00    +0.000 A 
ATOM      7  C   UNL     1       7.592   6.318  18.452  0.00  0.00    +0.000 A 
ATOM      8  C   UNL     1       6.781   5.278  18.914  0.00  0.00    +0.000 A 
ATOM      9  C   UNL     1       5.504   5.094  18.375  0.00  0.00    +0.000 A 
ATOM     10  C   UNL     1       5.048   5.962  17.376  0.00  0.00    +0.000 A 
ATOM     11  C   UNL     1       5.869   6.998  16.912  0.00  0.00    +0.000 A 
BRANCH   6  13
ATOM     12  C   UNL     1       8.204   9.204  18.025  0.00  0.00    +0.000 C 
ATOM     13  O   UNL     1       8.024   8.154  17.078  0.00  0.00    +0.000 OA
ENDBRANCH   6  13
ENDBRANCH   1   9
BRANCH   4  14
ATOM     14  S   UNL     1       1.330   2.831  20.129  0.00  0.00    +0.000 S 
ATOM     15  O   UNL     1       0.203   2.426  19.323  0.00  0.00    +0.000 OA
ATOM     16  O   UNL     1       1.532   2.315  21.466  0.00  0.00    +0.000 OA
BRANCH  14  17
ATOM     17  N   UNL     1       1.234   4.493  20.285  0.00  0.00    +0.000 NA
ATOM     18  H   UNL     1       0.877   4.811  21.185  0.00  0.00    +0.000 HD
ATOM     19  H   UNL     1       0.947   5.001  19.452  0.00  0.00    +0.000 HD
ENDBRANCH  14  17
ENDBRANCH   4  14
TORSDOF 4
ENDMDL
MODEL 5
REMARK VINA RESULT:      -6.8      2.033      2.382
REMARK  Name = 
REMARK  5 active torsions:
REMARK  status: ('A' for Active; 'I' for Inactive)
REMARK    1  A    between atoms: C_1  and  O_2
REMARK    2  A    between atoms: O_2  and  C_3
REMARK    3  A    between atoms: C_6  and  C_7
REMARK    4  A    between atoms: C_10  and  S_11
REMARK    5  A    between atoms: S_11  and  N_12
REMARK                            x       y       z     vdW  Elec       q    Type
REMARK                         _______ _______ _______ _____ _____    ______ ____
ROOT
ATOM      1  C   UNL     1       4.615   3.286  18.812  0.00  0.00    +0.000 C 
ATOM      2  N   UNL     1       5.139   2.699  19.838  0.00  0.00    +0.000 NA
ATOM      3  O   UNL     1       4.091   2.262  20.678  0.00  0.00    +0.000 OA
ATOM      4  C   UNL     1       2.835   2.517  20.031  0.00  0.00    +0.000 C 
ATOM      5  C   UNL     1       3.130   3.293  18.772  0.00  0.00    +0.000 C 
ENDROOT
BRANCH   1   9
ATOM      6  C   UNL     1       6.899   5.079  15.652  0.00  0.00    +0.000 A 
ATOM      7  C   UNL     1       5.729   4.371  15.372  0.00  0.00    +0.000 A 
ATOM      8  C   UNL     1       4.983   3.796  16.405  0.00  0.00    +0.000 A 
ATOM      9  C   UNL     1       5.414   3.913  17.730  0.00  0.00    +0.000 A 
ATOM     10  C   UNL     1       6.599   4.605  18.008  0.00  0.00    +0.000 A 
ATOM     11  C   UNL     1       7.338   5.185  16.970  0.00  0.00    +0.000 A 
BRANCH   6  13
ATOM     12  C   UNL     1       7.341   4.890  13.336  0.00  0.00    +0.000 C 
ATOM     13  O   UNL     1       7.547   5.589  14.561  0.00  0.00    +0.000 OA
ENDBRANCH   6  13
ENDBRANCH   1   9
BRANCH   4  14
ATOM     14  S   UNL     1       1.638   3.397  21.061  0.00  0.00    +0.000 S 
ATOM     15  O   UNL     1       1.360   2.631  22.253  0.00  0.00    +0.000 OA
ATOM     16  O   UNL     1       2.041   4.785  21.127  0.00  0.00    +0.000 OA
BRANCH  14  17
ATOM     17  N   UNL     1       0.246   3.362  20.135  0.00  0.00    +0.000 NA
ATOM     18  H   UNL     1       0.328   3.834  19.235  0.00  0.00    +0.000 HD
ATOM     19  H   UNL     1      -0.628   3.456  20.645  0.00  0.00    +0.000 HD
ENDBRANCH  14  17
ENDBRANCH   4  14
TORSDOF 4
ENDMDL
MODEL 6
REMARK VINA RESULT:      -6.8      2.061      2.638
REMARK  Name = 
REMARK  5 active torsions:
REMARK  status: ('A' for Active; 'I' for Inactive)
REMARK    1  A    between atoms: C_1  and  O_2
REMARK    2  A    between atoms: O_2  and  C_3
REMARK    3  A    between atoms: C_6  and  C_7
REMARK    4  A    between atoms: C_10  and  S_11
REMARK    5  A    between atoms: S_11  and  N_12
REMARK                            x       y       z     vdW  Elec       q    Type
REMARK                         _______ _______ _______ _____ _____    ______ ____
ROOT
ATOM      1  C   UNL     1       4.580   3.289  18.757  0.00  0.00    +0.000 C 
ATOM      2  N   UNL     1       5.150   2.794  19.808  0.00  0.00    +0.000 NA
ATOM      3  O   UNL     1       4.139   2.360  20.692  0.00  0.00    +0.000 OA
ATOM      4  C   UNL     1       2.862   2.511  20.054  0.00  0.00    +0.000 C 
ATOM      5  C   UNL     1       3.097   3.219  18.744  0.00  0.00    +0.000 C 
ENDROOT
BRANCH   1   9
ATOM      6  C   UNL     1       6.782   5.026  15.508  0.00  0.00    +0.000 A 
ATOM      7  C   UNL     1       7.323   4.984  16.794  0.00  0.00    +0.000 A 
ATOM      8  C   UNL     1       6.607   4.408  17.847  0.00  0.00    +0.000 A 
ATOM      9  C   UNL     1       5.330   3.885  17.623  0.00  0.00    +0.000 A 
ATOM     10  C   UNL     1       4.778   3.947  16.338  0.00  0.00    +0.000 A 
ATOM     11  C   UNL     1       5.504   4.518  15.285  0.00  0.00    +0.000 A 
BRANCH   6  13
ATOM     12  C   UNL     1       7.541   5.023  13.269  0.00  0.00    +0.000 C 
ATOM     13  O   UNL     1       7.571   5.619  14.562  0.00  0.00    +0.000 OA
ENDBRANCH   6  13
ENDBRANCH   1   9
BRANCH   4  14
ATOM     14  S   UNL     1       1.637   3.392  21.049  0.00  0.00    +0.000 S 
ATOM     15  O   UNL     1       1.355   2.647  22.254  0.00  0.00    +0.000 OA
ATOM     16  O   UNL     1       2.017   4.788  21.091  0.00  0.00    +0.000 OA
BRANCH  14  17
ATOM     17  N   UNL     1       0.258   3.315  20.106  0.00  0.00    +0.000 NA
ATOM     18  H   UNL     1      -0.457   4.000  20.351  0.00  0.00    +0.000 HD
ATOM     19  H   UNL     1      -0.045   2.383  19.839  0.00  0.00    +0.000 HD
ENDBRANCH  14  17
ENDBRANCH   4  14
TORSDOF 4
ENDMDL
MODEL 7
REMARK VINA RESULT:      -6.8      2.202      2.639
REMARK  Name = 
REMARK  5 active torsions:
REMARK  status: ('A' for Active; 'I' for Inactive)
REMARK    1  A    between atoms: C_1  and  O_2
REMARK    2  A    between atoms: O_2  and  C_3
REMARK    3  A    between atoms: C_6  and  C_7
REMARK    4  A    between atoms: C_10  and  S_11
REMARK    5  A    between atoms: S_11  and  N_12
REMARK                            x       y       z     vdW  Elec       q    Type
REMARK                         _______ _______ _______ _____ _____    ______ ____
ROOT
ATOM      1  C   UNL     1       4.576   3.342  18.754  0.00  0.00    +0.000 C 
ATOM      2  N   UNL     1       5.075   2.743  19.786  0.00  0.00    +0.000 NA
ATOM      3  O   UNL     1       4.006   2.319  20.607  0.00  0.00    +0.000 OA
ATOM      4  C   UNL     1       2.765   2.596  19.940  0.00  0.00    +0.000 C 
ATOM      5  C   UNL     1       3.092   3.371  18.689  0.00  0.00    +0.000 C 
ENDROOT
BRANCH   1   9
ATOM      6  C   UNL     1       6.941   5.110  15.639  0.00  0.00    +0.000 A 
ATOM      7  C   UNL     1       5.819   4.338  15.332  0.00  0.00    +0.000 A 
ATOM      8  C   UNL     1       5.046   3.772  16.349  0.00  0.00    +0.000 A 
ATOM      9  C   UNL     1       5.403   3.961  17.688  0.00  0.00    +0.000 A 
ATOM     10  C   UNL     1       6.540   4.717  17.996  0.00  0.00    +0.000 A 
ATOM     11  C   UNL     1       7.307   5.288  16.972  0.00  0.00    +0.000 A 
BRANCH   6  13
ATOM     12  C   UNL     1       7.379   4.947  13.321  0.00  0.00    +0.000 C 
ATOM     13  O   UNL     1       7.622   5.604  14.561  0.00  0.00    +0.000 OA
ENDBRANCH   6  13
ENDBRANCH   1   9
BRANCH   4  14
ATOM     14  S   UNL     1       1.564   3.488  20.954  0.00  0.00    +0.000 S 
ATOM     15  O   UNL     1       0.430   3.873  20.148  0.00  0.00    +0.000 OA
ATOM     16  O   UNL     1       1.403   2.764  22.196  0.00  0.00    +0.000 OA
BRANCH  14  17
ATOM     17  N   UNL     1       2.374   4.899  21.343  0.00  0.00    +0.000 NA
ATOM     18  H   UNL     1       1.765   5.689  21.555  0.00  0.00    +0.000 HD
ATOM     19  H   UNL     1       3.225   5.082  20.817  0.00  0.00    +0.000 HD
ENDBRANCH  14  17
ENDBRANCH   4  14
TORSDOF 4
ENDMDL
MODEL 8
REMARK VINA RESULT:      -6.8      2.279      2.909
REMARK  Name = 
REMARK  5 active torsions:
REMARK  status: ('A' for Active; 'I' for Inactive)
REMARK    1  A    between atoms: C_1  and  O_2
REMARK    2  A    between atoms: O_2  and  C_3
REMARK    3  A    between atoms: C_6  and  C_7
REMARK    4  A    between atoms: C_10  and  S_11
REMARK    5  A    between atoms: S_11  and  N_12
REMARK                            x       y       z     vdW  Elec       q    Type
REMARK                         _______ _______ _______ _____ _____    ______ ____
ROOT
ATOM      1  C   UNL     1       4.560   3.362  18.617  0.00  0.00    +0.000 C 
ATOM      2  N   UNL     1       5.102   2.789  19.642  0.00  0.00    +0.000 NA
ATOM      3  O   UNL     1       4.070   2.406  20.528  0.00  0.00    +0.000 OA
ATOM      4  C   UNL     1       2.801   2.681  19.914  0.00  0.00    +0.000 C 
ATOM      5  C   UNL     1       3.075   3.412  18.625  0.00  0.00    +0.000 C 
ENDROOT
BRANCH   1   9
ATOM      6  C   UNL     1       6.849   5.032  15.393  0.00  0.00    +0.000 A 
ATOM      7  C   UNL     1       7.346   5.037  16.698  0.00  0.00    +0.000 A 
ATOM      8  C   UNL     1       6.601   4.483  17.743  0.00  0.00    +0.000 A 
ATOM      9  C   UNL     1       5.340   3.935  17.492  0.00  0.00    +0.000 A 
ATOM     10  C   UNL     1       4.833   3.949  16.187  0.00  0.00    +0.000 A 
ATOM     11  C   UNL     1       5.587   4.498  15.142  0.00  0.00    +0.000 A 
BRANCH   6  13
ATOM     12  C   UNL     1       7.613   5.031  13.156  0.00  0.00    +0.000 C 
ATOM     13  O   UNL     1       7.663   5.608  14.457  0.00  0.00    +0.000 OA
ENDBRANCH   6  13
ENDBRANCH   1   9
BRANCH   4  14
ATOM     14  S   UNL     1       1.664   3.623  20.958  0.00  0.00    +0.000 S 
ATOM     15  O   UNL     1       0.459   3.925  20.223  0.00  0.00    +0.000 OA
ATOM     16  O   UNL     1       1.623   2.990  22.258  0.00  0.00    +0.000 OA
BRANCH  14  17
ATOM     17  N   UNL     1       2.468   5.074  21.175  0.00  0.00    +0.000 NA
ATOM     18  H   UNL     1       1.855   5.873  21.335  0.00  0.00    +0.000 HD
ATOM     19  H   UNL     1       3.294   5.214  20.600  0.00  0.00    +0.000 HD
ENDBRANCH  14  17
ENDBRANCH   4  14
TORSDOF 4
ENDMDL
MODEL 9
REMARK VINA RESULT:      -6.8      3.777      6.884
REMARK  Name = 
REMARK  5 active torsions:
REMARK  status: ('A' for Active; 'I' for Inactive)
REMARK    1  A    between atoms: C_1  and  O_2
REMARK    2  A    between atoms: O_2  and  C_3
REMARK    3  A    between atoms: C_6  and  C_7
REMARK    4  A    between atoms: C_10  and  S_11
REMARK    5  A    between atoms: S_11  and  N_12
REMARK                            x       y       z     vdW  Elec       q    Type
REMARK                         _______ _______ _______ _____ _____    ______ ____
ROOT
ATOM      1  C   UNL     1       4.324   5.428  17.108  0.00  0.00    +0.000 C 
ATOM      2  N   UNL     1       4.975   6.527  17.312  0.00  0.00    +0.000 NA
ATOM      3  O   UNL     1       5.830   6.743  16.209  0.00  0.00    +0.000 OA
ATOM      4  C   UNL     1       5.576   5.737  15.216  0.00  0.00    +0.000 C 
ATOM      5  C   UNL     1       4.600   4.755  15.812  0.00  0.00    +0.000 C 
ENDROOT
BRANCH   1   9
ATOM      6  C   UNL     1       1.553   3.795  19.950  0.00  0.00    +0.000 A 
ATOM      7  C   UNL     1       2.577   4.649  20.362  0.00  0.00    +0.000 A 
ATOM      8  C   UNL     1       3.472   5.187  19.432  0.00  0.00    +0.000 A 
ATOM      9  C   UNL     1       3.358   4.857  18.079  0.00  0.00    +0.000 A 
ATOM     10  C   UNL     1       2.344   3.983  17.667  0.00  0.00    +0.000 A 
ATOM     11  C   UNL     1       1.446   3.454  18.603  0.00  0.00    +0.000 A 
BRANCH   6  13
ATOM     12  C   UNL     1       1.398   2.582  21.974  0.00  0.00    +0.000 C 
ATOM     13  O   UNL     1       0.746   3.327  20.949  0.00  0.00    +0.000 OA
ENDBRANCH   6  13
ENDBRANCH   1   9
BRANCH   4  14
ATOM     14  S   UNL     1       7.060   4.889  14.627  0.00  0.00    +0.000 S 
ATOM     15  O   UNL     1       7.662   5.641  13.552  0.00  0.00    +0.000 OA
ATOM     16  O   UNL     1       7.824   4.472  15.784  0.00  0.00    +0.000 OA
BRANCH  14  17
ATOM     17  N   UNL     1       6.449   3.488  13.947  0.00  0.00    +0.000 NA
ATOM     18  H   UNL     1       5.441   3.374  14.053  0.00  0.00    +0.000 HD
ATOM     19  H   UNL     1       7.034   2.661  14.034  0.00  0.00    +0.000 HD
ENDBRANCH  14  17
ENDBRANCH   4  14
TORSDOF 4
ENDMDL
