MODEL 1
REMARK VINA RESULT:      -9.0      0.000      0.000
REMARK  Name = 
REMARK  10 active torsions:
REMARK  status: ('A' for Active; 'I' for Inactive)
REMARK    1  A    between atoms: C_1  and  C_2
REMARK    2  A    between atoms: C_2  and  C_3
REMARK    3  A    between atoms: C_5  and  N_6
REMARK    4  A    between atoms: C_7  and  C_9
REMARK    5  A    between atoms: C_12  and  O_13
REMARK    6  A    between atoms: O_13  and  C_14
REMARK    7  A    between atoms: C_18  and  C_19
REMARK    8  A    between atoms: C_24  and  C_25
REMARK    9  A    between atoms: C_31  and  C_32
REMARK   10  A    between atoms: C_31  and  C_33
REMARK                            x       y       z     vdW  Elec       q    Type
REMARK                         _______ _______ _______ _____ _____    ______ ____
ROOT
ATOM      1  C   UNL     1       1.516   8.620  19.231  0.00  0.00    +0.000 A 
ATOM      2  C   UNL     1       1.246   9.273  18.025  0.00  0.00    +0.000 A 
ATOM      3  C   UNL     1       0.413  10.398  18.025  0.00  0.00    +0.000 A 
ATOM      4  C   UNL     1      -0.176  10.852  19.216  0.00  0.00    +0.000 A 
ATOM      5  C   UNL     1       0.052  10.147  20.408  0.00  0.00    +0.000 A 
ATOM      6 CL   UNL     1      -0.784  10.465  21.888  0.00  0.00    +0.000 Cl
ATOM      7  C   UNL     1       0.947   9.080  20.422  0.00  0.00    +0.000 A 
ENDROOT
BRANCH   1   9
ATOM      8  N   UNL     1       3.047   7.046  18.186  0.00  0.00    +0.000 N 
ATOM      9  C   UNL     1       2.351   7.399  19.322  0.00  0.00    +0.000 C 
ATOM     10  O   UNL     1       2.338   6.735  20.351  0.00  0.00    +0.000 OA
ATOM     11  H   UNL     1       3.031   7.643  17.371  0.00  0.00    +0.000 HD
BRANCH   8  16
ATOM     12  C   UNL     1       6.169   4.478  15.367  0.00  0.00    +0.000 C 
ATOM     13  C   UNL     1       5.576   4.542  16.794  0.00  0.00    +0.000 C 
ATOM     14  C   UNL     1       6.778   4.597  17.756  0.00  0.00    +0.000 C 
ATOM     15  C   UNL     1       4.718   5.816  16.892  0.00  0.00    +0.000 C 
ATOM     16  C   UNL     1       3.858   5.835  18.152  0.00  0.00    +0.000 C 
ATOM     17  C   UNL     1       2.975   4.587  18.183  0.00  0.00    +0.000 C 
ATOM     18  C   UNL     1       3.798   3.288  18.094  0.00  0.00    +0.000 C 
ATOM     19  C   UNL     1       2.830   2.117  17.800  0.00  0.00    +0.000 C 
ATOM     20  C   UNL     1       4.471   2.957  19.438  0.00  0.00    +0.000 C 
ATOM     21  N   UNL     1       4.768   3.322  16.977  0.00  0.00    +0.000 NA
ATOM     22  H   UNL     1       4.259   3.145  16.108  0.00  0.00    +0.000 HD
ENDBRANCH   8  16
ENDBRANCH   1   9
BRANCH   4  23
ATOM     23  O   UNL     1      -1.029  11.922  19.076  0.00  0.00    +0.000 OA
BRANCH  23  24
ATOM     24  C   UNL     1      -2.296  11.758  18.544  0.00  0.00    +0.000 A 
ATOM     25  C   UNL     1      -2.534  11.176  17.288  0.00  0.00    +0.000 A 
ATOM     26  C   UNL     1      -3.827  11.103  16.786  0.00  0.00    +0.000 A 
ATOM     27  C   UNL     1      -4.903  11.484  17.584  0.00  0.00    +0.000 A 
ATOM     28  C   UNL     1      -4.704  11.984  18.885  0.00  0.00    +0.000 A 
ATOM     29  C   UNL     1      -3.380  12.180  19.343  0.00  0.00    +0.000 A 
BRANCH  28  30
ATOM     30  C   UNL     1      -5.895  12.206  19.703  0.00  0.00    +0.000 A 
ATOM     31  C   UNL     1      -6.638  13.386  19.963  0.00  0.00    +0.000 A 
ATOM     32  N   UNL     1      -7.752  13.158  20.662  0.00  0.00    +0.000 NA
ATOM     33  N   UNL     1      -7.739  11.831  20.851  0.00  0.00    +0.000 N 
ATOM     34  C   UNL     1      -6.660  11.216  20.283  0.00  0.00    +0.000 A 
ATOM     35  H   UNL     1      -8.508  11.402  21.353  0.00  0.00    +0.000 HD
ENDBRANCH  28  30
BRANCH  29  36
ATOM     36  C   UNL     1      -3.089  12.832  20.599  0.00  0.00    +0.000 C 
ATOM     37  N   UNL     1      -2.873  13.361  21.607  0.00  0.00    +0.000 NA
ENDBRANCH  29  36
ENDBRANCH  23  24
ENDBRANCH   4  23
TORSDOF 6
ENDMDL
MODEL 2
REMARK VINA RESULT:      -8.8      1.894      2.887
REMARK  Name = 
REMARK  10 active torsions:
REMARK  status: ('A' for Active; 'I' for Inactive)
REMARK    1  A    between atoms: C_1  and  C_2
REMARK    2  A    between atoms: C_2  and  C_3
REMARK    3  A    between atoms: C_5  and  N_6
REMARK    4  A    between atoms: C_7  and  C_9
REMARK    5  A    between atoms: C_12  and  O_13
REMARK    6  A    between atoms: O_13  and  C_14
REMARK    7  A    between atoms: C_18  and  C_19
REMARK    8  A    between atoms: C_24  and  C_25
REMARK    9  A    between atoms: C_31  and  C_32
REMARK   10  A    between atoms: C_31  and  C_33
REMARK                            x       y       z     vdW  Elec       q    Type
REMARK                         _______ _______ _______ _____ _____    ______ ____
ROOT
ATOM      1  C   UNL     1       1.834   9.022  18.898  0.00  0.00    +0.000 A 
ATOM      2  C   UNL     1       1.732  10.285  18.309  0.00  0.00    +0.000 A 
ATOM      3  C   UNL     1       1.082  11.315  18.999  0.00  0.00    +0.000 A 
ATOM      4  C   UNL     1       0.507  11.080  20.257  0.00  0.00    +0.000 A 
ATOM      5  C   UNL     1       0.560   9.789  20.808  0.00  0.00    +0.000 A 
ATOM      6 CL   UNL     1      -0.296   9.316  22.234  0.00  0.00    +0.000 Cl
ATOM      7  C   UNL     1       1.279   8.788  20.159  0.00  0.00    +0.000 A 
ENDROOT
BRANCH   1   9
ATOM      8  N   UNL     1       2.812   6.799  19.031  0.00  0.00    +0.000 N 
ATOM      9  C   UNL     1       2.467   7.863  18.226  0.00  0.00    +0.000 C 
ATOM     10  O   UNL     1       2.713   7.922  17.027  0.00  0.00    +0.000 OA
ATOM     11  H   UNL     1       2.569   6.801  20.012  0.00  0.00    +0.000 HD
BRANCH   8  16
ATOM     12  C   UNL     1       4.275   2.220  20.120  0.00  0.00    +0.000 C 
ATOM     13  C   UNL     1       4.142   3.217  18.944  0.00  0.00    +0.000 C 
ATOM     14  C   UNL     1       3.311   2.499  17.865  0.00  0.00    +0.000 C 
ATOM     15  C   UNL     1       3.419   4.471  19.469  0.00  0.00    +0.000 C 
ATOM     16  C   UNL     1       3.487   5.630  18.480  0.00  0.00    +0.000 C 
ATOM     17  C   UNL     1       4.950   5.944  18.164  0.00  0.00    +0.000 C 
ATOM     18  C   UNL     1       5.707   4.715  17.629  0.00  0.00    +0.000 C 
ATOM     19  C   UNL     1       7.222   5.027  17.654  0.00  0.00    +0.000 C 
ATOM     20  C   UNL     1       5.354   4.435  16.157  0.00  0.00    +0.000 C 
ATOM     21  N   UNL     1       5.509   3.526  18.486  0.00  0.00    +0.000 NA
ATOM     22  H   UNL     1       6.106   3.625  19.311  0.00  0.00    +0.000 HD
ENDBRANCH   8  16
ENDBRANCH   1   9
BRANCH   4  23
ATOM     23  O   UNL     1      -0.164  12.149  20.803  0.00  0.00    +0.000 OA
BRANCH  23  24
ATOM     24  C   UNL     1      -1.522  12.319  20.595  0.00  0.00    +0.000 A 
ATOM     25  C   UNL     1      -2.189  11.860  19.448  0.00  0.00    +0.000 A 
ATOM     26  C   UNL     1      -3.540  12.124  19.273  0.00  0.00    +0.000 A 
ATOM     27  C   UNL     1      -4.267  12.727  20.296  0.00  0.00    +0.000 A 
ATOM     28  C   UNL     1      -3.647  13.115  21.499  0.00  0.00    +0.000 A 
ATOM     29  C   UNL     1      -2.246  12.965  21.620  0.00  0.00    +0.000 A 
BRANCH  28  30
ATOM     30  C   UNL     1      -4.515  13.592  22.574  0.00  0.00    +0.000 A 
ATOM     31  C   UNL     1      -5.242  14.802  22.714  0.00  0.00    +0.000 A 
ATOM     32  N   UNL     1      -6.034  14.813  23.789  0.00  0.00    +0.000 NA
ATOM     33  N   UNL     1      -5.828  13.611  24.344  0.00  0.00    +0.000 N 
ATOM     34  C   UNL     1      -4.944  12.838  23.646  0.00  0.00    +0.000 A 
ATOM     35  H   UNL     1      -6.342  13.366  25.183  0.00  0.00    +0.000 HD
ENDBRANCH  28  30
BRANCH  29  36
ATOM     36  C   UNL     1      -1.512  13.480  22.754  0.00  0.00    +0.000 C 
ATOM     37  N   UNL     1      -0.917  13.877  23.664  0.00  0.00    +0.000 NA
ENDBRANCH  29  36
ENDBRANCH  23  24
ENDBRANCH   4  23
TORSDOF 6
ENDMDL
MODEL 3
REMARK VINA RESULT:      -8.6      0.875      1.083
REMARK  Name = 
REMARK  10 active torsions:
REMARK  status: ('A' for Active; 'I' for Inactive)
REMARK    1  A    between atoms: C_1  and  C_2
REMARK    2  A    between atoms: C_2  and  C_3
REMARK    3  A    between atoms: C_5  and  N_6
REMARK    4  A    between atoms: C_7  and  C_9
REMARK    5  A    between atoms: C_12  and  O_13
REMARK    6  A    between atoms: O_13  and  C_14
REMARK    7  A    between atoms: C_18  and  C_19
REMARK    8  A    between atoms: C_24  and  C_25
REMARK    9  A    between atoms: C_31  and  C_32
REMARK   10  A    between atoms: C_31  and  C_33
REMARK                            x       y       z     vdW  Elec       q    Type
REMARK                         _______ _______ _______ _____ _____    ______ ____
ROOT
ATOM      1  C   UNL     1       1.508   8.670  19.250  0.00  0.00    +0.000 A 
ATOM      2  C   UNL     1       1.244   9.332  18.048  0.00  0.00    +0.000 A 
ATOM      3  C   UNL     1       0.445  10.481  18.057  0.00  0.00    +0.000 A 
ATOM      4  C   UNL     1      -0.117  10.951  19.255  0.00  0.00    +0.000 A 
ATOM      5  C   UNL     1       0.102  10.237  20.444  0.00  0.00    +0.000 A 
ATOM      6 CL   UNL     1      -0.709  10.578  21.933  0.00  0.00    +0.000 Cl
ATOM      7  C   UNL     1       0.965   9.145  20.447  0.00  0.00    +0.000 A 
ENDROOT
BRANCH   1   9
ATOM      8  N   UNL     1       3.045   7.096  18.214  0.00  0.00    +0.000 N 
ATOM      9  C   UNL     1       2.308   7.425  19.331  0.00  0.00    +0.000 C 
ATOM     10  O   UNL     1       2.232   6.724  20.333  0.00  0.00    +0.000 OA
ATOM     11  H   UNL     1       3.080   7.722  17.422  0.00  0.00    +0.000 HD
BRANCH   8  16
ATOM     12  C   UNL     1       6.163   4.513  15.403  0.00  0.00    +0.000 C 
ATOM     13  C   UNL     1       5.541   4.560  16.819  0.00  0.00    +0.000 C 
ATOM     14  C   UNL     1       6.723   4.564  17.806  0.00  0.00    +0.000 C 
ATOM     15  C   UNL     1       4.713   5.853  16.927  0.00  0.00    +0.000 C 
ATOM     16  C   UNL     1       3.826   5.865  18.169  0.00  0.00    +0.000 C 
ATOM     17  C   UNL     1       2.912   4.639  18.153  0.00  0.00    +0.000 C 
ATOM     18  C   UNL     1       3.705   3.323  18.052  0.00  0.00    +0.000 C 
ATOM     19  C   UNL     1       2.715   2.183  17.711  0.00  0.00    +0.000 C 
ATOM     20  C   UNL     1       4.340   2.945  19.402  0.00  0.00    +0.000 C 
ATOM     21  N   UNL     1       4.699   3.358  16.957  0.00  0.00    +0.000 NA
ATOM     22  H   UNL     1       4.205   3.213  16.074  0.00  0.00    +0.000 HD
ENDBRANCH   8  16
ENDBRANCH   1   9
BRANCH   4  23
ATOM     23  O   UNL     1      -0.940  12.045  19.125  0.00  0.00    +0.000 OA
BRANCH  23  24
ATOM     24  C   UNL     1      -2.308  11.895  18.978  0.00  0.00    +0.000 A 
ATOM     25  C   UNL     1      -2.891  11.034  18.034  0.00  0.00    +0.000 A 
ATOM     26  C   UNL     1      -4.272  10.981  17.896  0.00  0.00    +0.000 A 
ATOM     27  C   UNL     1      -5.085  11.681  18.783  0.00  0.00    +0.000 A 
ATOM     28  C   UNL     1      -4.532  12.480  19.802  0.00  0.00    +0.000 A 
ATOM     29  C   UNL     1      -3.127  12.635  19.857  0.00  0.00    +0.000 A 
BRANCH  28  30
ATOM     30  C   UNL     1      -5.457  13.048  20.781  0.00  0.00    +0.000 A 
ATOM     31  C   UNL     1      -5.648  12.759  22.157  0.00  0.00    +0.000 A 
ATOM     32  N   UNL     1      -6.506  13.592  22.750  0.00  0.00    +0.000 NA
ATOM     33  N   UNL     1      -6.868  14.426  21.766  0.00  0.00    +0.000 N 
ATOM     34  C   UNL     1      -6.255  14.154  20.576  0.00  0.00    +0.000 A 
ATOM     35  H   UNL     1      -7.516  15.177  21.975  0.00  0.00    +0.000 HD
ENDBRANCH  28  30
BRANCH  29  36
ATOM     36  C   UNL     1      -2.490  13.559  20.769  0.00  0.00    +0.000 C 
ATOM     37  N   UNL     1      -1.993  14.309  21.497  0.00  0.00    +0.000 NA
ENDBRANCH  29  36
ENDBRANCH  23  24
ENDBRANCH   4  23
TORSDOF 6
ENDMDL
MODEL 4
REMARK VINA RESULT:      -8.6      2.081      3.114
REMARK  Name = 
REMARK  10 active torsions:
REMARK  status: ('A' for Active; 'I' for Inactive)
REMARK    1  A    between atoms: C_1  and  C_2
REMARK    2  A    between atoms: C_2  and  C_3
REMARK    3  A    between atoms: C_5  and  N_6
REMARK    4  A    between atoms: C_7  and  C_9
REMARK    5  A    between atoms: C_12  and  O_13
REMARK    6  A    between atoms: O_13  and  C_14
REMARK    7  A    between atoms: C_18  and  C_19
REMARK    8  A    between atoms: C_24  and  C_25
REMARK    9  A    between atoms: C_31  and  C_32
REMARK   10  A    between atoms: C_31  and  C_33
REMARK                            x       y       z     vdW  Elec       q    Type
REMARK                         _______ _______ _______ _____ _____    ______ ____
ROOT
ATOM      1  C   UNL     1       1.761   8.939  18.833  0.00  0.00    +0.000 A 
ATOM      2  C   UNL     1       1.014   8.774  20.003  0.00  0.00    +0.000 A 
ATOM      3  C   UNL     1       0.347   9.874  20.554  0.00  0.00    +0.000 A 
ATOM      4  C   UNL     1       0.449  11.142  19.960  0.00  0.00    +0.000 A 
ATOM      5  C   UNL     1       1.256  11.306  18.823  0.00  0.00    +0.000 A 
ATOM      6 CL   UNL     1       1.644  12.844  18.133  0.00  0.00    +0.000 Cl
ATOM      7  C   UNL     1       1.851  10.196  18.229  0.00  0.00    +0.000 A 
ENDROOT
BRANCH   1   9
ATOM      8  N   UNL     1       2.772   6.733  18.984  0.00  0.00    +0.000 N 
ATOM      9  C   UNL     1       2.533   7.842  18.203  0.00  0.00    +0.000 C 
ATOM     10  O   UNL     1       2.973   7.989  17.068  0.00  0.00    +0.000 OA
ATOM     11  H   UNL     1       2.370   6.662  19.908  0.00  0.00    +0.000 HD
BRANCH   8  16
ATOM     12  C   UNL     1       4.384   2.214  20.116  0.00  0.00    +0.000 C 
ATOM     13  C   UNL     1       4.310   3.234  18.954  0.00  0.00    +0.000 C 
ATOM     14  C   UNL     1       3.635   2.500  17.782  0.00  0.00    +0.000 C 
ATOM     15  C   UNL     1       3.467   4.430  19.430  0.00  0.00    +0.000 C 
ATOM     16  C   UNL     1       3.566   5.619  18.478  0.00  0.00    +0.000 C 
ATOM     17  C   UNL     1       5.032   6.022  18.319  0.00  0.00    +0.000 C 
ATOM     18  C   UNL     1       5.909   4.851  17.837  0.00  0.00    +0.000 C 
ATOM     19  C   UNL     1       7.394   5.247  18.021  0.00  0.00    +0.000 C 
ATOM     20  C   UNL     1       5.722   4.593  16.331  0.00  0.00    +0.000 C 
ATOM     21  N   UNL     1       5.696   3.630  18.644  0.00  0.00    +0.000 NA
ATOM     22  H   UNL     1       6.201   3.740  19.526  0.00  0.00    +0.000 HD
ENDBRANCH   8  16
ENDBRANCH   1   9
BRANCH   4  23
ATOM     23  O   UNL     1      -0.193  12.156  20.631  0.00  0.00    +0.000 OA
BRANCH  23  24
ATOM     24  C   UNL     1      -1.548  12.378  20.460  0.00  0.00    +0.000 A 
ATOM     25  C   UNL     1      -2.264  11.937  19.335  0.00  0.00    +0.000 A 
ATOM     26  C   UNL     1      -3.609  12.251  19.195  0.00  0.00    +0.000 A 
ATOM     27  C   UNL     1      -4.284  12.889  20.233  0.00  0.00    +0.000 A 
ATOM     28  C   UNL     1      -3.615  13.262  21.416  0.00  0.00    +0.000 A 
ATOM     29  C   UNL     1      -2.218  13.058  21.499  0.00  0.00    +0.000 A 
BRANCH  28  30
ATOM     30  C   UNL     1      -4.434  13.780  22.510  0.00  0.00    +0.000 A 
ATOM     31  C   UNL     1      -4.873  15.097  22.800  0.00  0.00    +0.000 A 
ATOM     32  N   UNL     1      -5.725  15.148  23.827  0.00  0.00    +0.000 NA
ATOM     33  N   UNL     1      -5.846  13.867  24.200  0.00  0.00    +0.000 N 
ATOM     34  C   UNL     1      -5.109  13.010  23.434  0.00  0.00    +0.000 A 
ATOM     35  H   UNL     1      -6.467  13.639  24.968  0.00  0.00    +0.000 HD
ENDBRANCH  28  30
BRANCH  29  36
ATOM     36  C   UNL     1      -1.433  13.552  22.608  0.00  0.00    +0.000 C 
ATOM     37  N   UNL     1      -0.814  13.963  23.496  0.00  0.00    +0.000 NA
ENDBRANCH  29  36
ENDBRANCH  23  24
ENDBRANCH   4  23
TORSDOF 6
ENDMDL
MODEL 5
REMARK VINA RESULT:      -8.5      2.031      2.683
REMARK  Name = 
REMARK  10 active torsions:
REMARK  status: ('A' for Active; 'I' for Inactive)
REMARK    1  A    between atoms: C_1  and  C_2
REMARK    2  A    between atoms: C_2  and  C_3
REMARK    3  A    between atoms: C_5  and  N_6
REMARK    4  A    between atoms: C_7  and  C_9
REMARK    5  A    between atoms: C_12  and  O_13
REMARK    6  A    between atoms: O_13  and  C_14
REMARK    7  A    between atoms: C_18  and  C_19
REMARK    8  A    between atoms: C_24  and  C_25
REMARK    9  A    between atoms: C_31  and  C_32
REMARK   10  A    between atoms: C_31  and  C_33
REMARK                            x       y       z     vdW  Elec       q    Type
REMARK                         _______ _______ _______ _____ _____    ______ ____
ROOT
ATOM      1  C   UNL     1       0.694   9.303  20.648  0.00  0.00    +0.000 A 
ATOM      2  C   UNL     1      -0.044   9.481  21.821  0.00  0.00    +0.000 A 
ATOM      3  C   UNL     1      -0.846  10.620  21.964  0.00  0.00    +0.000 A 
ATOM      4  C   UNL     1      -0.887  11.595  20.954  0.00  0.00    +0.000 A 
ATOM      5  C   UNL     1      -0.091  11.435  19.810  0.00  0.00    +0.000 A 
ATOM      6 CL   UNL     1       0.120  12.658  18.606  0.00  0.00    +0.000 Cl
ATOM      7  C   UNL     1       0.640  10.262  19.633  0.00  0.00    +0.000 A 
ENDROOT
BRANCH   1   9
ATOM      8  N   UNL     1       2.083   7.989  19.147  0.00  0.00    +0.000 N 
ATOM      9  C   UNL     1       1.600   8.151  20.426  0.00  0.00    +0.000 C 
ATOM     10  O   UNL     1       1.822   7.374  21.347  0.00  0.00    +0.000 OA
ATOM     11  H   UNL     1       1.878   8.672  18.432  0.00  0.00    +0.000 HD
BRANCH   8  16
ATOM     12  C   UNL     1       5.234   6.316  15.745  0.00  0.00    +0.000 C 
ATOM     13  C   UNL     1       4.675   6.008  17.155  0.00  0.00    +0.000 C 
ATOM     14  C   UNL     1       5.897   5.883  18.083  0.00  0.00    +0.000 C 
ATOM     15  C   UNL     1       3.770   7.181  17.570  0.00  0.00    +0.000 C 
ATOM     16  C   UNL     1       2.941   6.858  18.809  0.00  0.00    +0.000 C 
ATOM     17  C   UNL     1       2.109   5.601  18.551  0.00  0.00    +0.000 C 
ATOM     18  C   UNL     1       2.981   4.400  18.139  0.00  0.00    +0.000 C 
ATOM     19  C   UNL     1       2.053   3.292  17.585  0.00  0.00    +0.000 C 
ATOM     20  C   UNL     1       3.699   3.786  19.354  0.00  0.00    +0.000 C 
ATOM     21  N   UNL     1       3.920   4.745  17.050  0.00  0.00    +0.000 NA
ATOM     22  H   UNL     1       3.397   4.760  16.171  0.00  0.00    +0.000 HD
ENDBRANCH   8  16
ENDBRANCH   1   9
BRANCH   4  23
ATOM     23  O   UNL     1      -1.655  12.699  21.240  0.00  0.00    +0.000 OA
BRANCH  23  24
ATOM     24  C   UNL     1      -3.003  12.731  20.926  0.00  0.00    +0.000 A 
ATOM     25  C   UNL     1      -3.512  12.345  19.676  0.00  0.00    +0.000 A 
ATOM     26  C   UNL     1      -4.868  12.464  19.407  0.00  0.00    +0.000 A 
ATOM     27  C   UNL     1      -5.746  12.840  20.420  0.00  0.00    +0.000 A 
ATOM     28  C   UNL     1      -5.279  13.143  21.713  0.00  0.00    +0.000 A 
ATOM     29  C   UNL     1      -3.884  13.148  21.947  0.00  0.00    +0.000 A 
BRANCH  28  30
ATOM     30  C   UNL     1      -6.283  13.371  22.750  0.00  0.00    +0.000 A 
ATOM     31  C   UNL     1      -7.042  12.459  23.527  0.00  0.00    +0.000 A 
ATOM     32  N   UNL     1      -7.767  13.058  24.474  0.00  0.00    +0.000 NA
ATOM     33  N   UNL     1      -7.477  14.357  24.319  0.00  0.00    +0.000 N 
ATOM     34  C   UNL     1      -6.582  14.594  23.315  0.00  0.00    +0.000 A 
ATOM     35  H   UNL     1      -7.900  15.030  24.947  0.00  0.00    +0.000 HD
ENDBRANCH  28  30
BRANCH  29  36
ATOM     36  C   UNL     1      -3.315  13.599  23.197  0.00  0.00    +0.000 C 
ATOM     37  N   UNL     1      -2.853  13.944  24.202  0.00  0.00    +0.000 NA
ENDBRANCH  29  36
ENDBRANCH  23  24
ENDBRANCH   4  23
TORSDOF 6
ENDMDL
MODEL 6
REMARK VINA RESULT:      -8.5      2.925      4.414
REMARK  Name = 
REMARK  10 active torsions:
REMARK  status: ('A' for Active; 'I' for Inactive)
REMARK    1  A    between atoms: C_1  and  C_2
REMARK    2  A    between atoms: C_2  and  C_3
REMARK    3  A    between atoms: C_5  and  N_6
REMARK    4  A    between atoms: C_7  and  C_9
REMARK    5  A    between atoms: C_12  and  O_13
REMARK    6  A    between atoms: O_13  and  C_14
REMARK    7  A    between atoms: C_18  and  C_19
REMARK    8  A    between atoms: C_24  and  C_25
REMARK    9  A    between atoms: C_31  and  C_32
REMARK   10  A    between atoms: C_31  and  C_33
REMARK                            x       y       z     vdW  Elec       q    Type
REMARK                         _______ _______ _______ _____ _____    ______ ____
ROOT
ATOM      1  C   UNL     1       1.575   8.718  19.017  0.00  0.00    +0.000 A 
ATOM      2  C   UNL     1       0.846   9.658  18.283  0.00  0.00    +0.000 A 
ATOM      3  C   UNL     1       0.057  10.596  18.959  0.00  0.00    +0.000 A 
ATOM      4  C   UNL     1      -0.032  10.577  20.360  0.00  0.00    +0.000 A 
ATOM      5  C   UNL     1       0.654   9.586  21.080  0.00  0.00    +0.000 A 
ATOM      6 CL   UNL     1       0.452   9.316  22.776  0.00  0.00    +0.000 Cl
ATOM      7  C   UNL     1       1.504   8.708  20.413  0.00  0.00    +0.000 A 
ENDROOT
BRANCH   1   9
ATOM      8  N   UNL     1       2.591   6.511  19.118  0.00  0.00    +0.000 N 
ATOM      9  C   UNL     1       2.404   7.664  18.386  0.00  0.00    +0.000 C 
ATOM     10  O   UNL     1       2.930   7.880  17.301  0.00  0.00    +0.000 OA
ATOM     11  H   UNL     1       2.118   6.384  20.001  0.00  0.00    +0.000 HD
BRANCH   8  16
ATOM     12  C   UNL     1       4.412   2.075  20.258  0.00  0.00    +0.000 C 
ATOM     13  C   UNL     1       4.286   3.086  19.093  0.00  0.00    +0.000 C 
ATOM     14  C   UNL     1       3.638   2.317  17.927  0.00  0.00    +0.000 C 
ATOM     15  C   UNL     1       3.392   4.245  19.569  0.00  0.00    +0.000 C 
ATOM     16  C   UNL     1       3.431   5.432  18.612  0.00  0.00    +0.000 C 
ATOM     17  C   UNL     1       4.877   5.901  18.443  0.00  0.00    +0.000 C 
ATOM     18  C   UNL     1       5.804   4.770  17.961  0.00  0.00    +0.000 C 
ATOM     19  C   UNL     1       7.270   5.233  18.136  0.00  0.00    +0.000 C 
ATOM     20  C   UNL     1       5.621   4.497  16.457  0.00  0.00    +0.000 C 
ATOM     21  N   UNL     1       5.651   3.543  18.774  0.00  0.00    +0.000 NA
ATOM     22  H   UNL     1       6.154   3.680  19.653  0.00  0.00    +0.000 HD
ENDBRANCH   8  16
ENDBRANCH   1   9
BRANCH   4  23
ATOM     23  O   UNL     1      -0.893  11.501  20.904  0.00  0.00    +0.000 OA
BRANCH  23  24
ATOM     24  C   UNL     1      -0.424  12.704  21.404  0.00  0.00    +0.000 A 
ATOM     25  C   UNL     1       0.690  13.376  20.875  0.00  0.00    +0.000 A 
ATOM     26  C   UNL     1       1.147  14.545  21.467  0.00  0.00    +0.000 A 
ATOM     27  C   UNL     1       0.422  15.127  22.504  0.00  0.00    +0.000 A 
ATOM     28  C   UNL     1      -0.753  14.527  22.996  0.00  0.00    +0.000 A 
ATOM     29  C   UNL     1      -1.142  13.269  22.479  0.00  0.00    +0.000 A 
BRANCH  28  30
ATOM     30  C   UNL     1      -1.532  15.287  23.972  0.00  0.00    +0.000 A 
ATOM     31  C   UNL     1      -2.775  15.958  23.851  0.00  0.00    +0.000 A 
ATOM     32  N   UNL     1      -3.229  16.429  25.015  0.00  0.00    +0.000 NA
ATOM     33  N   UNL     1      -2.287  16.061  25.893  0.00  0.00    +0.000 N 
ATOM     34  C   UNL     1      -1.262  15.361  25.323  0.00  0.00    +0.000 A 
ATOM     35  H   UNL     1      -2.414  16.293  26.872  0.00  0.00    +0.000 HD
ENDBRANCH  28  30
BRANCH  29  36
ATOM     36  C   UNL     1      -2.242  12.515  23.037  0.00  0.00    +0.000 C 
ATOM     37  N   UNL     1      -3.112  11.897  23.486  0.00  0.00    +0.000 NA
ENDBRANCH  29  36
ENDBRANCH  23  24
ENDBRANCH   4  23
TORSDOF 6
ENDMDL
MODEL 7
REMARK VINA RESULT:      -8.5      1.749      2.071
REMARK  Name = 
REMARK  10 active torsions:
REMARK  status: ('A' for Active; 'I' for Inactive)
REMARK    1  A    between atoms: C_1  and  C_2
REMARK    2  A    between atoms: C_2  and  C_3
REMARK    3  A    between atoms: C_5  and  N_6
REMARK    4  A    between atoms: C_7  and  C_9
REMARK    5  A    between atoms: C_12  and  O_13
REMARK    6  A    between atoms: O_13  and  C_14
REMARK    7  A    between atoms: C_18  and  C_19
REMARK    8  A    between atoms: C_24  and  C_25
REMARK    9  A    between atoms: C_31  and  C_32
REMARK   10  A    between atoms: C_31  and  C_33
REMARK                            x       y       z     vdW  Elec       q    Type
REMARK                         _______ _______ _______ _____ _____    ______ ____
ROOT
ATOM      1  C   UNL     1       1.143   9.068  20.105  0.00  0.00    +0.000 A 
ATOM      2  C   UNL     1       0.988   9.882  18.979  0.00  0.00    +0.000 A 
ATOM      3  C   UNL     1       0.303  11.097  19.098  0.00  0.00    +0.000 A 
ATOM      4  C   UNL     1      -0.255  11.485  20.327  0.00  0.00    +0.000 A 
ATOM      5  C   UNL     1      -0.148  10.627  21.433  0.00  0.00    +0.000 A 
ATOM      6 CL   UNL     1      -0.976  10.880  22.930  0.00  0.00    +0.000 Cl
ATOM      7  C   UNL     1       0.605   9.460  21.334  0.00  0.00    +0.000 A 
ENDROOT
BRANCH   1   9
ATOM      8  N   UNL     1       2.552   7.470  18.933  0.00  0.00    +0.000 N 
ATOM      9  C   UNL     1       1.817   7.749  20.065  0.00  0.00    +0.000 C 
ATOM     10  O   UNL     1       1.644   6.956  20.983  0.00  0.00    +0.000 OA
ATOM     11  H   UNL     1       2.672   8.171  18.216  0.00  0.00    +0.000 HD
BRANCH   8  16
ATOM     12  C   UNL     1       5.332   4.837  15.829  0.00  0.00    +0.000 C 
ATOM     13  C   UNL     1       4.758   4.831  17.266  0.00  0.00    +0.000 C 
ATOM     14  C   UNL     1       5.962   4.650  18.208  0.00  0.00    +0.000 C 
ATOM     15  C   UNL     1       4.058   6.182  17.499  0.00  0.00    +0.000 C 
ATOM     16  C   UNL     1       3.212   6.180  18.769  0.00  0.00    +0.000 C 
ATOM     17  C   UNL     1       2.187   5.048  18.695  0.00  0.00    +0.000 C 
ATOM     18  C   UNL     1       2.849   3.676  18.468  0.00  0.00    +0.000 C 
ATOM     19  C   UNL     1       1.747   2.662  18.079  0.00  0.00    +0.000 C 
ATOM     20  C   UNL     1       3.484   3.139  19.763  0.00  0.00    +0.000 C 
ATOM     21  N   UNL     1       3.810   3.704  17.344  0.00  0.00    +0.000 NA
ATOM     22  H   UNL     1       3.279   3.674  16.471  0.00  0.00    +0.000 HD
ENDBRANCH   8  16
ENDBRANCH   1   9
BRANCH   4  23
ATOM     23  O   UNL     1      -0.964  12.663  20.301  0.00  0.00    +0.000 OA
BRANCH  23  24
ATOM     24  C   UNL     1      -2.348  12.661  20.271  0.00  0.00    +0.000 A 
ATOM     25  C   UNL     1      -3.096  12.005  19.279  0.00  0.00    +0.000 A 
ATOM     26  C   UNL     1      -4.481  12.100  19.272  0.00  0.00    +0.000 A 
ATOM     27  C   UNL     1      -5.138  12.734  20.323  0.00  0.00    +0.000 A 
ATOM     28  C   UNL     1      -4.421  13.321  21.383  0.00  0.00    +0.000 A 
ATOM     29  C   UNL     1      -3.008  13.337  21.319  0.00  0.00    +0.000 A 
BRANCH  28  30
ATOM     30  C   UNL     1      -5.195  13.821  22.517  0.00  0.00    +0.000 A 
ATOM     31  C   UNL     1      -5.642  15.129  22.834  0.00  0.00    +0.000 A 
ATOM     32  N   UNL     1      -6.445  15.162  23.900  0.00  0.00    +0.000 NA
ATOM     33  N   UNL     1      -6.527  13.878  24.272  0.00  0.00    +0.000 N 
ATOM     34  C   UNL     1      -5.813  13.036  23.468  0.00  0.00    +0.000 A 
ATOM     35  H   UNL     1      -7.107  13.636  25.068  0.00  0.00    +0.000 HD
ENDBRANCH  28  30
BRANCH  29  36
ATOM     36  C   UNL     1      -2.203  14.054  22.282  0.00  0.00    +0.000 C 
ATOM     37  N   UNL     1      -1.572  14.635  23.061  0.00  0.00    +0.000 NA
ENDBRANCH  29  36
ENDBRANCH  23  24
ENDBRANCH   4  23
TORSDOF 6
ENDMDL
MODEL 8
REMARK VINA RESULT:      -8.5      0.580      1.908
REMARK  Name = 
REMARK  10 active torsions:
REMARK  status: ('A' for Active; 'I' for Inactive)
REMARK    1  A    between atoms: C_1  and  C_2
REMARK    2  A    between atoms: C_2  and  C_3
REMARK    3  A    between atoms: C_5  and  N_6
REMARK    4  A    between atoms: C_7  and  C_9
REMARK    5  A    between atoms: C_12  and  O_13
REMARK    6  A    between atoms: O_13  and  C_14
REMARK    7  A    between atoms: C_18  and  C_19
REMARK    8  A    between atoms: C_24  and  C_25
REMARK    9  A    between atoms: C_31  and  C_32
REMARK   10  A    between atoms: C_31  and  C_33
REMARK                            x       y       z     vdW  Elec       q    Type
REMARK                         _______ _______ _______ _____ _____    ______ ____
ROOT
ATOM      1  C   UNL     1       1.666   8.512  19.116  0.00  0.00    +0.000 A 
ATOM      2  C   UNL     1       1.391   9.265  17.971  0.00  0.00    +0.000 A 
ATOM      3  C   UNL     1       0.570  10.394  18.071  0.00  0.00    +0.000 A 
ATOM      4  C   UNL     1      -0.003  10.754  19.302  0.00  0.00    +0.000 A 
ATOM      5  C   UNL     1       0.230   9.951  20.430  0.00  0.00    +0.000 A 
ATOM      6 CL   UNL     1      -0.588  10.154  21.940  0.00  0.00    +0.000 Cl
ATOM      7  C   UNL     1       1.114   8.878  20.346  0.00  0.00    +0.000 A 
ENDROOT
BRANCH   1   9
ATOM      8  N   UNL     1       2.950   6.868  17.865  0.00  0.00    +0.000 N 
ATOM      9  C   UNL     1       2.490   7.280  19.097  0.00  0.00    +0.000 C 
ATOM     10  O   UNL     1       2.668   6.659  20.138  0.00  0.00    +0.000 OA
ATOM     11  H   UNL     1       2.784   7.432  17.043  0.00  0.00    +0.000 HD
BRANCH   8  16
ATOM     12  C   UNL     1       3.970   2.587  20.084  0.00  0.00    +0.000 C 
ATOM     13  C   UNL     1       4.181   3.363  18.762  0.00  0.00    +0.000 C 
ATOM     14  C   UNL     1       3.661   2.447  17.639  0.00  0.00    +0.000 C 
ATOM     15  C   UNL     1       3.368   4.667  18.847  0.00  0.00    +0.000 C 
ATOM     16  C   UNL     1       3.725   5.641  17.728  0.00  0.00    +0.000 C 
ATOM     17  C   UNL     1       5.225   5.937  17.771  0.00  0.00    +0.000 C 
ATOM     18  C   UNL     1       6.074   4.655  17.682  0.00  0.00    +0.000 C 
ATOM     19  C   UNL     1       7.532   5.009  18.063  0.00  0.00    +0.000 C 
ATOM     20  C   UNL     1       6.130   4.117  16.241  0.00  0.00    +0.000 C 
ATOM     21  N   UNL     1       5.627   3.626  18.646  0.00  0.00    +0.000 NA
ATOM     22  H   UNL     1       5.979   3.882  19.571  0.00  0.00    +0.000 HD
ENDBRANCH   8  16
ENDBRANCH   1   9
BRANCH   4  23
ATOM     23  O   UNL     1      -0.846  11.839  19.260  0.00  0.00    +0.000 OA
BRANCH  23  24
ATOM     24  C   UNL     1      -2.099  11.746  18.679  0.00  0.00    +0.000 A 
ATOM     25  C   UNL     1      -2.312  11.237  17.387  0.00  0.00    +0.000 A 
ATOM     26  C   UNL     1      -3.588  11.233  16.840  0.00  0.00    +0.000 A 
ATOM     27  C   UNL     1      -4.679  11.610  17.620  0.00  0.00    +0.000 A 
ATOM     28  C   UNL     1      -4.509  12.037  18.951  0.00  0.00    +0.000 A 
ATOM     29  C   UNL     1      -3.196  12.164  19.461  0.00  0.00    +0.000 A 
BRANCH  28  30
ATOM     30  C   UNL     1      -5.719  12.260  19.740  0.00  0.00    +0.000 A 
ATOM     31  C   UNL     1      -6.407  13.455  20.071  0.00  0.00    +0.000 A 
ATOM     32  N   UNL     1      -7.561  13.234  20.705  0.00  0.00    +0.000 NA
ATOM     33  N   UNL     1      -7.627  11.898  20.782  0.00  0.00    +0.000 N 
ATOM     34  C   UNL     1      -6.561  11.270  20.204  0.00  0.00    +0.000 A 
ATOM     35  H   UNL     1      -8.439  11.474  21.216  0.00  0.00    +0.000 HD
ENDBRANCH  28  30
BRANCH  29  36
ATOM     36  C   UNL     1      -2.927  12.743  20.759  0.00  0.00    +0.000 C 
ATOM     37  N   UNL     1      -2.700  13.217  21.790  0.00  0.00    +0.000 NA
ENDBRANCH  29  36
ENDBRANCH  23  24
ENDBRANCH   4  23
TORSDOF 6
ENDMDL
MODEL 9
REMARK VINA RESULT:      -8.4      1.966      2.462
REMARK  Name = 
REMARK  10 active torsions:
REMARK  status: ('A' for Active; 'I' for Inactive)
REMARK    1  A    between atoms: C_1  and  C_2
REMARK    2  A    between atoms: C_2  and  C_3
REMARK    3  A    between atoms: C_5  and  N_6
REMARK    4  A    between atoms: C_7  and  C_9
REMARK    5  A    between atoms: C_12  and  O_13
REMARK    6  A    between atoms: O_13  and  C_14
REMARK    7  A    between atoms: C_18  and  C_19
REMARK    8  A    between atoms: C_24  and  C_25
REMARK    9  A    between atoms: C_31  and  C_32
REMARK   10  A    between atoms: C_31  and  C_33
REMARK                            x       y       z     vdW  Elec       q    Type
REMARK                         _______ _______ _______ _____ _____    ______ ____
ROOT
ATOM      1  C   UNL     1       1.077   8.764  20.449  0.00  0.00    +0.000 A 
ATOM      2  C   UNL     1       0.320   8.966  21.606  0.00  0.00    +0.000 A 
ATOM      3  C   UNL     1      -0.353  10.181  21.785  0.00  0.00    +0.000 A 
ATOM      4  C   UNL     1      -0.245  11.204  20.829  0.00  0.00    +0.000 A 
ATOM      5  C   UNL     1       0.572  11.011  19.704  0.00  0.00    +0.000 A 
ATOM      6 CL   UNL     1       0.965  12.261  18.576  0.00  0.00    +0.000 Cl
ATOM      7  C   UNL     1       1.171   9.773  19.487  0.00  0.00    +0.000 A 
ENDROOT
BRANCH   1   9
ATOM      8  N   UNL     1       2.616   7.508  19.047  0.00  0.00    +0.000 N 
ATOM      9  C   UNL     1       1.854   7.528  20.195  0.00  0.00    +0.000 C 
ATOM     10  O   UNL     1       1.740   6.576  20.958  0.00  0.00    +0.000 OA
ATOM     11  H   UNL     1       2.683   8.330  18.464  0.00  0.00    +0.000 HD
BRANCH   8  16
ATOM     12  C   UNL     1       5.495   5.625  15.517  0.00  0.00    +0.000 C 
ATOM     13  C   UNL     1       4.977   5.355  16.950  0.00  0.00    +0.000 C 
ATOM     14  C   UNL     1       6.226   5.146  17.825  0.00  0.00    +0.000 C 
ATOM     15  C   UNL     1       4.173   6.588  17.400  0.00  0.00    +0.000 C 
ATOM     16  C   UNL     1       3.378   6.322  18.675  0.00  0.00    +0.000 C 
ATOM     17  C   UNL     1       2.452   5.125  18.456  0.00  0.00    +0.000 C 
ATOM     18  C   UNL     1       3.221   3.867  18.010  0.00  0.00    +0.000 C 
ATOM     19  C   UNL     1       2.196   2.826  17.499  0.00  0.00    +0.000 C 
ATOM     20  C   UNL     1       3.947   3.204  19.194  0.00  0.00    +0.000 C 
ATOM     21  N   UNL     1       4.133   4.147  16.881  0.00  0.00    +0.000 NA
ATOM     22  H   UNL     1       3.575   4.198  16.025  0.00  0.00    +0.000 HD
ENDBRANCH   8  16
ENDBRANCH   1   9
BRANCH   4  23
ATOM     23  O   UNL     1      -0.893  12.374  21.150  0.00  0.00    +0.000 OA
BRANCH  23  24
ATOM     24  C   UNL     1      -2.243  12.535  20.889  0.00  0.00    +0.000 A 
ATOM     25  C   UNL     1      -2.858  12.086  19.709  0.00  0.00    +0.000 A 
ATOM     26  C   UNL     1      -4.204  12.340  19.484  0.00  0.00    +0.000 A 
ATOM     27  C   UNL     1      -4.978  12.922  20.485  0.00  0.00    +0.000 A 
ATOM     28  C   UNL     1      -4.411  13.298  21.718  0.00  0.00    +0.000 A 
ATOM     29  C   UNL     1      -3.014  13.158  21.893  0.00  0.00    +0.000 A 
BRANCH  28  30
ATOM     30  C   UNL     1      -5.326  13.751  22.763  0.00  0.00    +0.000 A 
ATOM     31  C   UNL     1      -5.955  15.005  22.968  0.00  0.00    +0.000 A 
ATOM     32  N   UNL     1      -6.836  14.990  23.971  0.00  0.00    +0.000 NA
ATOM     33  N   UNL     1      -6.785  13.726  24.415  0.00  0.00    +0.000 N 
ATOM     34  C   UNL     1      -5.912  12.943  23.714  0.00  0.00    +0.000 A 
ATOM     35  H   UNL     1      -7.390  13.453  25.181  0.00  0.00    +0.000 HD
ENDBRANCH  28  30
BRANCH  29  36
ATOM     36  C   UNL     1      -2.332  13.664  23.063  0.00  0.00    +0.000 C 
ATOM     37  N   UNL     1      -1.773  14.077  23.989  0.00  0.00    +0.000 NA
ENDBRANCH  29  36
ENDBRANCH  23  24
ENDBRANCH   4  23
TORSDOF 6
ENDMDL
