MODEL 1
REMARK VINA RESULT:      -8.3      0.000      0.000
REMARK  Name = 
REMARK  5 active torsions:
REMARK  status: ('A' for Active; 'I' for Inactive)
REMARK    1  A    between atoms: C_1  and  C_2
REMARK    2  A    between atoms: C_2  and  C_3
REMARK    3  A    between atoms: C_3  and  C_4
REMARK    4  A    between atoms: N_11  and  C_12
REMARK    5  A    between atoms: C_16  and  C_17
REMARK                            x       y       z     vdW  Elec       q    Type
REMARK                         _______ _______ _______ _____ _____    ______ ____
ROOT
ATOM      1  C   UNL     1       3.094   5.052  20.053  0.00  0.00    +0.000 C 
ATOM      2  N   UNL     1       2.081   4.415  20.878  0.00  0.00    +0.000 NA
ATOM      3  C   UNL     1       2.075   3.174  21.195  0.00  0.00    +0.000 C 
ATOM      4  N   UNL     1       1.035   2.659  22.004  0.00  0.00    +0.000 N 
ATOM      5  N   UNL     1       3.126   2.326  20.789  0.00  0.00    +0.000 NA
ATOM      6  C   UNL     1       4.111   2.737  20.075  0.00  0.00    +0.000 C 
ATOM      7  N   UNL     1       5.181   1.816  19.876  0.00  0.00    +0.000 N 
ATOM      8  N   UNL     1       4.162   4.118  19.628  0.00  0.00    +0.000 N 
ATOM      9  H   UNL     1       0.275   3.272  22.333  0.00  0.00    +0.000 HD
ATOM     10  H   UNL     1       1.037   1.668  22.283  0.00  0.00    +0.000 HD
ATOM     11  H   UNL     1       5.080   0.844  20.205  0.00  0.00    +0.000 HD
ATOM     12  H   UNL     1       6.113   2.099  19.555  0.00  0.00    +0.000 HD
ENDROOT
BRANCH   8  13
ATOM     13  C   UNL     1       5.226   4.620  18.775  0.00  0.00    +0.000 A 
ATOM     14  C   UNL     1       6.273   5.408  19.309  0.00  0.00    +0.000 A 
ATOM     15  C   UNL     1       7.297   5.895  18.497  0.00  0.00    +0.000 A 
ATOM     16  C   UNL     1       7.308   5.617  17.133  0.00  0.00    +0.000 A 
ATOM     17  C   UNL     1       6.279   4.855  16.561  0.00  0.00    +0.000 A 
ATOM     18  C   UNL     1       5.243   4.375  17.381  0.00  0.00    +0.000 A 
BRANCH  17  19
ATOM     19  C   UNL     1       6.263   4.534  15.087  0.00  0.00    +0.000 C 
ATOM     20  F   UNL     1       6.123   3.176  14.859  0.00  0.00    +0.000 F 
ATOM     21  F   UNL     1       5.202   5.191  14.490  0.00  0.00    +0.000 F 
ATOM     22  F   UNL     1       7.443   4.960  14.506  0.00  0.00    +0.000 F 
ENDBRANCH  17  19
ENDBRANCH   8  13
BRANCH   1  23
ATOM     23  C   UNL     1       2.376   5.655  18.822  0.00  0.00    +0.000 C 
BRANCH  23  25
ATOM     24  C   UNL     1       3.383   7.621  17.587  0.00  0.00    +0.000 C 
ATOM     25  C   UNL     1       2.521   7.186  18.767  0.00  0.00    +0.000 C 
ENDBRANCH  23  25
ENDBRANCH   1  23
TORSDOF 4
ENDMDL
MODEL 2
REMARK VINA RESULT:      -7.8      0.648      1.101
REMARK  Name = 
REMARK  5 active torsions:
REMARK  status: ('A' for Active; 'I' for Inactive)
REMARK    1  A    between atoms: C_1  and  C_2
REMARK    2  A    between atoms: C_2  and  C_3
REMARK    3  A    between atoms: C_3  and  C_4
REMARK    4  A    between atoms: N_11  and  C_12
REMARK    5  A    between atoms: C_16  and  C_17
REMARK                            x       y       z     vdW  Elec       q    Type
REMARK                         _______ _______ _______ _____ _____    ______ ____
ROOT
ATOM      1  C   UNL     1       3.165   5.061  20.029  0.00  0.00    +0.000 C 
ATOM      2  N   UNL     1       2.133   4.450  20.848  0.00  0.00    +0.000 NA
ATOM      3  C   UNL     1       2.107   3.213  21.183  0.00  0.00    +0.000 C 
ATOM      4  N   UNL     1       1.050   2.723  21.985  0.00  0.00    +0.000 N 
ATOM      5  N   UNL     1       3.152   2.346  20.804  0.00  0.00    +0.000 NA
ATOM      6  C   UNL     1       4.152   2.735  20.097  0.00  0.00    +0.000 C 
ATOM      7  N   UNL     1       5.213   1.798  19.926  0.00  0.00    +0.000 N 
ATOM      8  N   UNL     1       4.227   4.109  19.632  0.00  0.00    +0.000 N 
ATOM      9  H   UNL     1       0.293   3.351  22.294  0.00  0.00    +0.000 HD
ATOM     10  H   UNL     1       1.035   1.736  22.278  0.00  0.00    +0.000 HD
ATOM     11  H   UNL     1       5.095   0.832  20.267  0.00  0.00    +0.000 HD
ATOM     12  H   UNL     1       6.153   2.064  19.614  0.00  0.00    +0.000 HD
ENDROOT
BRANCH   8  13
ATOM     13  C   UNL     1       5.309   4.584  18.787  0.00  0.00    +0.000 A 
ATOM     14  C   UNL     1       6.393   5.310  19.336  0.00  0.00    +0.000 A 
ATOM     15  C   UNL     1       7.435   5.772  18.531  0.00  0.00    +0.000 A 
ATOM     16  C   UNL     1       7.427   5.531  17.160  0.00  0.00    +0.000 A 
ATOM     17  C   UNL     1       6.362   4.831  16.574  0.00  0.00    +0.000 A 
ATOM     18  C   UNL     1       5.309   4.377  17.387  0.00  0.00    +0.000 A 
BRANCH  17  19
ATOM     19  C   UNL     1       6.325   4.551  15.092  0.00  0.00    +0.000 C 
ATOM     20  F   UNL     1       6.171   3.201  14.829  0.00  0.00    +0.000 F 
ATOM     21  F   UNL     1       5.264   5.232  14.526  0.00  0.00    +0.000 F 
ATOM     22  F   UNL     1       7.502   4.982  14.508  0.00  0.00    +0.000 F 
ENDBRANCH  17  19
ENDBRANCH   8  13
BRANCH   1  23
ATOM     23  C   UNL     1       2.472   5.656  18.779  0.00  0.00    +0.000 C 
BRANCH  23  25
ATOM     24  C   UNL     1       1.972   3.679  17.281  0.00  0.00    +0.000 C 
ATOM     25  C   UNL     1       1.383   4.720  18.228  0.00  0.00    +0.000 C 
ENDBRANCH  23  25
ENDBRANCH   1  23
TORSDOF 4
ENDMDL
MODEL 3
REMARK VINA RESULT:      -7.8      1.281      1.674
REMARK  Name = 
REMARK  5 active torsions:
REMARK  status: ('A' for Active; 'I' for Inactive)
REMARK    1  A    between atoms: C_1  and  C_2
REMARK    2  A    between atoms: C_2  and  C_3
REMARK    3  A    between atoms: C_3  and  C_4
REMARK    4  A    between atoms: N_11  and  C_12
REMARK    5  A    between atoms: C_16  and  C_17
REMARK                            x       y       z     vdW  Elec       q    Type
REMARK                         _______ _______ _______ _____ _____    ______ ____
ROOT
ATOM      1  C   UNL     1       3.144   4.976  18.963  0.00  0.00    +0.000 C 
ATOM      2  N   UNL     1       1.985   4.549  19.729  0.00  0.00    +0.000 NA
ATOM      3  C   UNL     1       1.612   3.331  19.868  0.00  0.00    +0.000 C 
ATOM      4  N   UNL     1       0.463   3.030  20.636  0.00  0.00    +0.000 N 
ATOM      5  N   UNL     1       2.368   2.282  19.304  0.00  0.00    +0.000 NA
ATOM      6  C   UNL     1       3.433   2.488  18.617  0.00  0.00    +0.000 C 
ATOM      7  N   UNL     1       4.185   1.334  18.248  0.00  0.00    +0.000 N 
ATOM      8  N   UNL     1       3.891   3.844  18.369  0.00  0.00    +0.000 N 
ATOM      9  H   UNL     1      -0.084   3.784  21.078  0.00  0.00    +0.000 HD
ATOM     10  H   UNL     1       0.172   2.052  20.772  0.00  0.00    +0.000 HD
ATOM     11  H   UNL     1       3.800   0.397  18.440  0.00  0.00    +0.000 HD
ATOM     12  H   UNL     1       5.160   1.376  17.934  0.00  0.00    +0.000 HD
ENDROOT
BRANCH   8  13
ATOM     13  C   UNL     1       5.059   4.132  17.554  0.00  0.00    +0.000 A 
ATOM     14  C   UNL     1       6.262   4.586  18.146  0.00  0.00    +0.000 A 
ATOM     15  C   UNL     1       7.387   4.867  17.370  0.00  0.00    +0.000 A 
ATOM     16  C   UNL     1       7.349   4.709  15.988  0.00  0.00    +0.000 A 
ATOM     17  C   UNL     1       6.170   4.278  15.361  0.00  0.00    +0.000 A 
ATOM     18  C   UNL     1       5.035   4.007  16.144  0.00  0.00    +0.000 A 
BRANCH  17  19
ATOM     19  C   UNL     1       6.096   4.095  13.865  0.00  0.00    +0.000 C 
ATOM     20  F   UNL     1       6.984   4.924  13.201  0.00  0.00    +0.000 F 
ATOM     21  F   UNL     1       6.403   2.783  13.552  0.00  0.00    +0.000 F 
ATOM     22  F   UNL     1       4.816   4.377  13.425  0.00  0.00    +0.000 F 
ENDBRANCH  17  19
ENDBRANCH   8  13
BRANCH   1  23
ATOM     23  C   UNL     1       2.641   5.937  17.859  0.00  0.00    +0.000 C 
BRANCH  23  25
ATOM     24  C   UNL     1       2.159   8.420  17.916  0.00  0.00    +0.000 C 
ATOM     25  C   UNL     1       3.238   7.346  18.011  0.00  0.00    +0.000 C 
ENDBRANCH  23  25
ENDBRANCH   1  23
TORSDOF 4
ENDMDL
MODEL 4
REMARK VINA RESULT:      -7.4      1.762      2.419
REMARK  Name = 
REMARK  5 active torsions:
REMARK  status: ('A' for Active; 'I' for Inactive)
REMARK    1  A    between atoms: C_1  and  C_2
REMARK    2  A    between atoms: C_2  and  C_3
REMARK    3  A    between atoms: C_3  and  C_4
REMARK    4  A    between atoms: N_11  and  C_12
REMARK    5  A    between atoms: C_16  and  C_17
REMARK                            x       y       z     vdW  Elec       q    Type
REMARK                         _______ _______ _______ _____ _____    ______ ____
ROOT
ATOM      1  C   UNL     1       2.757   4.870  19.708  0.00  0.00    +0.000 C 
ATOM      2  N   UNL     1       1.921   4.306  20.754  0.00  0.00    +0.000 NA
ATOM      3  C   UNL     1       2.101   3.156  21.289  0.00  0.00    +0.000 C 
ATOM      4  N   UNL     1       1.221   2.704  22.301  0.00  0.00    +0.000 N 
ATOM      5  N   UNL     1       3.201   2.357  20.915  0.00  0.00    +0.000 NA
ATOM      6  C   UNL     1       4.050   2.721  20.022  0.00  0.00    +0.000 C 
ATOM      7  N   UNL     1       5.199   1.893  19.862  0.00  0.00    +0.000 N 
ATOM      8  N   UNL     1       3.883   3.987  19.330  0.00  0.00    +0.000 N 
ATOM      9  H   UNL     1       0.428   3.288  22.604  0.00  0.00    +0.000 HD
ATOM     10  H   UNL     1       1.375   1.791  22.752  0.00  0.00    +0.000 HD
ATOM     11  H   UNL     1       5.253   0.998  20.371  0.00  0.00    +0.000 HD
ATOM     12  H   UNL     1       6.052   2.202  19.382  0.00  0.00    +0.000 HD
ENDROOT
BRANCH   8  13
ATOM     13  C   UNL     1       4.784   4.419  18.275  0.00  0.00    +0.000 A 
ATOM     14  C   UNL     1       4.834   3.734  17.038  0.00  0.00    +0.000 A 
ATOM     15  C   UNL     1       5.697   4.142  16.021  0.00  0.00    +0.000 A 
ATOM     16  C   UNL     1       6.536   5.237  16.204  0.00  0.00    +0.000 A 
ATOM     17  C   UNL     1       6.530   5.932  17.422  0.00  0.00    +0.000 A 
ATOM     18  C   UNL     1       5.667   5.512  18.449  0.00  0.00    +0.000 A 
BRANCH  17  19
ATOM     19  C   UNL     1       7.425   7.125  17.653  0.00  0.00    +0.000 C 
ATOM     20  F   UNL     1       8.287   6.922  18.718  0.00  0.00    +0.000 F 
ATOM     21  F   UNL     1       8.180   7.354  16.517  0.00  0.00    +0.000 F 
ATOM     22  F   UNL     1       6.654   8.241  17.916  0.00  0.00    +0.000 F 
ENDBRANCH  17  19
ENDBRANCH   8  13
BRANCH   1  23
ATOM     23  C   UNL     1       1.847   5.147  18.487  0.00  0.00    +0.000 C 
BRANCH  23  25
ATOM     24  C   UNL     1       2.508   7.526  19.041  0.00  0.00    +0.000 C 
ATOM     25  C   UNL     1       2.032   6.576  17.947  0.00  0.00    +0.000 C 
ENDBRANCH  23  25
ENDBRANCH   1  23
TORSDOF 4
ENDMDL
MODEL 5
REMARK VINA RESULT:      -7.4      1.798      2.393
REMARK  Name = 
REMARK  5 active torsions:
REMARK  status: ('A' for Active; 'I' for Inactive)
REMARK    1  A    between atoms: C_1  and  C_2
REMARK    2  A    between atoms: C_2  and  C_3
REMARK    3  A    between atoms: C_3  and  C_4
REMARK    4  A    between atoms: N_11  and  C_12
REMARK    5  A    between atoms: C_16  and  C_17
REMARK                            x       y       z     vdW  Elec       q    Type
REMARK                         _______ _______ _______ _____ _____    ______ ____
ROOT
ATOM      1  C   UNL     1       3.027   5.112  20.096  0.00  0.00    +0.000 C 
ATOM      2  N   UNL     1       2.237   4.483  21.141  0.00  0.00    +0.000 NA
ATOM      3  C   UNL     1       2.148   3.217  21.324  0.00  0.00    +0.000 C 
ATOM      4  N   UNL     1       1.346   2.713  22.374  0.00  0.00    +0.000 N 
ATOM      5  N   UNL     1       2.884   2.324  20.518  0.00  0.00    +0.000 NA
ATOM      6  C   UNL     1       3.649   2.720  19.565  0.00  0.00    +0.000 C 
ATOM      7  N   UNL     1       4.456   1.725  18.942  0.00  0.00    +0.000 N 
ATOM      8  N   UNL     1       3.761   4.136  19.260  0.00  0.00    +0.000 N 
ATOM      9  H   UNL     1       0.824   3.354  22.989  0.00  0.00    +0.000 HD
ATOM     10  H   UNL     1       1.289   1.698  22.541  0.00  0.00    +0.000 HD
ATOM     11  H   UNL     1       4.320   0.733  19.191  0.00  0.00    +0.000 HD
ATOM     12  H   UNL     1       5.274   1.946  18.364  0.00  0.00    +0.000 HD
ENDROOT
BRANCH   8  13
ATOM     13  C   UNL     1       4.570   4.631  18.159  0.00  0.00    +0.000 A 
ATOM     14  C   UNL     1       4.405   4.119  16.850  0.00  0.00    +0.000 A 
ATOM     15  C   UNL     1       5.178   4.588  15.788  0.00  0.00    +0.000 A 
ATOM     16  C   UNL     1       6.139   5.573  15.996  0.00  0.00    +0.000 A 
ATOM     17  C   UNL     1       6.346   6.094  17.282  0.00  0.00    +0.000 A 
ATOM     18  C   UNL     1       5.572   5.612  18.351  0.00  0.00    +0.000 A 
BRANCH  17  19
ATOM     19  C   UNL     1       7.377   7.165  17.541  0.00  0.00    +0.000 C 
ATOM     20  F   UNL     1       8.213   7.346  16.453  0.00  0.00    +0.000 F 
ATOM     21  F   UNL     1       6.735   8.361  17.805  0.00  0.00    +0.000 F 
ATOM     22  F   UNL     1       8.147   6.814  18.634  0.00  0.00    +0.000 F 
ENDBRANCH  17  19
ENDBRANCH   8  13
BRANCH   1  23
ATOM     23  C   UNL     1       2.059   5.954  19.229  0.00  0.00    +0.000 C 
BRANCH  23  25
ATOM     24  C   UNL     1       2.443   8.054  17.871  0.00  0.00    +0.000 C 
ATOM     25  C   UNL     1       2.407   7.452  19.272  0.00  0.00    +0.000 C 
ENDBRANCH  23  25
ENDBRANCH   1  23
TORSDOF 4
ENDMDL
MODEL 6
REMARK VINA RESULT:      -7.3      4.369      5.868
REMARK  Name = 
REMARK  5 active torsions:
REMARK  status: ('A' for Active; 'I' for Inactive)
REMARK    1  A    between atoms: C_1  and  C_2
REMARK    2  A    between atoms: C_2  and  C_3
REMARK    3  A    between atoms: C_3  and  C_4
REMARK    4  A    between atoms: N_11  and  C_12
REMARK    5  A    between atoms: C_16  and  C_17
REMARK                            x       y       z     vdW  Elec       q    Type
REMARK                         _______ _______ _______ _____ _____    ______ ____
ROOT
ATOM      1  C   UNL     1       2.563   4.013  20.308  0.00  0.00    +0.000 C 
ATOM      2  N   UNL     1       3.308   2.772  20.433  0.00  0.00    +0.000 NA
ATOM      3  C   UNL     1       4.507   2.597  20.013  0.00  0.00    +0.000 C 
ATOM      4  N   UNL     1       5.137   1.342  20.186  0.00  0.00    +0.000 N 
ATOM      5  N   UNL     1       5.222   3.661  19.426  0.00  0.00    +0.000 NA
ATOM      6  C   UNL     1       4.715   4.830  19.263  0.00  0.00    +0.000 C 
ATOM      7  N   UNL     1       5.602   5.850  18.810  0.00  0.00    +0.000 N 
ATOM      8  N   UNL     1       3.344   5.093  19.663  0.00  0.00    +0.000 N 
ATOM      9  H   UNL     1       4.636   0.563  20.638  0.00  0.00    +0.000 HD
ATOM     10  H   UNL     1       6.107   1.202  19.873  0.00  0.00    +0.000 HD
ATOM     11  H   UNL     1       6.561   5.598  18.527  0.00  0.00    +0.000 HD
ATOM     12  H   UNL     1       5.393   6.851  18.886  0.00  0.00    +0.000 HD
ENDROOT
BRANCH   8  13
ATOM     13  C   UNL     1       2.708   6.382  19.452  0.00  0.00    +0.000 A 
ATOM     14  C   UNL     1       2.750   7.013  18.186  0.00  0.00    +0.000 A 
ATOM     15  C   UNL     1       2.143   8.252  17.975  0.00  0.00    +0.000 A 
ATOM     16  C   UNL     1       1.481   8.898  19.015  0.00  0.00    +0.000 A 
ATOM     17  C   UNL     1       1.432   8.315  20.289  0.00  0.00    +0.000 A 
ATOM     18  C   UNL     1       2.054   7.073  20.500  0.00  0.00    +0.000 A 
BRANCH  17  19
ATOM     19  C   UNL     1       0.721   8.989  21.436  0.00  0.00    +0.000 C 
ATOM     20  F   UNL     1       1.525   9.077  22.559  0.00  0.00    +0.000 F 
ATOM     21  F   UNL     1       0.356  10.268  21.058  0.00  0.00    +0.000 F 
ATOM     22  F   UNL     1      -0.416   8.274  21.763  0.00  0.00    +0.000 F 
ENDBRANCH  17  19
ENDBRANCH   8  13
BRANCH   1  23
ATOM     23  C   UNL     1       1.284   3.705  19.493  0.00  0.00    +0.000 C 
BRANCH  23  25
ATOM     24  C   UNL     1       2.189   3.256  17.172  0.00  0.00    +0.000 C 
ATOM     25  C   UNL     1       1.537   2.643  18.408  0.00  0.00    +0.000 C 
ENDBRANCH  23  25
ENDBRANCH   1  23
TORSDOF 4
ENDMDL
MODEL 7
REMARK VINA RESULT:      -7.1      3.949      5.887
REMARK  Name = 
REMARK  5 active torsions:
REMARK  status: ('A' for Active; 'I' for Inactive)
REMARK    1  A    between atoms: C_1  and  C_2
REMARK    2  A    between atoms: C_2  and  C_3
REMARK    3  A    between atoms: C_3  and  C_4
REMARK    4  A    between atoms: N_11  and  C_12
REMARK    5  A    between atoms: C_16  and  C_17
REMARK                            x       y       z     vdW  Elec       q    Type
REMARK                         _______ _______ _______ _____ _____    ______ ____
ROOT
ATOM      1  C   UNL     1       4.062   6.672  17.420  0.00  0.00    +0.000 C 
ATOM      2  N   UNL     1       5.229   7.458  17.059  0.00  0.00    +0.000 NA
ATOM      3  C   UNL     1       6.442   7.097  17.263  0.00  0.00    +0.000 C 
ATOM      4  N   UNL     1       7.504   7.946  16.872  0.00  0.00    +0.000 N 
ATOM      5  N   UNL     1       6.729   5.838  17.827  0.00  0.00    +0.000 NA
ATOM      6  C   UNL     1       5.811   5.012  18.180  0.00  0.00    +0.000 C 
ATOM      7  N   UNL     1       6.243   3.714  18.582  0.00  0.00    +0.000 N 
ATOM      8  N   UNL     1       4.411   5.369  18.032  0.00  0.00    +0.000 N 
ATOM      9  H   UNL     1       7.311   8.859  16.433  0.00  0.00    +0.000 HD
ATOM     10  H   UNL     1       8.481   7.652  17.011  0.00  0.00    +0.000 HD
ATOM     11  H   UNL     1       7.252   3.525  18.682  0.00  0.00    +0.000 HD
ATOM     12  H   UNL     1       5.615   2.904  18.636  0.00  0.00    +0.000 HD
ENDROOT
BRANCH   8  13
ATOM     13  C   UNL     1       3.336   4.493  18.465  0.00  0.00    +0.000 A 
ATOM     14  C   UNL     1       2.393   3.988  17.539  0.00  0.00    +0.000 A 
ATOM     15  C   UNL     1       1.357   3.149  17.947  0.00  0.00    +0.000 A 
ATOM     16  C   UNL     1       1.225   2.791  19.285  0.00  0.00    +0.000 A 
ATOM     17  C   UNL     1       2.127   3.284  20.238  0.00  0.00    +0.000 A 
ATOM     18  C   UNL     1       3.163   4.139  19.825  0.00  0.00    +0.000 A 
BRANCH  17  19
ATOM     19  C   UNL     1       2.013   2.913  21.696  0.00  0.00    +0.000 C 
ATOM     20  F   UNL     1       0.755   2.424  22.005  0.00  0.00    +0.000 F 
ATOM     21  F   UNL     1       2.948   1.938  21.993  0.00  0.00    +0.000 F 
ATOM     22  F   UNL     1       2.258   4.026  22.480  0.00  0.00    +0.000 F 
ENDBRANCH  17  19
ENDBRANCH   8  13
BRANCH   1  23
ATOM     23  C   UNL     1       3.214   7.523  18.396  0.00  0.00    +0.000 C 
BRANCH  23  25
ATOM     24  C   UNL     1       1.926   9.628  17.836  0.00  0.00    +0.000 C 
ATOM     25  C   UNL     1       1.967   8.108  17.711  0.00  0.00    +0.000 C 
ENDBRANCH  23  25
ENDBRANCH   1  23
TORSDOF 4
ENDMDL
MODEL 8
REMARK VINA RESULT:      -7.0      4.458      6.203
REMARK  Name = 
REMARK  5 active torsions:
REMARK  status: ('A' for Active; 'I' for Inactive)
REMARK    1  A    between atoms: C_1  and  C_2
REMARK    2  A    between atoms: C_2  and  C_3
REMARK    3  A    between atoms: C_3  and  C_4
REMARK    4  A    between atoms: N_11  and  C_12
REMARK    5  A    between atoms: C_16  and  C_17
REMARK                            x       y       z     vdW  Elec       q    Type
REMARK                         _______ _______ _______ _____ _____    ______ ____
ROOT
ATOM      1  C   UNL     1       2.599   4.582  20.522  0.00  0.00    +0.000 C 
ATOM      2  N   UNL     1       3.345   3.335  20.540  0.00  0.00    +0.000 NA
ATOM      3  C   UNL     1       4.356   3.081  19.795  0.00  0.00    +0.000 C 
ATOM      4  N   UNL     1       5.007   1.829  19.895  0.00  0.00    +0.000 N 
ATOM      5  N   UNL     1       4.858   4.058  18.911  0.00  0.00    +0.000 NA
ATOM      6  C   UNL     1       4.327   5.222  18.791  0.00  0.00    +0.000 C 
ATOM      7  N   UNL     1       5.032   6.163  17.985  0.00  0.00    +0.000 N 
ATOM      8  N   UNL     1       3.145   5.568  19.561  0.00  0.00    +0.000 N 
ATOM      9  H   UNL     1       4.669   1.114  20.557  0.00  0.00    +0.000 HD
ATOM     10  H   UNL     1       5.834   1.627  19.316  0.00  0.00    +0.000 HD
ATOM     11  H   UNL     1       5.858   5.853  17.450  0.00  0.00    +0.000 HD
ATOM     12  H   UNL     1       4.858   7.173  18.019  0.00  0.00    +0.000 HD
ENDROOT
BRANCH   8  13
ATOM     13  C   UNL     1       2.476   6.850  19.423  0.00  0.00    +0.000 A 
ATOM     14  C   UNL     1       2.439   7.518  18.176  0.00  0.00    +0.000 A 
ATOM     15  C   UNL     1       1.800   8.750  18.035  0.00  0.00    +0.000 A 
ATOM     16  C   UNL     1       1.185   9.354  19.128  0.00  0.00    +0.000 A 
ATOM     17  C   UNL     1       1.215   8.734  20.385  0.00  0.00    +0.000 A 
ATOM     18  C   UNL     1       1.869   7.498  20.525  0.00  0.00    +0.000 A 
BRANCH  17  19
ATOM     19  C   UNL     1       0.556   9.362  21.589  0.00  0.00    +0.000 C 
ATOM     20  F   UNL     1      -0.592   8.682  21.959  0.00  0.00    +0.000 F 
ATOM     21  F   UNL     1       1.439   9.342  22.653  0.00  0.00    +0.000 F 
ATOM     22  F   UNL     1       0.220  10.672  21.304  0.00  0.00    +0.000 F 
ENDBRANCH  17  19
ENDBRANCH   8  13
BRANCH   1  23
ATOM     23  C   UNL     1       1.131   4.237  20.173  0.00  0.00    +0.000 C 
BRANCH  23  25
ATOM     24  C   UNL     1       0.703   2.277  18.631  0.00  0.00    +0.000 C 
ATOM     25  C   UNL     1       0.906   2.719  20.077  0.00  0.00    +0.000 C 
ENDBRANCH  23  25
ENDBRANCH   1  23
TORSDOF 4
ENDMDL
MODEL 9
REMARK VINA RESULT:      -7.0      4.099      5.856
REMARK  Name = 
REMARK  5 active torsions:
REMARK  status: ('A' for Active; 'I' for Inactive)
REMARK    1  A    between atoms: C_1  and  C_2
REMARK    2  A    between atoms: C_2  and  C_3
REMARK    3  A    between atoms: C_3  and  C_4
REMARK    4  A    between atoms: N_11  and  C_12
REMARK    5  A    between atoms: C_16  and  C_17
REMARK                            x       y       z     vdW  Elec       q    Type
REMARK                         _______ _______ _______ _____ _____    ______ ____
ROOT
ATOM      1  C   UNL     1       4.612   4.805  18.812  0.00  0.00    +0.000 C 
ATOM      2  N   UNL     1       5.101   3.464  19.087  0.00  0.00    +0.000 NA
ATOM      3  C   UNL     1       4.491   2.601  19.811  0.00  0.00    +0.000 C 
ATOM      4  N   UNL     1       5.062   1.323  20.014  0.00  0.00    +0.000 N 
ATOM      5  N   UNL     1       3.228   2.896  20.365  0.00  0.00    +0.000 NA
ATOM      6  C   UNL     1       2.646   4.028  20.198  0.00  0.00    +0.000 C 
ATOM      7  N   UNL     1       1.306   4.131  20.675  0.00  0.00    +0.000 N 
ATOM      8  N   UNL     1       3.297   5.078  19.435  0.00  0.00    +0.000 N 
ATOM      9  H   UNL     1       5.971   1.082  19.592  0.00  0.00    +0.000 HD
ATOM     10  H   UNL     1       4.565   0.616  20.575  0.00  0.00    +0.000 HD
ATOM     11  H   UNL     1       0.903   3.356  21.223  0.00  0.00    +0.000 HD
ATOM     12  H   UNL     1       0.660   4.871  20.380  0.00  0.00    +0.000 HD
ENDROOT
BRANCH   8  13
ATOM     13  C   UNL     1       2.705   6.393  19.261  0.00  0.00    +0.000 A 
ATOM     14  C   UNL     1       2.750   7.049  18.008  0.00  0.00    +0.000 A 
ATOM     15  C   UNL     1       2.185   8.313  17.833  0.00  0.00    +0.000 A 
ATOM     16  C   UNL     1       1.565   8.962  18.897  0.00  0.00    +0.000 A 
ATOM     17  C   UNL     1       1.515   8.354  20.160  0.00  0.00    +0.000 A 
ATOM     18  C   UNL     1       2.095   7.085  20.335  0.00  0.00    +0.000 A 
BRANCH  17  19
ATOM     19  C   UNL     1       0.849   9.029  21.333  0.00  0.00    +0.000 C 
ATOM     20  F   UNL     1       1.534   8.802  22.514  0.00  0.00    +0.000 F 
ATOM     21  F   UNL     1       0.802  10.393  21.108  0.00  0.00    +0.000 F 
ATOM     22  F   UNL     1      -0.441   8.551  21.473  0.00  0.00    +0.000 F 
ENDBRANCH  17  19
ENDBRANCH   8  13
BRANCH   1  23
ATOM     23  C   UNL     1       5.678   5.801  19.328  0.00  0.00    +0.000 C 
BRANCH  23  25
ATOM     24  C   UNL     1       7.477   6.698  17.790  0.00  0.00    +0.000 C 
ATOM     25  C   UNL     1       7.057   5.544  18.695  0.00  0.00    +0.000 C 
ENDBRANCH  23  25
ENDBRANCH   1  23
TORSDOF 4
ENDMDL
