MODEL 1
REMARK VINA RESULT:      -7.5      0.000      0.000
REMARK  Name = 
REMARK  8 active torsions:
REMARK  status: ('A' for Active; 'I' for Inactive)
REMARK    1  A    between atoms: C_1  and  C_2
REMARK    2  A    between atoms: N_4  and  C_5
REMARK    3  A    between atoms: C_8  and  S_9
REMARK    4  A    between atoms: S_9  and  N_12
REMARK    5  A    between atoms: N_12  and  C_13
REMARK    6  A    between atoms: C_13  and  C_14
REMARK    7  A    between atoms: N_22  and  C_23
REMARK    8  A    between atoms: N_26  and  C_27
REMARK                            x       y       z     vdW  Elec       q    Type
REMARK                         _______ _______ _______ _____ _____    ______ ____
ROOT
ATOM      1  C   UNL     1      -0.009  13.074  19.950  0.00  0.00    +0.000 C 
ATOM      2  C   UNL     1      -0.269  13.424  21.413  0.00  0.00    +0.000 C 
ATOM      3  O   UNL     1       0.670  13.564  22.207  0.00  0.00    +0.000 OA
ATOM      4  N   UNL     1      -1.586  13.567  21.813  0.00  0.00    +0.000 N 
ATOM      5  C   UNL     1      -1.839  14.031  23.167  0.00  0.00    +0.000 C 
ATOM      6  C   UNL     1      -2.692  13.131  21.102  0.00  0.00    +0.000 C 
ATOM      7  O   UNL     1      -3.826  13.191  21.596  0.00  0.00    +0.000 OA
ATOM      8  N   UNL     1      -2.475  12.646  19.828  0.00  0.00    +0.000 N 
ATOM      9  C   UNL     1      -3.606  12.102  19.093  0.00  0.00    +0.000 C 
ATOM     10  C   UNL     1      -1.263  12.670  19.154  0.00  0.00    +0.000 C 
ATOM     11  O   UNL     1      -1.183  12.393  17.950  0.00  0.00    +0.000 OA
ENDROOT
BRANCH   1  12
ATOM     12  C   UNL     1       0.654  14.307  19.264  0.00  0.00    +0.000 A 
ATOM     13  C   UNL     1       1.972  14.246  18.756  0.00  0.00    +0.000 A 
ATOM     14  C   UNL     1       2.603  15.380  18.235  0.00  0.00    +0.000 A 
ATOM     15  C   UNL     1       1.922  16.589  18.164  0.00  0.00    +0.000 A 
ATOM     16  C   UNL     1       0.598  16.657  18.590  0.00  0.00    +0.000 A 
ATOM     17  C   UNL     1      -0.033  15.529  19.130  0.00  0.00    +0.000 A 
ENDBRANCH   1  12
BRANCH   1  18
ATOM     18  N   UNL     1       0.930  11.884  19.916  0.00  0.00    +0.000 NA
ATOM     19  H   UNL     1       1.277  11.663  18.980  0.00  0.00    +0.000 HD
BRANCH  18  20
ATOM     20  S   UNL     1       0.533  10.474  20.747  0.00  0.00    +0.000 S 
ATOM     21  O   UNL     1      -0.901  10.327  20.636  0.00  0.00    +0.000 OA
ATOM     22  O   UNL     1       1.180  10.532  22.034  0.00  0.00    +0.000 OA
BRANCH  20  26
ATOM     23  C   UNL     1       2.580   6.993  18.601  0.00  0.00    +0.000 A 
ATOM     24  C   UNL     1       2.244   6.936  19.953  0.00  0.00    +0.000 A 
ATOM     25  C   UNL     1       1.583   7.989  20.568  0.00  0.00    +0.000 A 
ATOM     26  C   UNL     1       1.268   9.138  19.844  0.00  0.00    +0.000 A 
ATOM     27  C   UNL     1       1.563   9.214  18.480  0.00  0.00    +0.000 A 
ATOM     28  C   UNL     1       2.239   8.141  17.864  0.00  0.00    +0.000 A 
BRANCH  23  32
ATOM     29  C   UNL     1       3.727   3.727  17.100  0.00  0.00    +0.000 C 
ATOM     30  C   UNL     1       2.724   4.699  17.653  0.00  0.00    +0.000 C 
ATOM     31  O   UNL     1       1.551   4.359  17.772  0.00  0.00    +0.000 OA
ATOM     32  N   UNL     1       3.276   5.932  17.977  0.00  0.00    +0.000 N 
ATOM     33  H   UNL     1       4.226   6.117  17.680  0.00  0.00    +0.000 HD
ENDBRANCH  23  32
ENDBRANCH  20  26
ENDBRANCH  18  20
ENDBRANCH   1  18
TORSDOF 5
ENDMDL
MODEL 2
REMARK VINA RESULT:      -7.4      1.310      3.799
REMARK  Name = 
REMARK  8 active torsions:
REMARK  status: ('A' for Active; 'I' for Inactive)
REMARK    1  A    between atoms: C_1  and  C_2
REMARK    2  A    between atoms: N_4  and  C_5
REMARK    3  A    between atoms: C_8  and  S_9
REMARK    4  A    between atoms: S_9  and  N_12
REMARK    5  A    between atoms: N_12  and  C_13
REMARK    6  A    between atoms: C_13  and  C_14
REMARK    7  A    between atoms: N_22  and  C_23
REMARK    8  A    between atoms: N_26  and  C_27
REMARK                            x       y       z     vdW  Elec       q    Type
REMARK                         _______ _______ _______ _____ _____    ______ ____
ROOT
ATOM      1  C   UNL     1      -1.753  12.214  19.933  0.00  0.00    +0.000 C 
ATOM      2  C   UNL     1      -0.977  13.227  19.096  0.00  0.00    +0.000 C 
ATOM      3  O   UNL     1      -0.664  12.975  17.926  0.00  0.00    +0.000 OA
ATOM      4  N   UNL     1      -0.634  14.426  19.698  0.00  0.00    +0.000 N 
ATOM      5  C   UNL     1      -0.015  15.449  18.871  0.00  0.00    +0.000 C 
ATOM      6  C   UNL     1      -0.655  14.675  21.060  0.00  0.00    +0.000 C 
ATOM      7  O   UNL     1      -0.212  15.736  21.517  0.00  0.00    +0.000 OA
ATOM      8  N   UNL     1      -1.199  13.701  21.873  0.00  0.00    +0.000 N 
ATOM      9  C   UNL     1      -1.155  13.898  23.313  0.00  0.00    +0.000 C 
ATOM     10  C   UNL     1      -1.835  12.549  21.433  0.00  0.00    +0.000 C 
ATOM     11  O   UNL     1      -2.464  11.817  22.209  0.00  0.00    +0.000 OA
ENDROOT
BRANCH   1  12
ATOM     12  C   UNL     1      -3.197  12.107  19.355  0.00  0.00    +0.000 A 
ATOM     13  C   UNL     1      -3.488  11.273  18.252  0.00  0.00    +0.000 A 
ATOM     14  C   UNL     1      -4.759  11.257  17.669  0.00  0.00    +0.000 A 
ATOM     15  C   UNL     1      -5.782  12.032  18.200  0.00  0.00    +0.000 A 
ATOM     16  C   UNL     1      -5.540  12.805  19.332  0.00  0.00    +0.000 A 
ATOM     17  C   UNL     1      -4.264  12.840  19.909  0.00  0.00    +0.000 A 
ENDBRANCH   1  12
BRANCH   1  18
ATOM     18  N   UNL     1      -1.042  10.879  19.825  0.00  0.00    +0.000 NA
ATOM     19  H   UNL     1      -1.650  10.075  19.995  0.00  0.00    +0.000 HD
BRANCH  18  20
ATOM     20  S   UNL     1       0.452  10.659  20.569  0.00  0.00    +0.000 S 
ATOM     21  O   UNL     1       0.174  10.235  21.922  0.00  0.00    +0.000 OA
ATOM     22  O   UNL     1       1.248  11.831  20.302  0.00  0.00    +0.000 OA
BRANCH  20  26
ATOM     23  C   UNL     1       2.587   7.110  18.628  0.00  0.00    +0.000 A 
ATOM     24  C   UNL     1       2.177   7.089  19.959  0.00  0.00    +0.000 A 
ATOM     25  C   UNL     1       1.491   8.162  20.511  0.00  0.00    +0.000 A 
ATOM     26  C   UNL     1       1.226   9.294  19.742  0.00  0.00    +0.000 A 
ATOM     27  C   UNL     1       1.597   9.334  18.395  0.00  0.00    +0.000 A 
ATOM     28  C   UNL     1       2.297   8.241  17.844  0.00  0.00    +0.000 A 
BRANCH  23  32
ATOM     29  C   UNL     1       3.782   3.805  17.256  0.00  0.00    +0.000 C 
ATOM     30  C   UNL     1       2.759   4.801  17.722  0.00  0.00    +0.000 C 
ATOM     31  O   UNL     1       1.575   4.482  17.759  0.00  0.00    +0.000 OA
ATOM     32  N   UNL     1       3.308   6.029  18.070  0.00  0.00    +0.000 N 
ATOM     33  H   UNL     1       4.280   6.194  17.841  0.00  0.00    +0.000 HD
ENDBRANCH  23  32
ENDBRANCH  20  26
ENDBRANCH  18  20
ENDBRANCH   1  18
TORSDOF 5
ENDMDL
MODEL 3
REMARK VINA RESULT:      -7.4      0.988      1.314
REMARK  Name = 
REMARK  8 active torsions:
REMARK  status: ('A' for Active; 'I' for Inactive)
REMARK    1  A    between atoms: C_1  and  C_2
REMARK    2  A    between atoms: N_4  and  C_5
REMARK    3  A    between atoms: C_8  and  S_9
REMARK    4  A    between atoms: S_9  and  N_12
REMARK    5  A    between atoms: N_12  and  C_13
REMARK    6  A    between atoms: C_13  and  C_14
REMARK    7  A    between atoms: N_22  and  C_23
REMARK    8  A    between atoms: N_26  and  C_27
REMARK                            x       y       z     vdW  Elec       q    Type
REMARK                         _______ _______ _______ _____ _____    ______ ____
ROOT
ATOM      1  C   UNL     1       0.011  12.902  19.904  0.00  0.00    +0.000 C 
ATOM      2  C   UNL     1      -0.260  13.216  21.373  0.00  0.00    +0.000 C 
ATOM      3  O   UNL     1       0.672  13.324  22.180  0.00  0.00    +0.000 OA
ATOM      4  N   UNL     1      -1.579  13.367  21.763  0.00  0.00    +0.000 N 
ATOM      5  C   UNL     1      -1.841  13.798  23.126  0.00  0.00    +0.000 C 
ATOM      6  C   UNL     1      -2.684  12.965  21.029  0.00  0.00    +0.000 C 
ATOM      7  O   UNL     1      -3.821  13.026  21.512  0.00  0.00    +0.000 OA
ATOM      8  N   UNL     1      -2.459  12.510  19.745  0.00  0.00    +0.000 N 
ATOM      9  C   UNL     1      -3.589  12.000  18.984  0.00  0.00    +0.000 C 
ATOM     10  C   UNL     1      -1.239  12.535  19.085  0.00  0.00    +0.000 C 
ATOM     11  O   UNL     1      -1.149  12.289  17.874  0.00  0.00    +0.000 OA
ENDROOT
BRANCH   1  12
ATOM     12  C   UNL     1       0.698  14.144  19.258  0.00  0.00    +0.000 A 
ATOM     13  C   UNL     1       2.015  14.075  18.751  0.00  0.00    +0.000 A 
ATOM     14  C   UNL     1       2.668  15.213  18.266  0.00  0.00    +0.000 A 
ATOM     15  C   UNL     1       2.008  16.435  18.231  0.00  0.00    +0.000 A 
ATOM     16  C   UNL     1       0.684  16.514  18.656  0.00  0.00    +0.000 A 
ATOM     17  C   UNL     1       0.032  15.381  19.159  0.00  0.00    +0.000 A 
ENDBRANCH   1  12
BRANCH   1  18
ATOM     18  N   UNL     1       0.935  11.701  19.848  0.00  0.00    +0.000 NA
ATOM     19  H   UNL     1       1.289  11.499  18.911  0.00  0.00    +0.000 HD
BRANCH  18  20
ATOM     20  S   UNL     1       0.511  10.276  20.639  0.00  0.00    +0.000 S 
ATOM     21  O   UNL     1      -0.893  10.062  20.369  0.00  0.00    +0.000 OA
ATOM     22  O   UNL     1       1.006  10.365  21.990  0.00  0.00    +0.000 OA
BRANCH  20  26
ATOM     23  C   UNL     1       2.670   6.942  18.370  0.00  0.00    +0.000 A 
ATOM     24  C   UNL     1       2.315   8.144  17.761  0.00  0.00    +0.000 A 
ATOM     25  C   UNL     1       1.701   9.157  18.484  0.00  0.00    +0.000 A 
ATOM     26  C   UNL     1       1.403   8.973  19.833  0.00  0.00    +0.000 A 
ATOM     27  C   UNL     1       1.774   7.791  20.481  0.00  0.00    +0.000 A 
ATOM     28  C   UNL     1       2.394   6.766  19.738  0.00  0.00    +0.000 A 
BRANCH  23  32
ATOM     29  C   UNL     1       4.937   4.695  16.360  0.00  0.00    +0.000 C 
ATOM     30  C   UNL     1       4.602   5.875  17.227  0.00  0.00    +0.000 C 
ATOM     31  O   UNL     1       5.476   6.688  17.508  0.00  0.00    +0.000 OA
ATOM     32  N   UNL     1       3.273   5.899  17.631  0.00  0.00    +0.000 N 
ATOM     33  H   UNL     1       2.708   5.079  17.448  0.00  0.00    +0.000 HD
ENDBRANCH  23  32
ENDBRANCH  20  26
ENDBRANCH  18  20
ENDBRANCH   1  18
TORSDOF 5
ENDMDL
MODEL 4
REMARK VINA RESULT:      -7.2      1.570      4.092
REMARK  Name = 
REMARK  8 active torsions:
REMARK  status: ('A' for Active; 'I' for Inactive)
REMARK    1  A    between atoms: C_1  and  C_2
REMARK    2  A    between atoms: N_4  and  C_5
REMARK    3  A    between atoms: C_8  and  S_9
REMARK    4  A    between atoms: S_9  and  N_12
REMARK    5  A    between atoms: N_12  and  C_13
REMARK    6  A    between atoms: C_13  and  C_14
REMARK    7  A    between atoms: N_22  and  C_23
REMARK    8  A    between atoms: N_26  and  C_27
REMARK                            x       y       z     vdW  Elec       q    Type
REMARK                         _______ _______ _______ _____ _____    ______ ____
ROOT
ATOM      1  C   UNL     1      -1.649  12.211  19.905  0.00  0.00    +0.000 C 
ATOM      2  C   UNL     1      -0.940  13.243  19.032  0.00  0.00    +0.000 C 
ATOM      3  O   UNL     1      -0.637  12.982  17.861  0.00  0.00    +0.000 OA
ATOM      4  N   UNL     1      -0.645  14.470  19.602  0.00  0.00    +0.000 N 
ATOM      5  C   UNL     1      -0.094  15.504  18.742  0.00  0.00    +0.000 C 
ATOM      6  C   UNL     1      -0.653  14.747  20.959  0.00  0.00    +0.000 C 
ATOM      7  O   UNL     1      -0.254  15.838  21.385  0.00  0.00    +0.000 OA
ATOM      8  N   UNL     1      -1.132  13.764  21.802  0.00  0.00    +0.000 N 
ATOM      9  C   UNL     1      -1.071  13.994  23.237  0.00  0.00    +0.000 C 
ATOM     10  C   UNL     1      -1.719  12.574  21.399  0.00  0.00    +0.000 C 
ATOM     11  O   UNL     1      -2.296  11.828  22.202  0.00  0.00    +0.000 OA
ENDROOT
BRANCH   1  12
ATOM     12  C   UNL     1      -3.097  12.021  19.358  0.00  0.00    +0.000 A 
ATOM     13  C   UNL     1      -4.183  12.760  19.880  0.00  0.00    +0.000 A 
ATOM     14  C   UNL     1      -5.495  12.515  19.463  0.00  0.00    +0.000 A 
ATOM     15  C   UNL     1      -5.751  11.565  18.481  0.00  0.00    +0.000 A 
ATOM     16  C   UNL     1      -4.690  10.877  17.898  0.00  0.00    +0.000 A 
ATOM     17  C   UNL     1      -3.376  11.105  18.326  0.00  0.00    +0.000 A 
ENDBRANCH   1  12
BRANCH   1  18
ATOM     18  N   UNL     1      -0.875  10.911  19.809  0.00  0.00    +0.000 NA
ATOM     19  H   UNL     1      -1.425  10.087  20.059  0.00  0.00    +0.000 HD
BRANCH  18  20
ATOM     20  S   UNL     1       0.676  10.805  20.457  0.00  0.00    +0.000 S 
ATOM     21  O   UNL     1       0.510  10.607  21.879  0.00  0.00    +0.000 OA
ATOM     22  O   UNL     1       1.439  11.914  19.941  0.00  0.00    +0.000 OA
BRANCH  20  26
ATOM     23  C   UNL     1       2.380   7.001  18.574  0.00  0.00    +0.000 A 
ATOM     24  C   UNL     1       2.179   8.166  17.837  0.00  0.00    +0.000 A 
ATOM     25  C   UNL     1       1.703   9.320  18.444  0.00  0.00    +0.000 A 
ATOM     26  C   UNL     1       1.391   9.321  19.802  0.00  0.00    +0.000 A 
ATOM     27  C   UNL     1       1.610   8.177  20.575  0.00  0.00    +0.000 A 
ATOM     28  C   UNL     1       2.090   7.008  19.950  0.00  0.00    +0.000 A 
BRANCH  23  32
ATOM     29  C   UNL     1       4.349   4.257  16.893  0.00  0.00    +0.000 C 
ATOM     30  C   UNL     1       4.168   5.543  17.648  0.00  0.00    +0.000 C 
ATOM     31  O   UNL     1       5.149   6.223  17.932  0.00  0.00    +0.000 OA
ATOM     32  N   UNL     1       2.841   5.817  17.955  0.00  0.00    +0.000 N 
ATOM     33  H   UNL     1       2.157   5.087  17.791  0.00  0.00    +0.000 HD
ENDBRANCH  23  32
ENDBRANCH  20  26
ENDBRANCH  18  20
ENDBRANCH   1  18
TORSDOF 5
ENDMDL
MODEL 5
REMARK VINA RESULT:      -7.2      0.226      1.240
REMARK  Name = 
REMARK  8 active torsions:
REMARK  status: ('A' for Active; 'I' for Inactive)
REMARK    1  A    between atoms: C_1  and  C_2
REMARK    2  A    between atoms: N_4  and  C_5
REMARK    3  A    between atoms: C_8  and  S_9
REMARK    4  A    between atoms: S_9  and  N_12
REMARK    5  A    between atoms: N_12  and  C_13
REMARK    6  A    between atoms: C_13  and  C_14
REMARK    7  A    between atoms: N_22  and  C_23
REMARK    8  A    between atoms: N_26  and  C_27
REMARK                            x       y       z     vdW  Elec       q    Type
REMARK                         _______ _______ _______ _____ _____    ______ ____
ROOT
ATOM      1  C   UNL     1       0.039  12.937  20.003  0.00  0.00    +0.000 C 
ATOM      2  C   UNL     1      -0.287  13.278  21.455  0.00  0.00    +0.000 C 
ATOM      3  O   UNL     1       0.611  13.371  22.301  0.00  0.00    +0.000 OA
ATOM      4  N   UNL     1      -1.618  13.468  21.784  0.00  0.00    +0.000 N 
ATOM      5  C   UNL     1      -1.927  13.925  23.129  0.00  0.00    +0.000 C 
ATOM      6  C   UNL     1      -2.700  13.087  21.007  0.00  0.00    +0.000 C 
ATOM      7  O   UNL     1      -3.855  13.185  21.439  0.00  0.00    +0.000 OA
ATOM      8  N   UNL     1      -2.431  12.609  19.740  0.00  0.00    +0.000 N 
ATOM      9  C   UNL     1      -3.540  12.120  18.937  0.00  0.00    +0.000 C 
ATOM     10  C   UNL     1      -1.184  12.593  19.134  0.00  0.00    +0.000 C 
ATOM     11  O   UNL     1      -1.048  12.329  17.932  0.00  0.00    +0.000 OA
ENDROOT
BRANCH   1  12
ATOM     12  C   UNL     1       0.787  14.151  19.373  0.00  0.00    +0.000 A 
ATOM     13  C   UNL     1       0.241  15.454  19.416  0.00  0.00    +0.000 A 
ATOM     14  C   UNL     1       0.861  16.523  18.761  0.00  0.00    +0.000 A 
ATOM     15  C   UNL     1       2.063  16.331  18.090  0.00  0.00    +0.000 A 
ATOM     16  C   UNL     1       2.658  15.072  18.097  0.00  0.00    +0.000 A 
ATOM     17  C   UNL     1       2.033  13.994  18.735  0.00  0.00    +0.000 A 
ENDBRANCH   1  12
BRANCH   1  18
ATOM     18  N   UNL     1       0.931  11.710  20.002  0.00  0.00    +0.000 NA
ATOM     19  H   UNL     1       1.329  11.493  19.086  0.00  0.00    +0.000 HD
BRANCH  18  20
ATOM     20  S   UNL     1       0.427  10.303  20.777  0.00  0.00    +0.000 S 
ATOM     21  O   UNL     1      -0.962  10.119  20.422  0.00  0.00    +0.000 OA
ATOM     22  O   UNL     1       0.840  10.393  22.155  0.00  0.00    +0.000 OA
BRANCH  20  26
ATOM     23  C   UNL     1       2.645   6.903  18.669  0.00  0.00    +0.000 A 
ATOM     24  C   UNL     1       2.366   8.111  18.034  0.00  0.00    +0.000 A 
ATOM     25  C   UNL     1       1.731   9.143  18.711  0.00  0.00    +0.000 A 
ATOM     26  C   UNL     1       1.337   8.973  20.037  0.00  0.00    +0.000 A 
ATOM     27  C   UNL     1       1.629   7.784  20.712  0.00  0.00    +0.000 A 
ATOM     28  C   UNL     1       2.271   6.740  20.015  0.00  0.00    +0.000 A 
BRANCH  23  32
ATOM     29  C   UNL     1       3.619   3.636  17.054  0.00  0.00    +0.000 C 
ATOM     30  C   UNL     1       2.682   4.610  17.709  0.00  0.00    +0.000 C 
ATOM     31  O   UNL     1       1.526   4.274  17.947  0.00  0.00    +0.000 OA
ATOM     32  N   UNL     1       3.269   5.841  17.976  0.00  0.00    +0.000 N 
ATOM     33  H   UNL     1       4.185   6.023  17.583  0.00  0.00    +0.000 HD
ENDBRANCH  23  32
ENDBRANCH  20  26
ENDBRANCH  18  20
ENDBRANCH   1  18
TORSDOF 5
ENDMDL
MODEL 6
REMARK VINA RESULT:      -6.9      1.907      3.891
REMARK  Name = 
REMARK  8 active torsions:
REMARK  status: ('A' for Active; 'I' for Inactive)
REMARK    1  A    between atoms: C_1  and  C_2
REMARK    2  A    between atoms: N_4  and  C_5
REMARK    3  A    between atoms: C_8  and  S_9
REMARK    4  A    between atoms: S_9  and  N_12
REMARK    5  A    between atoms: N_12  and  C_13
REMARK    6  A    between atoms: C_13  and  C_14
REMARK    7  A    between atoms: N_22  and  C_23
REMARK    8  A    between atoms: N_26  and  C_27
REMARK                            x       y       z     vdW  Elec       q    Type
REMARK                         _______ _______ _______ _____ _____    ______ ____
ROOT
ATOM      1  C   UNL     1      -0.923  11.377  18.946  0.00  0.00    +0.000 C 
ATOM      2  C   UNL     1      -0.513  12.846  19.024  0.00  0.00    +0.000 C 
ATOM      3  O   UNL     1      -0.246  13.485  17.999  0.00  0.00    +0.000 OA
ATOM      4  N   UNL     1      -0.444  13.424  20.280  0.00  0.00    +0.000 N 
ATOM      5  C   UNL     1      -0.187  14.853  20.356  0.00  0.00    +0.000 C 
ATOM      6  C   UNL     1      -0.414  12.735  21.481  0.00  0.00    +0.000 C 
ATOM      7  O   UNL     1      -0.226  13.332  22.549  0.00  0.00    +0.000 OA
ATOM      8  N   UNL     1      -0.613  11.370  21.432  0.00  0.00    +0.000 N 
ATOM      9  C   UNL     1      -0.499  10.610  22.667  0.00  0.00    +0.000 C 
ATOM     10  C   UNL     1      -0.962  10.648  20.300  0.00  0.00    +0.000 C 
ATOM     11  O   UNL     1      -1.309   9.461  20.368  0.00  0.00    +0.000 OA
ENDROOT
BRANCH   1  12
ATOM     12  C   UNL     1      -2.333  11.299  18.285  0.00  0.00    +0.000 A 
ATOM     13  C   UNL     1      -2.531  10.641  17.050  0.00  0.00    +0.000 A 
ATOM     14  C   UNL     1      -3.773  10.660  16.407  0.00  0.00    +0.000 A 
ATOM     15  C   UNL     1      -4.858  11.294  17.001  0.00  0.00    +0.000 A 
ATOM     16  C   UNL     1      -4.707  11.886  18.252  0.00  0.00    +0.000 A 
ATOM     17  C   UNL     1      -3.461  11.885  18.892  0.00  0.00    +0.000 A 
ENDBRANCH   1  12
BRANCH   1  18
ATOM     18  N   UNL     1       0.100  10.653  18.092  0.00  0.00    +0.000 NA
ATOM     19  H   UNL     1      -0.218   9.743  17.754  0.00  0.00    +0.000 HD
BRANCH  18  20
ATOM     20  S   UNL     1       1.706  10.571  18.591  0.00  0.00    +0.000 S 
ATOM     21  O   UNL     1       1.758  11.187  19.898  0.00  0.00    +0.000 OA
ATOM     22  O   UNL     1       2.524  11.052  17.506  0.00  0.00    +0.000 OA
BRANCH  20  26
ATOM     23  C   UNL     1       2.575   6.093  18.929  0.00  0.00    +0.000 A 
ATOM     24  C   UNL     1       2.895   6.826  17.788  0.00  0.00    +0.000 A 
ATOM     25  C   UNL     1       2.662   8.193  17.729  0.00  0.00    +0.000 A 
ATOM     26  C   UNL     1       2.074   8.851  18.808  0.00  0.00    +0.000 A 
ATOM     27  C   UNL     1       1.769   8.150  19.978  0.00  0.00    +0.000 A 
ATOM     28  C   UNL     1       2.005   6.761  20.028  0.00  0.00    +0.000 A 
BRANCH  23  32
ATOM     29  C   UNL     1       2.426   2.336  18.619  0.00  0.00    +0.000 C 
ATOM     30  C   UNL     1       2.049   3.751  18.283  0.00  0.00    +0.000 C 
ATOM     31  O   UNL     1       1.167   3.964  17.457  0.00  0.00    +0.000 OA
ATOM     32  N   UNL     1       2.788   4.697  18.983  0.00  0.00    +0.000 N 
ATOM     33  H   UNL     1       3.586   4.374  19.515  0.00  0.00    +0.000 HD
ENDBRANCH  23  32
ENDBRANCH  20  26
ENDBRANCH  18  20
ENDBRANCH   1  18
TORSDOF 5
ENDMDL
MODEL 7
REMARK VINA RESULT:      -6.9      1.635      2.108
REMARK  Name = 
REMARK  8 active torsions:
REMARK  status: ('A' for Active; 'I' for Inactive)
REMARK    1  A    between atoms: C_1  and  C_2
REMARK    2  A    between atoms: N_4  and  C_5
REMARK    3  A    between atoms: C_8  and  S_9
REMARK    4  A    between atoms: S_9  and  N_12
REMARK    5  A    between atoms: N_12  and  C_13
REMARK    6  A    between atoms: C_13  and  C_14
REMARK    7  A    between atoms: N_22  and  C_23
REMARK    8  A    between atoms: N_26  and  C_27
REMARK                            x       y       z     vdW  Elec       q    Type
REMARK                         _______ _______ _______ _____ _____    ______ ____
ROOT
ATOM      1  C   UNL     1       0.235  12.518  19.420  0.00  0.00    +0.000 C 
ATOM      2  C   UNL     1       0.156  12.474  20.944  0.00  0.00    +0.000 C 
ATOM      3  O   UNL     1       1.175  12.307  21.626  0.00  0.00    +0.000 OA
ATOM      4  N   UNL     1      -1.092  12.619  21.524  0.00  0.00    +0.000 N 
ATOM      5  C   UNL     1      -1.161  12.713  22.973  0.00  0.00    +0.000 C 
ATOM      6  C   UNL     1      -2.303  12.496  20.864  0.00  0.00    +0.000 C 
ATOM      7  O   UNL     1      -3.371  12.518  21.490  0.00  0.00    +0.000 OA
ATOM      8  N   UNL     1      -2.265  12.362  19.491  0.00  0.00    +0.000 N 
ATOM      9  C   UNL     1      -3.516  12.144  18.781  0.00  0.00    +0.000 C 
ATOM     10  C   UNL     1      -1.126  12.462  18.704  0.00  0.00    +0.000 C 
ATOM     11  O   UNL     1      -1.192  12.521  17.469  0.00  0.00    +0.000 OA
ENDROOT
BRANCH   1  12
ATOM     12  C   UNL     1       0.974  13.828  19.008  0.00  0.00    +0.000 A 
ATOM     13  C   UNL     1       0.385  15.098  19.205  0.00  0.00    +0.000 A 
ATOM     14  C   UNL     1       1.002  16.264  18.741  0.00  0.00    +0.000 A 
ATOM     15  C   UNL     1       2.240  16.199  18.114  0.00  0.00    +0.000 A 
ATOM     16  C   UNL     1       2.875  14.968  17.974  0.00  0.00    +0.000 A 
ATOM     17  C   UNL     1       2.253  13.794  18.420  0.00  0.00    +0.000 A 
ENDBRANCH   1  12
BRANCH   1  18
ATOM     18  N   UNL     1       1.019  11.304  18.959  0.00  0.00    +0.000 NA
ATOM     19  H   UNL     1       1.495  11.439  18.065  0.00  0.00    +0.000 HD
BRANCH  18  20
ATOM     20  S   UNL     1       0.320   9.774  19.033  0.00  0.00    +0.000 S 
ATOM     21  O   UNL     1      -0.537   9.662  17.874  0.00  0.00    +0.000 OA
ATOM     22  O   UNL     1      -0.200   9.598  20.365  0.00  0.00    +0.000 OA
BRANCH  20  26
ATOM     23  C   UNL     1       3.660   6.746  18.261  0.00  0.00    +0.000 A 
ATOM     24  C   UNL     1       3.352   7.758  17.353  0.00  0.00    +0.000 A 
ATOM     25  C   UNL     1       2.364   8.691  17.633  0.00  0.00    +0.000 A 
ATOM     26  C   UNL     1       1.641   8.611  18.822  0.00  0.00    +0.000 A 
ATOM     27  C   UNL     1       1.946   7.627  19.766  0.00  0.00    +0.000 A 
ATOM     28  C   UNL     1       2.949   6.681  19.472  0.00  0.00    +0.000 A 
BRANCH  23  32
ATOM     29  C   UNL     1       6.650   4.798  17.037  0.00  0.00    +0.000 C 
ATOM     30  C   UNL     1       5.844   6.036  17.308  0.00  0.00    +0.000 C 
ATOM     31  O   UNL     1       6.272   7.130  16.952  0.00  0.00    +0.000 OA
ATOM     32  N   UNL     1       4.649   5.779  17.969  0.00  0.00    +0.000 N 
ATOM     33  H   UNL     1       4.502   4.846  18.335  0.00  0.00    +0.000 HD
ENDBRANCH  23  32
ENDBRANCH  20  26
ENDBRANCH  18  20
ENDBRANCH   1  18
TORSDOF 5
ENDMDL
MODEL 8
REMARK VINA RESULT:      -6.8      1.914      2.307
REMARK  Name = 
REMARK  8 active torsions:
REMARK  status: ('A' for Active; 'I' for Inactive)
REMARK    1  A    between atoms: C_1  and  C_2
REMARK    2  A    between atoms: N_4  and  C_5
REMARK    3  A    between atoms: C_8  and  S_9
REMARK    4  A    between atoms: S_9  and  N_12
REMARK    5  A    between atoms: N_12  and  C_13
REMARK    6  A    between atoms: C_13  and  C_14
REMARK    7  A    between atoms: N_22  and  C_23
REMARK    8  A    between atoms: N_26  and  C_27
REMARK                            x       y       z     vdW  Elec       q    Type
REMARK                         _______ _______ _______ _____ _____    ______ ____
ROOT
ATOM      1  C   UNL     1       0.336  12.271  20.789  0.00  0.00    +0.000 C 
ATOM      2  C   UNL     1      -0.776  12.286  21.835  0.00  0.00    +0.000 C 
ATOM      3  O   UNL     1      -0.518  12.140  23.036  0.00  0.00    +0.000 OA
ATOM      4  N   UNL     1      -2.073  12.459  21.386  0.00  0.00    +0.000 N 
ATOM      5  C   UNL     1      -3.122  12.609  22.381  0.00  0.00    +0.000 C 
ATOM      6  C   UNL     1      -2.495  12.317  20.074  0.00  0.00    +0.000 C 
ATOM      7  O   UNL     1      -3.698  12.368  19.786  0.00  0.00    +0.000 OA
ATOM      8  N   UNL     1      -1.522  12.130  19.113  0.00  0.00    +0.000 N 
ATOM      9  C   UNL     1      -1.941  11.890  17.741  0.00  0.00    +0.000 C 
ATOM     10  C   UNL     1      -0.153  12.194  19.332  0.00  0.00    +0.000 C 
ATOM     11  O   UNL     1       0.656  12.206  18.394  0.00  0.00    +0.000 OA
ENDROOT
BRANCH   1  12
ATOM     12  C   UNL     1       1.194  13.561  20.971  0.00  0.00    +0.000 A 
ATOM     13  C   UNL     1       0.590  14.824  21.165  0.00  0.00    +0.000 A 
ATOM     14  C   UNL     1       1.356  15.993  21.223  0.00  0.00    +0.000 A 
ATOM     15  C   UNL     1       2.741  15.927  21.140  0.00  0.00    +0.000 A 
ATOM     16  C   UNL     1       3.364  14.687  21.023  0.00  0.00    +0.000 A 
ATOM     17  C   UNL     1       2.601  13.515  20.945  0.00  0.00    +0.000 A 
ENDBRANCH   1  12
BRANCH   1  18
ATOM     18  N   UNL     1       1.184  11.037  21.028  0.00  0.00    +0.000 NA
ATOM     19  H   UNL     1       2.037  11.009  20.465  0.00  0.00    +0.000 HD
BRANCH  18  20
ATOM     20  S   UNL     1       0.461   9.517  21.081  0.00  0.00    +0.000 S 
ATOM     21  O   UNL     1      -0.811   9.648  20.408  0.00  0.00    +0.000 OA
ATOM     22  O   UNL     1       0.541   9.045  22.441  0.00  0.00    +0.000 OA
BRANCH  20  26
ATOM     23  C   UNL     1       2.925   6.812  18.337  0.00  0.00    +0.000 A 
ATOM     24  C   UNL     1       2.488   8.073  17.936  0.00  0.00    +0.000 A 
ATOM     25  C   UNL     1       1.780   8.892  18.805  0.00  0.00    +0.000 A 
ATOM     26  C   UNL     1       1.471   8.449  20.090  0.00  0.00    +0.000 A 
ATOM     27  C   UNL     1       1.921   7.202  20.532  0.00  0.00    +0.000 A 
ATOM     28  C   UNL     1       2.636   6.375  19.642  0.00  0.00    +0.000 A 
BRANCH  23  32
ATOM     29  C   UNL     1       5.341   5.199  15.930  0.00  0.00    +0.000 C 
ATOM     30  C   UNL     1       4.894   6.216  16.941  0.00  0.00    +0.000 C 
ATOM     31  O   UNL     1       5.640   7.143  17.239  0.00  0.00    +0.000 OA
ATOM     32  N   UNL     1       3.624   5.965  17.446  0.00  0.00    +0.000 N 
ATOM     33  H   UNL     1       3.193   5.077  17.221  0.00  0.00    +0.000 HD
ENDBRANCH  23  32
ENDBRANCH  20  26
ENDBRANCH  18  20
ENDBRANCH   1  18
TORSDOF 5
ENDMDL
MODEL 9
REMARK VINA RESULT:      -6.8      1.257      1.772
REMARK  Name = 
REMARK  8 active torsions:
REMARK  status: ('A' for Active; 'I' for Inactive)
REMARK    1  A    between atoms: C_1  and  C_2
REMARK    2  A    between atoms: N_4  and  C_5
REMARK    3  A    between atoms: C_8  and  S_9
REMARK    4  A    between atoms: S_9  and  N_12
REMARK    5  A    between atoms: N_12  and  C_13
REMARK    6  A    between atoms: C_13  and  C_14
REMARK    7  A    between atoms: N_22  and  C_23
REMARK    8  A    between atoms: N_26  and  C_27
REMARK                            x       y       z     vdW  Elec       q    Type
REMARK                         _______ _______ _______ _____ _____    ______ ____
ROOT
ATOM      1  C   UNL     1       0.346  12.390  20.552  0.00  0.00    +0.000 C 
ATOM      2  C   UNL     1      -0.650  12.663  21.677  0.00  0.00    +0.000 C 
ATOM      3  O   UNL     1      -0.273  12.739  22.853  0.00  0.00    +0.000 OA
ATOM      4  N   UNL     1      -1.982  12.811  21.330  0.00  0.00    +0.000 N 
ATOM      5  C   UNL     1      -2.917  13.204  22.372  0.00  0.00    +0.000 C 
ATOM      6  C   UNL     1      -2.542  12.439  20.118  0.00  0.00    +0.000 C 
ATOM      7  O   UNL     1      -3.766  12.494  19.943  0.00  0.00    +0.000 OA
ATOM      8  N   UNL     1      -1.680  12.021  19.125  0.00  0.00    +0.000 N 
ATOM      9  C   UNL     1      -2.247  11.543  17.873  0.00  0.00    +0.000 C 
ATOM     10  C   UNL     1      -0.295  12.058  19.193  0.00  0.00    +0.000 C 
ATOM     11  O   UNL     1       0.411  11.847  18.198  0.00  0.00    +0.000 OA
ENDROOT
BRANCH   1  12
ATOM     12  C   UNL     1       1.256  13.646  20.393  0.00  0.00    +0.000 A 
ATOM     13  C   UNL     1       0.738  14.877  19.931  0.00  0.00    +0.000 A 
ATOM     14  C   UNL     1       1.573  15.972  19.689  0.00  0.00    +0.000 A 
ATOM     15  C   UNL     1       2.936  15.882  19.947  0.00  0.00    +0.000 A 
ATOM     16  C   UNL     1       3.459  14.704  20.472  0.00  0.00    +0.000 A 
ATOM     17  C   UNL     1       2.630  13.598  20.699  0.00  0.00    +0.000 A 
ENDBRANCH   1  12
BRANCH   1  18
ATOM     18  N   UNL     1       1.176  11.184  20.948  0.00  0.00    +0.000 NA
ATOM     19  H   UNL     1       1.947  10.989  20.307  0.00  0.00    +0.000 HD
BRANCH  18  20
ATOM     20  S   UNL     1       0.415   9.755  21.411  0.00  0.00    +0.000 S 
ATOM     21  O   UNL     1      -0.916   9.802  20.850  0.00  0.00    +0.000 OA
ATOM     22  O   UNL     1       0.622   9.591  22.828  0.00  0.00    +0.000 OA
BRANCH  20  26
ATOM     23  C   UNL     1       2.543   6.431  19.099  0.00  0.00    +0.000 A 
ATOM     24  C   UNL     1       2.421   7.724  18.594  0.00  0.00    +0.000 A 
ATOM     25  C   UNL     1       1.810   8.725  19.336  0.00  0.00    +0.000 A 
ATOM     26  C   UNL     1       1.281   8.441  20.594  0.00  0.00    +0.000 A 
ATOM     27  C   UNL     1       1.414   7.162  21.141  0.00  0.00    +0.000 A 
ATOM     28  C   UNL     1       2.033   6.150  20.379  0.00  0.00    +0.000 A 
BRANCH  23  32
ATOM     29  C   UNL     1       3.346   3.399  17.003  0.00  0.00    +0.000 C 
ATOM     30  C   UNL     1       2.449   4.427  17.630  0.00  0.00    +0.000 C 
ATOM     31  O   UNL     1       1.234   4.344  17.481  0.00  0.00    +0.000 OA
ATOM     32  N   UNL     1       3.142   5.403  18.336  0.00  0.00    +0.000 N 
ATOM     33  H   UNL     1       4.150   5.429  18.241  0.00  0.00    +0.000 HD
ENDBRANCH  23  32
ENDBRANCH  20  26
ENDBRANCH  18  20
ENDBRANCH   1  18
TORSDOF 5
ENDMDL
