MODEL 1
REMARK VINA RESULT:      -8.6      0.000      0.000
REMARK  Name = 
REMARK  5 active torsions:
REMARK  status: ('A' for Active; 'I' for Inactive)
REMARK    1  A    between atoms: C_2  and  C_3
REMARK    2  A    between atoms: C_2  and  C_17
REMARK    3  A    between atoms: C_7  and  O_8
REMARK    4  A    between atoms: O_8  and  C_9
REMARK    5  A    between atoms: C_9  and  C_11
REMARK                            x       y       z     vdW  Elec       q    Type
REMARK                         _______ _______ _______ _____ _____    ______ ____
ROOT
ATOM      1  C   UNL     1       5.341   6.150  17.835  0.00  0.00    +0.000 A 
ATOM      2  C   UNL     1       4.601   7.177  17.240  0.00  0.00    +0.000 A 
ATOM      3  C   UNL     1       3.321   7.476  17.714  0.00  0.00    +0.000 A 
ATOM      4  C   UNL     1       2.785   6.769  18.796  0.00  0.00    +0.000 A 
ATOM      5  C   UNL     1       3.531   5.758  19.402  0.00  0.00    +0.000 A 
ATOM      6  C   UNL     1       4.794   5.431  18.912  0.00  0.00    +0.000 A 
ENDROOT
BRANCH   1   8
ATOM      7  O   UNL     1       7.677   6.117  18.073  0.00  0.00    +0.000 OA
ATOM      8  C   UNL     1       6.721   5.856  17.340  0.00  0.00    +0.000 C 
BRANCH   8   9
ATOM      9  C   UNL     1       6.822   5.261  16.021  0.00  0.00    +0.000 A 
ATOM     10  N   UNL     1       7.652   5.668  15.075  0.00  0.00    +0.000 NA
ATOM     11  C   UNL     1       7.272   4.947  13.980  0.00  0.00    +0.000 A 
ATOM     12  C   UNL     1       7.750   4.981  12.665  0.00  0.00    +0.000 A 
ATOM     13  C   UNL     1       7.128   4.157  11.720  0.00  0.00    +0.000 A 
ATOM     14  C   UNL     1       6.067   3.316  12.083  0.00  0.00    +0.000 A 
ATOM     15  C   UNL     1       5.591   3.260  13.401  0.00  0.00    +0.000 A 
ATOM     16  C   UNL     1       6.230   4.097  14.307  0.00  0.00    +0.000 A 
ATOM     17  O   UNL     1       5.952   4.268  15.636  0.00  0.00    +0.000 OA
ENDBRANCH   8   9
ENDBRANCH   1   8
BRANCH   5  18
ATOM     18  O   UNL     1       2.911   5.077  20.478  0.00  0.00    +0.000 OA
BRANCH  18  19
ATOM     19  C   UNL     1       1.761   4.318  20.272  0.00  0.00    +0.000 C 
ATOM     20  O   UNL     1       0.627   4.625  20.626  0.00  0.00    +0.000 OA
BRANCH  19  21
ATOM     21  C   UNL     1       2.046   3.017  19.547  0.00  0.00    +0.000 C 
ATOM     22  C   UNL     1       2.005   3.242  18.035  0.00  0.00    +0.000 C 
ATOM     23  C   UNL     1       2.562   1.950  17.460  0.00  0.00    +0.000 C 
ATOM     24  C   UNL     1       3.536   1.424  18.515  0.00  0.00    +0.000 C 
ATOM     25  C   UNL     1       3.413   2.362  19.719  0.00  0.00    +0.000 C 
ENDBRANCH  19  21
ENDBRANCH  18  19
ENDBRANCH   5  18
TORSDOF 5
ENDMDL
MODEL 2
REMARK VINA RESULT:      -8.3      0.846      1.179
REMARK  Name = 
REMARK  5 active torsions:
REMARK  status: ('A' for Active; 'I' for Inactive)
REMARK    1  A    between atoms: C_2  and  C_3
REMARK    2  A    between atoms: C_2  and  C_17
REMARK    3  A    between atoms: C_7  and  O_8
REMARK    4  A    between atoms: O_8  and  C_9
REMARK    5  A    between atoms: C_9  and  C_11
REMARK                            x       y       z     vdW  Elec       q    Type
REMARK                         _______ _______ _______ _____ _____    ______ ____
ROOT
ATOM      1  C   UNL     1       5.285   5.835  17.989  0.00  0.00    +0.000 A 
ATOM      2  C   UNL     1       4.751   6.857  17.197  0.00  0.00    +0.000 A 
ATOM      3  C   UNL     1       3.548   7.465  17.564  0.00  0.00    +0.000 A 
ATOM      4  C   UNL     1       2.887   7.074  18.733  0.00  0.00    +0.000 A 
ATOM      5  C   UNL     1       3.429   6.069  19.534  0.00  0.00    +0.000 A 
ATOM      6  C   UNL     1       4.611   5.434  19.156  0.00  0.00    +0.000 A 
ENDROOT
BRANCH   1   8
ATOM      7  O   UNL     1       7.428   5.014  18.483  0.00  0.00    +0.000 OA
ATOM      8  C   UNL     1       6.587   5.210  17.604  0.00  0.00    +0.000 C 
BRANCH   8   9
ATOM      9  C   UNL     1       6.749   4.863  16.205  0.00  0.00    +0.000 A 
ATOM     10  N   UNL     1       7.594   5.455  15.377  0.00  0.00    +0.000 NA
ATOM     11  C   UNL     1       7.273   4.931  14.159  0.00  0.00    +0.000 A 
ATOM     12  C   UNL     1       7.790   5.213  12.889  0.00  0.00    +0.000 A 
ATOM     13  C   UNL     1       7.226   4.554  11.790  0.00  0.00    +0.000 A 
ATOM     14  C   UNL     1       6.183   3.632  11.959  0.00  0.00    +0.000 A 
ATOM     15  C   UNL     1       5.669   3.329  13.228  0.00  0.00    +0.000 A 
ATOM     16  C   UNL     1       6.251   4.008  14.291  0.00  0.00    +0.000 A 
ATOM     17  O   UNL     1       5.926   3.931  15.618  0.00  0.00    +0.000 OA
ENDBRANCH   8   9
ENDBRANCH   1   8
BRANCH   5  18
ATOM     18  O   UNL     1       2.690   5.718  20.691  0.00  0.00    +0.000 OA
BRANCH  18  19
ATOM     19  C   UNL     1       2.356   4.390  20.946  0.00  0.00    +0.000 C 
ATOM     20  O   UNL     1       2.416   3.832  22.037  0.00  0.00    +0.000 OA
BRANCH  19  21
ATOM     21  C   UNL     1       1.896   3.658  19.699  0.00  0.00    +0.000 C 
ATOM     22  C   UNL     1       2.707   2.374  19.519  0.00  0.00    +0.000 C 
ATOM     23  C   UNL     1       1.971   1.632  18.415  0.00  0.00    +0.000 C 
ATOM     24  C   UNL     1       0.507   2.054  18.549  0.00  0.00    +0.000 C 
ATOM     25  C   UNL     1       0.468   3.125  19.643  0.00  0.00    +0.000 C 
ENDBRANCH  19  21
ENDBRANCH  18  19
ENDBRANCH   5  18
TORSDOF 5
ENDMDL
MODEL 3
REMARK VINA RESULT:      -8.2      1.152      1.751
REMARK  Name = 
REMARK  5 active torsions:
REMARK  status: ('A' for Active; 'I' for Inactive)
REMARK    1  A    between atoms: C_2  and  C_3
REMARK    2  A    between atoms: C_2  and  C_17
REMARK    3  A    between atoms: C_7  and  O_8
REMARK    4  A    between atoms: O_8  and  C_9
REMARK    5  A    between atoms: C_9  and  C_11
REMARK                            x       y       z     vdW  Elec       q    Type
REMARK                         _______ _______ _______ _____ _____    ______ ____
ROOT
ATOM      1  C   UNL     1       5.326   6.268  17.576  0.00  0.00    +0.000 A 
ATOM      2  C   UNL     1       4.240   7.129  17.390  0.00  0.00    +0.000 A 
ATOM      3  C   UNL     1       3.125   7.034  18.227  0.00  0.00    +0.000 A 
ATOM      4  C   UNL     1       3.101   6.098  19.267  0.00  0.00    +0.000 A 
ATOM      5  C   UNL     1       4.192   5.253  19.466  0.00  0.00    +0.000 A 
ATOM      6  C   UNL     1       5.292   5.318  18.612  0.00  0.00    +0.000 A 
ENDROOT
BRANCH   1   8
ATOM      7  O   UNL     1       7.410   7.192  17.014  0.00  0.00    +0.000 OA
ATOM      8  C   UNL     1       6.526   6.395  16.693  0.00  0.00    +0.000 C 
BRANCH   8   9
ATOM      9  C   UNL     1       6.559   5.543  15.520  0.00  0.00    +0.000 A 
ATOM     10  N   UNL     1       7.539   5.526  14.631  0.00  0.00    +0.000 NA
ATOM     11  C   UNL     1       7.059   4.722  13.639  0.00  0.00    +0.000 A 
ATOM     12  C   UNL     1       7.627   4.369  12.409  0.00  0.00    +0.000 A 
ATOM     13  C   UNL     1       6.876   3.558  11.549  0.00  0.00    +0.000 A 
ATOM     14  C   UNL     1       5.601   3.106  11.915  0.00  0.00    +0.000 A 
ATOM     15  C   UNL     1       5.029   3.439  13.151  0.00  0.00    +0.000 A 
ATOM     16  C   UNL     1       5.803   4.249  13.973  0.00  0.00    +0.000 A 
ATOM     17  O   UNL     1       5.483   4.748  15.206  0.00  0.00    +0.000 OA
ENDBRANCH   8   9
ENDBRANCH   1   8
BRANCH   5  18
ATOM     18  O   UNL     1       4.082   4.320  20.527  0.00  0.00    +0.000 OA
BRANCH  18  19
ATOM     19  C   UNL     1       4.073   2.951  20.273  0.00  0.00    +0.000 C 
ATOM     20  O   UNL     1       5.051   2.210  20.306  0.00  0.00    +0.000 OA
BRANCH  19  21
ATOM     21  C   UNL     1       2.689   2.433  19.931  0.00  0.00    +0.000 C 
ATOM     22  C   UNL     1       1.630   3.228  20.694  0.00  0.00    +0.000 C 
ATOM     23  C   UNL     1       0.320   2.789  20.060  0.00  0.00    +0.000 C 
ATOM     24  C   UNL     1       0.668   2.437  18.613  0.00  0.00    +0.000 C 
ATOM     25  C   UNL     1       2.190   2.561  18.495  0.00  0.00    +0.000 C 
ENDBRANCH  19  21
ENDBRANCH  18  19
ENDBRANCH   5  18
TORSDOF 5
ENDMDL
MODEL 4
REMARK VINA RESULT:      -8.2      1.076      1.645
REMARK  Name = 
REMARK  5 active torsions:
REMARK  status: ('A' for Active; 'I' for Inactive)
REMARK    1  A    between atoms: C_2  and  C_3
REMARK    2  A    between atoms: C_2  and  C_17
REMARK    3  A    between atoms: C_7  and  O_8
REMARK    4  A    between atoms: O_8  and  C_9
REMARK    5  A    between atoms: C_9  and  C_11
REMARK                            x       y       z     vdW  Elec       q    Type
REMARK                         _______ _______ _______ _____ _____    ______ ____
ROOT
ATOM      1  C   UNL     1       4.867   6.141  18.067  0.00  0.00    +0.000 A 
ATOM      2  C   UNL     1       4.174   7.155  17.398  0.00  0.00    +0.000 A 
ATOM      3  C   UNL     1       2.957   7.617  17.906  0.00  0.00    +0.000 A 
ATOM      4  C   UNL     1       2.440   7.088  19.094  0.00  0.00    +0.000 A 
ATOM      5  C   UNL     1       3.141   6.091  19.771  0.00  0.00    +0.000 A 
ATOM      6  C   UNL     1       4.338   5.600  19.252  0.00  0.00    +0.000 A 
ENDROOT
BRANCH   1   8
ATOM      7  O   UNL     1       7.142   5.610  18.302  0.00  0.00    +0.000 OA
ATOM      8  C   UNL     1       6.182   5.672  17.532  0.00  0.00    +0.000 C 
BRANCH   8   9
ATOM      9  C   UNL     1       6.215   5.306  16.128  0.00  0.00    +0.000 A 
ATOM     10  N   UNL     1       5.360   4.482  15.546  0.00  0.00    +0.000 NA
ATOM     11  C   UNL     1       5.881   4.304  14.298  0.00  0.00    +0.000 A 
ATOM     12  C   UNL     1       5.443   3.496  13.242  0.00  0.00    +0.000 A 
ATOM     13  C   UNL     1       6.215   3.467  12.075  0.00  0.00    +0.000 A 
ATOM     14  C   UNL     1       7.384   4.233  11.964  0.00  0.00    +0.000 A 
ATOM     15  C   UNL     1       7.824   5.059  13.009  0.00  0.00    +0.000 A 
ATOM     16  C   UNL     1       7.034   5.055  14.151  0.00  0.00    +0.000 A 
ATOM     17  O   UNL     1       7.242   5.734  15.321  0.00  0.00    +0.000 OA
ENDBRANCH   8   9
ENDBRANCH   1   8
BRANCH   5  18
ATOM     18  O   UNL     1       2.543   5.594  20.956  0.00  0.00    +0.000 OA
BRANCH  18  19
ATOM     19  C   UNL     1       2.265   4.237  21.097  0.00  0.00    +0.000 C 
ATOM     20  O   UNL     1       2.297   3.603  22.148  0.00  0.00    +0.000 OA
BRANCH  19  21
ATOM     21  C   UNL     1       1.908   3.577  19.779  0.00  0.00    +0.000 C 
ATOM     22  C   UNL     1       2.846   2.400  19.512  0.00  0.00    +0.000 C 
ATOM     23  C   UNL     1       2.212   1.691  18.327  0.00  0.00    +0.000 C 
ATOM     24  C   UNL     1       0.711   1.954  18.452  0.00  0.00    +0.000 C 
ATOM     25  C   UNL     1       0.541   2.914  19.633  0.00  0.00    +0.000 C 
ENDBRANCH  19  21
ENDBRANCH  18  19
ENDBRANCH   5  18
TORSDOF 5
ENDMDL
MODEL 5
REMARK VINA RESULT:      -8.1      4.153      7.976
REMARK  Name = 
REMARK  5 active torsions:
REMARK  status: ('A' for Active; 'I' for Inactive)
REMARK    1  A    between atoms: C_2  and  C_3
REMARK    2  A    between atoms: C_2  and  C_17
REMARK    3  A    between atoms: C_7  and  O_8
REMARK    4  A    between atoms: O_8  and  C_9
REMARK    5  A    between atoms: C_9  and  C_11
REMARK                            x       y       z     vdW  Elec       q    Type
REMARK                         _______ _______ _______ _____ _____    ______ ____
ROOT
ATOM      1  C   UNL     1       6.463   6.519  17.206  0.00  0.00    +0.000 A 
ATOM      2  C   UNL     1       7.149   5.740  18.144  0.00  0.00    +0.000 A 
ATOM      3  C   UNL     1       8.162   6.315  18.917  0.00  0.00    +0.000 A 
ATOM      4  C   UNL     1       8.475   7.671  18.775  0.00  0.00    +0.000 A 
ATOM      5  C   UNL     1       7.777   8.452  17.855  0.00  0.00    +0.000 A 
ATOM      6  C   UNL     1       6.790   7.878  17.055  0.00  0.00    +0.000 A 
ENDROOT
BRANCH   1   8
ATOM      7  O   UNL     1       5.323   6.125  15.192  0.00  0.00    +0.000 OA
ATOM      8  C   UNL     1       5.362   5.904  16.403  0.00  0.00    +0.000 C 
BRANCH   8   9
ATOM      9  C   UNL     1       4.424   5.067  17.127  0.00  0.00    +0.000 A 
ATOM     10  N   UNL     1       4.171   3.800  16.842  0.00  0.00    +0.000 NA
ATOM     11  C   UNL     1       3.119   3.490  17.654  0.00  0.00    +0.000 A 
ATOM     12  C   UNL     1       2.381   2.306  17.764  0.00  0.00    +0.000 A 
ATOM     13  C   UNL     1       1.303   2.286  18.657  0.00  0.00    +0.000 A 
ATOM     14  C   UNL     1       0.982   3.414  19.425  0.00  0.00    +0.000 A 
ATOM     15  C   UNL     1       1.724   4.600  19.336  0.00  0.00    +0.000 A 
ATOM     16  C   UNL     1       2.781   4.581  18.435  0.00  0.00    +0.000 A 
ATOM     17  O   UNL     1       3.642   5.599  18.125  0.00  0.00    +0.000 OA
ENDBRANCH   8   9
ENDBRANCH   1   8
BRANCH   5  18
ATOM     18  O   UNL     1       8.167   9.811  17.758  0.00  0.00    +0.000 OA
BRANCH  18  19
ATOM     19  C   UNL     1       9.104  10.347  18.638  0.00  0.00    +0.000 C 
ATOM     20  O   UNL     1       9.115  10.191  19.855  0.00  0.00    +0.000 OA
BRANCH  19  21
ATOM     21  C   UNL     1      10.153  11.183  17.931  0.00  0.00    +0.000 C 
ATOM     22  C   UNL     1       9.597  12.575  17.631  0.00  0.00    +0.000 C 
ATOM     23  C   UNL     1      10.816  13.363  17.180  0.00  0.00    +0.000 C 
ATOM     24  C   UNL     1      12.000  12.737  17.917  0.00  0.00    +0.000 C 
ATOM     25  C   UNL     1      11.443  11.525  18.670  0.00  0.00    +0.000 C 
ENDBRANCH  19  21
ENDBRANCH  18  19
ENDBRANCH   5  18
TORSDOF 5
ENDMDL
MODEL 6
REMARK VINA RESULT:      -8.0      4.080      8.056
REMARK  Name = 
REMARK  5 active torsions:
REMARK  status: ('A' for Active; 'I' for Inactive)
REMARK    1  A    between atoms: C_2  and  C_3
REMARK    2  A    between atoms: C_2  and  C_17
REMARK    3  A    between atoms: C_7  and  O_8
REMARK    4  A    between atoms: O_8  and  C_9
REMARK    5  A    between atoms: C_9  and  C_11
REMARK                            x       y       z     vdW  Elec       q    Type
REMARK                         _______ _______ _______ _____ _____    ______ ____
ROOT
ATOM      1  C   UNL     1       6.305   6.306  17.336  0.00  0.00    +0.000 A 
ATOM      2  C   UNL     1       6.987   5.546  18.292  0.00  0.00    +0.000 A 
ATOM      3  C   UNL     1       8.048   6.114  19.004  0.00  0.00    +0.000 A 
ATOM      4  C   UNL     1       8.414   7.446  18.782  0.00  0.00    +0.000 A 
ATOM      5  C   UNL     1       7.721   8.209  17.843  0.00  0.00    +0.000 A 
ATOM      6  C   UNL     1       6.685   7.639  17.104  0.00  0.00    +0.000 A 
ENDROOT
BRANCH   1   8
ATOM      7  O   UNL     1       5.234   5.583  15.376  0.00  0.00    +0.000 OA
ATOM      8  C   UNL     1       5.153   5.699  16.600  0.00  0.00    +0.000 C 
BRANCH   8   9
ATOM      9  C   UNL     1       4.024   5.274  17.404  0.00  0.00    +0.000 A 
ATOM     10  N   UNL     1       3.576   5.917  18.470  0.00  0.00    +0.000 NA
ATOM     11  C   UNL     1       2.640   5.069  18.988  0.00  0.00    +0.000 A 
ATOM     12  C   UNL     1       1.862   5.181  20.147  0.00  0.00    +0.000 A 
ATOM     13  C   UNL     1       1.010   4.119  20.470  0.00  0.00    +0.000 A 
ATOM     14  C   UNL     1       0.931   2.983  19.652  0.00  0.00    +0.000 A 
ATOM     15  C   UNL     1       1.693   2.867  18.480  0.00  0.00    +0.000 A 
ATOM     16  C   UNL     1       2.530   3.939  18.198  0.00  0.00    +0.000 A 
ATOM     17  O   UNL     1       3.398   4.076  17.149  0.00  0.00    +0.000 OA
ENDBRANCH   8   9
ENDBRANCH   1   8
BRANCH   5  18
ATOM     18  O   UNL     1       8.165   9.543  17.663  0.00  0.00    +0.000 OA
BRANCH  18  19
ATOM     19  C   UNL     1       9.002  10.146  18.598  0.00  0.00    +0.000 C 
ATOM     20  O   UNL     1       8.949   9.989  19.815  0.00  0.00    +0.000 OA
BRANCH  19  21
ATOM     21  C   UNL     1      10.027  11.061  17.956  0.00  0.00    +0.000 C 
ATOM     22  C   UNL     1       9.413  12.437  17.701  0.00  0.00    +0.000 C 
ATOM     23  C   UNL     1      10.603  13.300  17.316  0.00  0.00    +0.000 C 
ATOM     24  C   UNL     1      11.797  12.698  18.058  0.00  0.00    +0.000 C 
ATOM     25  C   UNL     1      11.281  11.429  18.743  0.00  0.00    +0.000 C 
ENDBRANCH  19  21
ENDBRANCH  18  19
ENDBRANCH   5  18
TORSDOF 5
ENDMDL
MODEL 7
REMARK VINA RESULT:      -8.0      1.392      1.868
REMARK  Name = 
REMARK  5 active torsions:
REMARK  status: ('A' for Active; 'I' for Inactive)
REMARK    1  A    between atoms: C_2  and  C_3
REMARK    2  A    between atoms: C_2  and  C_17
REMARK    3  A    between atoms: C_7  and  O_8
REMARK    4  A    between atoms: O_8  and  C_9
REMARK    5  A    between atoms: C_9  and  C_11
REMARK                            x       y       z     vdW  Elec       q    Type
REMARK                         _______ _______ _______ _____ _____    ______ ____
ROOT
ATOM      1  C   UNL     1       4.613   5.696  17.541  0.00  0.00    +0.000 A 
ATOM      2  C   UNL     1       4.216   6.956  18.001  0.00  0.00    +0.000 A 
ATOM      3  C   UNL     1       2.865   7.209  18.253  0.00  0.00    +0.000 A 
ATOM      4  C   UNL     1       1.911   6.202  18.071  0.00  0.00    +0.000 A 
ATOM      5  C   UNL     1       2.310   4.940  17.632  0.00  0.00    +0.000 A 
ATOM      6  C   UNL     1       3.651   4.690  17.344  0.00  0.00    +0.000 A 
ENDROOT
BRANCH   1   8
ATOM      7  O   UNL     1       6.849   5.546  18.243  0.00  0.00    +0.000 OA
ATOM      8  C   UNL     1       6.064   5.424  17.301  0.00  0.00    +0.000 C 
BRANCH   8   9
ATOM      9  C   UNL     1       6.432   5.016  15.958  0.00  0.00    +0.000 A 
ATOM     10  N   UNL     1       7.340   5.621  15.211  0.00  0.00    +0.000 NA
ATOM     11  C   UNL     1       7.217   5.011  13.997  0.00  0.00    +0.000 A 
ATOM     12  C   UNL     1       7.880   5.261  12.789  0.00  0.00    +0.000 A 
ATOM     13  C   UNL     1       7.510   4.505  11.670  0.00  0.00    +0.000 A 
ATOM     14  C   UNL     1       6.514   3.522  11.760  0.00  0.00    +0.000 A 
ATOM     15  C   UNL     1       5.856   3.251  12.969  0.00  0.00    +0.000 A 
ATOM     16  C   UNL     1       6.248   4.026  14.053  0.00  0.00    +0.000 A 
ATOM     17  O   UNL     1       5.755   3.998  15.330  0.00  0.00    +0.000 OA
ENDBRANCH   8   9
ENDBRANCH   1   8
BRANCH   5  18
ATOM     18  O   UNL     1       1.282   3.981  17.454  0.00  0.00    +0.000 OA
BRANCH  18  19
ATOM     19  C   UNL     1       0.996   3.051  18.450  0.00  0.00    +0.000 C 
ATOM     20  O   UNL     1       0.126   2.188  18.397  0.00  0.00    +0.000 OA
BRANCH  19  21
ATOM     21  C   UNL     1       1.891   3.208  19.665  0.00  0.00    +0.000 C 
ATOM     22  C   UNL     1       1.070   3.040  20.944  0.00  0.00    +0.000 C 
ATOM     23  C   UNL     1       2.119   2.955  22.040  0.00  0.00    +0.000 C 
ATOM     24  C   UNL     1       3.348   2.332  21.377  0.00  0.00    +0.000 C 
ATOM     25  C   UNL     1       3.012   2.198  19.889  0.00  0.00    +0.000 C 
ENDBRANCH  19  21
ENDBRANCH  18  19
ENDBRANCH   5  18
TORSDOF 5
ENDMDL
MODEL 8
REMARK VINA RESULT:      -8.0      2.612      4.412
REMARK  Name = 
REMARK  5 active torsions:
REMARK  status: ('A' for Active; 'I' for Inactive)
REMARK    1  A    between atoms: C_2  and  C_3
REMARK    2  A    between atoms: C_2  and  C_17
REMARK    3  A    between atoms: C_7  and  O_8
REMARK    4  A    between atoms: O_8  and  C_9
REMARK    5  A    between atoms: C_9  and  C_11
REMARK                            x       y       z     vdW  Elec       q    Type
REMARK                         _______ _______ _______ _____ _____    ______ ____
ROOT
ATOM      1  C   UNL     1       4.616   4.943  17.829  0.00  0.00    +0.000 A 
ATOM      2  C   UNL     1       3.629   4.019  17.471  0.00  0.00    +0.000 A 
ATOM      3  C   UNL     1       2.281   4.324  17.683  0.00  0.00    +0.000 A 
ATOM      4  C   UNL     1       1.914   5.559  18.229  0.00  0.00    +0.000 A 
ATOM      5  C   UNL     1       2.897   6.489  18.567  0.00  0.00    +0.000 A 
ATOM      6  C   UNL     1       4.245   6.178  18.391  0.00  0.00    +0.000 A 
ENDROOT
BRANCH   1   8
ATOM      7  O   UNL     1       6.800   4.456  18.538  0.00  0.00    +0.000 OA
ATOM      8  C   UNL     1       6.053   4.621  17.572  0.00  0.00    +0.000 C 
BRANCH   8   9
ATOM      9  C   UNL     1       6.452   4.509  16.182  0.00  0.00    +0.000 A 
ATOM     10  N   UNL     1       7.314   5.312  15.581  0.00  0.00    +0.000 NA
ATOM     11  C   UNL     1       7.238   4.942  14.269  0.00  0.00    +0.000 A 
ATOM     12  C   UNL     1       7.881   5.470  13.143  0.00  0.00    +0.000 A 
ATOM     13  C   UNL     1       7.570   4.921  11.894  0.00  0.00    +0.000 A 
ATOM     14  C   UNL     1       6.651   3.869  11.776  0.00  0.00    +0.000 A 
ATOM     15  C   UNL     1       6.013   3.322  12.899  0.00  0.00    +0.000 A 
ATOM     16  C   UNL     1       6.344   3.897  14.119  0.00  0.00    +0.000 A 
ATOM     17  O   UNL     1       5.854   3.585  15.358  0.00  0.00    +0.000 OA
ENDBRANCH   8   9
ENDBRANCH   1   8
BRANCH   5  18
ATOM     18  O   UNL     1       2.445   7.707  19.131  0.00  0.00    +0.000 OA
BRANCH  18  19
ATOM     19  C   UNL     1       1.865   8.689  18.333  0.00  0.00    +0.000 C 
ATOM     20  O   UNL     1       2.303   9.092  17.260  0.00  0.00    +0.000 OA
BRANCH  19  21
ATOM     21  C   UNL     1       0.590   9.248  18.935  0.00  0.00    +0.000 C 
ATOM     22  C   UNL     1       0.928  10.270  20.020  0.00  0.00    +0.000 C 
ATOM     23  C   UNL     1      -0.408  10.924  20.332  0.00  0.00    +0.000 C 
ATOM     24  C   UNL     1      -1.206  10.858  19.029  0.00  0.00    +0.000 C 
ATOM     25  C   UNL     1      -0.353  10.052  18.045  0.00  0.00    +0.000 C 
ENDBRANCH  19  21
ENDBRANCH  18  19
ENDBRANCH   5  18
TORSDOF 5
ENDMDL
MODEL 9
REMARK VINA RESULT:      -8.0      3.027      5.623
REMARK  Name = 
REMARK  5 active torsions:
REMARK  status: ('A' for Active; 'I' for Inactive)
REMARK    1  A    between atoms: C_2  and  C_3
REMARK    2  A    between atoms: C_2  and  C_17
REMARK    3  A    between atoms: C_7  and  O_8
REMARK    4  A    between atoms: O_8  and  C_9
REMARK    5  A    between atoms: C_9  and  C_11
REMARK                            x       y       z     vdW  Elec       q    Type
REMARK                         _______ _______ _______ _____ _____    ______ ____
ROOT
ATOM      1  C   UNL     1       2.930   3.595  19.021  0.00  0.00    +0.000 A 
ATOM      2  C   UNL     1       1.847   2.714  19.109  0.00  0.00    +0.000 A 
ATOM      3  C   UNL     1       0.733   3.058  19.880  0.00  0.00    +0.000 A 
ATOM      4  C   UNL     1       0.685   4.289  20.542  0.00  0.00    +0.000 A 
ATOM      5  C   UNL     1       1.756   5.176  20.437  0.00  0.00    +0.000 A 
ATOM      6  C   UNL     1       2.886   4.825  19.700  0.00  0.00    +0.000 A 
ENDROOT
BRANCH   1   8
ATOM      7  O   UNL     1       4.095   2.146  17.586  0.00  0.00    +0.000 OA
ATOM      8  C   UNL     1       4.106   3.231  18.171  0.00  0.00    +0.000 C 
BRANCH   8   9
ATOM      9  C   UNL     1       5.173   4.210  18.091  0.00  0.00    +0.000 A 
ATOM     10  N   UNL     1       6.199   4.273  18.924  0.00  0.00    +0.000 NA
ATOM     11  C   UNL     1       6.827   5.433  18.574  0.00  0.00    +0.000 A 
ATOM     12  C   UNL     1       7.948   6.058  19.135  0.00  0.00    +0.000 A 
ATOM     13  C   UNL     1       8.348   7.288  18.600  0.00  0.00    +0.000 A 
ATOM     14  C   UNL     1       7.654   7.869  17.529  0.00  0.00    +0.000 A 
ATOM     15  C   UNL     1       6.541   7.244  16.948  0.00  0.00    +0.000 A 
ATOM     16  C   UNL     1       6.172   6.028  17.511  0.00  0.00    +0.000 A 
ATOM     17  O   UNL     1       5.118   5.227  17.168  0.00  0.00    +0.000 OA
ENDBRANCH   8   9
ENDBRANCH   1   8
BRANCH   5  18
ATOM     18  O   UNL     1       1.640   6.393  21.153  0.00  0.00    +0.000 OA
BRANCH  18  19
ATOM     19  C   UNL     1       1.499   7.604  20.480  0.00  0.00    +0.000 C 
ATOM     20  O   UNL     1       2.141   7.956  19.495  0.00  0.00    +0.000 OA
BRANCH  19  21
ATOM     21  C   UNL     1       0.440   8.494  21.101  0.00  0.00    +0.000 C 
ATOM     22  C   UNL     1       0.952   9.075  22.419  0.00  0.00    +0.000 C 
ATOM     23  C   UNL     1      -0.082  10.130  22.778  0.00  0.00    +0.000 C 
ATOM     24  C   UNL     1      -0.631  10.630  21.441  0.00  0.00    +0.000 C 
ATOM     25  C   UNL     1       0.012   9.757  20.360  0.00  0.00    +0.000 C 
ENDBRANCH  19  21
ENDBRANCH  18  19
ENDBRANCH   5  18
TORSDOF 5
ENDMDL
