MODEL 1
REMARK VINA RESULT:      -6.7      0.000      0.000
REMARK  Name = 
REMARK  3 active torsions:
REMARK  status: ('A' for Active; 'I' for Inactive)
REMARK    1  A    between atoms: C_1  and  O_2
REMARK    2  A    between atoms: O_2  and  C_3
REMARK    3  A    between atoms: C_7  and  C_8
REMARK                            x       y       z     vdW  Elec       q    Type
REMARK                         _______ _______ _______ _____ _____    ______ ____
ROOT
ATOM      1  C   UNL     1       6.516   4.635  16.921  0.00  0.00    +0.000 A 
ATOM      2  C   UNL     1       7.018   5.206  18.087  0.00  0.00    +0.000 A 
ATOM      3  C   UNL     1       6.227   5.286  19.231  0.00  0.00    +0.000 A 
ATOM      4  C   UNL     1       4.920   4.794  19.213  0.00  0.00    +0.000 A 
ATOM      5  C   UNL     1       4.380   4.215  18.056  0.00  0.00    +0.000 A 
ATOM      6  C   UNL     1       5.208   4.144  16.914  0.00  0.00    +0.000 A 
ENDROOT
BRANCH   5   7
ATOM      7  C   UNL     1       2.984   3.642  18.012  0.00  0.00    +0.000 C 
ATOM      8  C   UNL     1       2.851   2.181  17.657  0.00  0.00    +0.000 C 
ATOM      9  N   UNL     1       2.031   1.603  18.746  0.00  0.00    +0.000 NA
ATOM     10  C   UNL     1       1.113   2.661  19.200  0.00  0.00    +0.000 C 
ATOM     11  C   UNL     1       1.913   3.910  19.013  0.00  0.00    +0.000 C 
ATOM     12  C   UNL     1       1.860   4.626  17.701  0.00  0.00    +0.000 C 
ATOM     13  H   UNL     1       2.663   1.403  19.520  0.00  0.00    +0.000 HD
ENDBRANCH   5   7
BRANCH   1  15
ATOM     14  C   UNL     1       6.844   4.739  14.565  0.00  0.00    +0.000 C 
ATOM     15  O   UNL     1       7.392   4.609  15.872  0.00  0.00    +0.000 OA
ENDBRANCH   1  15
TORSDOF 2
ENDMDL
MODEL 2
REMARK VINA RESULT:      -6.4      2.885      5.299
REMARK  Name = 
REMARK  3 active torsions:
REMARK  status: ('A' for Active; 'I' for Inactive)
REMARK    1  A    between atoms: C_1  and  O_2
REMARK    2  A    between atoms: O_2  and  C_3
REMARK    3  A    between atoms: C_7  and  C_8
REMARK                            x       y       z     vdW  Elec       q    Type
REMARK                         _______ _______ _______ _____ _____    ______ ____
ROOT
ATOM      1  C   UNL     1       3.185   2.916  19.892  0.00  0.00    +0.000 A 
ATOM      2  C   UNL     1       2.293   2.213  19.088  0.00  0.00    +0.000 A 
ATOM      3  C   UNL     1       2.369   2.304  17.700  0.00  0.00    +0.000 A 
ATOM      4  C   UNL     1       3.345   3.108  17.106  0.00  0.00    +0.000 A 
ATOM      5  C   UNL     1       4.258   3.833  17.885  0.00  0.00    +0.000 A 
ATOM      6  C   UNL     1       4.158   3.715  19.288  0.00  0.00    +0.000 A 
ENDROOT
BRANCH   5   7
ATOM      7  C   UNL     1       5.347   4.683  17.276  0.00  0.00    +0.000 C 
ATOM      8  C   UNL     1       6.707   4.630  17.928  0.00  0.00    +0.000 C 
ATOM      9  N   UNL     1       7.642   4.321  16.822  0.00  0.00    +0.000 NA
ATOM     10  C   UNL     1       7.085   4.932  15.604  0.00  0.00    +0.000 C 
ATOM     11  C   UNL     1       5.608   4.829  15.816  0.00  0.00    +0.000 C 
ATOM     12  C   UNL     1       4.889   5.931  16.526  0.00  0.00    +0.000 C 
ATOM     13  H   UNL     1       7.619   3.311  16.687  0.00  0.00    +0.000 HD
ENDBRANCH   5   7
BRANCH   1  15
ATOM     14  C   UNL     1       1.670   2.725  21.720  0.00  0.00    +0.000 C 
ATOM     15  O   UNL     1       3.009   2.736  21.237  0.00  0.00    +0.000 OA
ENDBRANCH   1  15
TORSDOF 2
ENDMDL
MODEL 3
REMARK VINA RESULT:      -6.4      1.198      2.144
REMARK  Name = 
REMARK  3 active torsions:
REMARK  status: ('A' for Active; 'I' for Inactive)
REMARK    1  A    between atoms: C_1  and  O_2
REMARK    2  A    between atoms: O_2  and  C_3
REMARK    3  A    between atoms: C_7  and  C_8
REMARK                            x       y       z     vdW  Elec       q    Type
REMARK                         _______ _______ _______ _____ _____    ______ ____
ROOT
ATOM      1  C   UNL     1       6.306   4.770  18.437  0.00  0.00    +0.000 A 
ATOM      2  C   UNL     1       6.813   4.741  17.141  0.00  0.00    +0.000 A 
ATOM      3  C   UNL     1       6.017   4.311  16.081  0.00  0.00    +0.000 A 
ATOM      4  C   UNL     1       4.702   3.904  16.315  0.00  0.00    +0.000 A 
ATOM      5  C   UNL     1       4.159   3.918  17.609  0.00  0.00    +0.000 A 
ATOM      6  C   UNL     1       4.989   4.363  18.660  0.00  0.00    +0.000 A 
ENDROOT
BRANCH   5   7
ATOM      7  C   UNL     1       2.731   3.518  17.892  0.00  0.00    +0.000 C 
ATOM      8  C   UNL     1       2.376   2.062  17.716  0.00  0.00    +0.000 C 
ATOM      9  N   UNL     1       1.738   1.673  18.995  0.00  0.00    +0.000 NA
ATOM     10  C   UNL     1       1.048   2.867  19.511  0.00  0.00    +0.000 C 
ATOM     11  C   UNL     1       1.920   3.991  19.050  0.00  0.00    +0.000 C 
ATOM     12  C   UNL     1       1.677   4.607  17.709  0.00  0.00    +0.000 C 
ATOM     13  H   UNL     1       2.490   1.457  19.648  0.00  0.00    +0.000 HD
ENDBRANCH   5   7
BRANCH   1  15
ATOM     14  C   UNL     1       8.028   6.305  19.026  0.00  0.00    +0.000 C 
ATOM     15  O   UNL     1       7.184   5.218  19.386  0.00  0.00    +0.000 OA
ENDBRANCH   1  15
TORSDOF 2
ENDMDL
MODEL 4
REMARK VINA RESULT:      -6.4      1.948      2.472
REMARK  Name = 
REMARK  3 active torsions:
REMARK  status: ('A' for Active; 'I' for Inactive)
REMARK    1  A    between atoms: C_1  and  O_2
REMARK    2  A    between atoms: O_2  and  C_3
REMARK    3  A    between atoms: C_7  and  C_8
REMARK                            x       y       z     vdW  Elec       q    Type
REMARK                         _______ _______ _______ _____ _____    ______ ____
ROOT
ATOM      1  C   UNL     1       4.587   5.484  17.161  0.00  0.00    +0.000 A 
ATOM      2  C   UNL     1       4.086   6.774  17.309  0.00  0.00    +0.000 A 
ATOM      3  C   UNL     1       3.029   7.026  18.180  0.00  0.00    +0.000 A 
ATOM      4  C   UNL     1       2.461   5.980  18.911  0.00  0.00    +0.000 A 
ATOM      5  C   UNL     1       2.938   4.666  18.784  0.00  0.00    +0.000 A 
ATOM      6  C   UNL     1       4.013   4.445  17.897  0.00  0.00    +0.000 A 
ENDROOT
BRANCH   5   7
ATOM      7  C   UNL     1       2.371   3.518  19.584  0.00  0.00    +0.000 C 
ATOM      8  C   UNL     1       3.351   2.664  20.351  0.00  0.00    +0.000 C 
ATOM      9  N   UNL     1       2.827   2.643  21.737  0.00  0.00    +0.000 NA
ATOM     10  C   UNL     1       1.361   2.732  21.643  0.00  0.00    +0.000 C 
ATOM     11  C   UNL     1       1.147   3.583  20.432  0.00  0.00    +0.000 C 
ATOM     12  C   UNL     1       1.051   2.936  19.087  0.00  0.00    +0.000 C 
ATOM     13  H   UNL     1       3.150   3.498  22.189  0.00  0.00    +0.000 HD
ENDBRANCH   5   7
BRANCH   1  15
ATOM     14  C   UNL     1       5.987   4.057  15.868  0.00  0.00    +0.000 C 
ATOM     15  O   UNL     1       5.628   5.371  16.282  0.00  0.00    +0.000 OA
ENDBRANCH   1  15
TORSDOF 2
ENDMDL
MODEL 5
REMARK VINA RESULT:      -6.3      2.810      5.102
REMARK  Name = 
REMARK  3 active torsions:
REMARK  status: ('A' for Active; 'I' for Inactive)
REMARK    1  A    between atoms: C_1  and  O_2
REMARK    2  A    between atoms: O_2  and  C_3
REMARK    3  A    between atoms: C_7  and  C_8
REMARK                            x       y       z     vdW  Elec       q    Type
REMARK                         _______ _______ _______ _____ _____    ______ ____
ROOT
ATOM      1  C   UNL     1       2.344   3.756  17.946  0.00  0.00    +0.000 A 
ATOM      2  C   UNL     1       1.862   4.669  18.879  0.00  0.00    +0.000 A 
ATOM      3  C   UNL     1       2.519   5.880  19.087  0.00  0.00    +0.000 A 
ATOM      4  C   UNL     1       3.672   6.183  18.358  0.00  0.00    +0.000 A 
ATOM      5  C   UNL     1       4.188   5.285  17.412  0.00  0.00    +0.000 A 
ATOM      6  C   UNL     1       3.496   4.069  17.221  0.00  0.00    +0.000 A 
ENDROOT
BRANCH   5   7
ATOM      7  C   UNL     1       5.410   5.595  16.583  0.00  0.00    +0.000 C 
ATOM      8  C   UNL     1       6.751   5.486  17.266  0.00  0.00    +0.000 C 
ATOM      9  N   UNL     1       7.550   4.600  16.388  0.00  0.00    +0.000 NA
ATOM     10  C   UNL     1       7.089   4.834  15.009  0.00  0.00    +0.000 C 
ATOM     11  C   UNL     1       5.636   5.140  15.181  0.00  0.00    +0.000 C 
ATOM     12  C   UNL     1       5.206   6.554  15.413  0.00  0.00    +0.000 C 
ATOM     13  H   UNL     1       7.299   3.641  16.627  0.00  0.00    +0.000 HD
ENDBRANCH   5   7
BRANCH   1  15
ATOM     14  C   UNL     1       0.736   2.289  18.911  0.00  0.00    +0.000 C 
ATOM     15  O   UNL     1       1.605   2.610  17.831  0.00  0.00    +0.000 OA
ENDBRANCH   1  15
TORSDOF 2
ENDMDL
MODEL 6
REMARK VINA RESULT:      -6.2      2.906      5.362
REMARK  Name = 
REMARK  3 active torsions:
REMARK  status: ('A' for Active; 'I' for Inactive)
REMARK    1  A    between atoms: C_1  and  O_2
REMARK    2  A    between atoms: O_2  and  C_3
REMARK    3  A    between atoms: C_7  and  C_8
REMARK                            x       y       z     vdW  Elec       q    Type
REMARK                         _______ _______ _______ _____ _____    ______ ____
ROOT
ATOM      1  C   UNL     1       2.365   4.101  20.201  0.00  0.00    +0.000 A 
ATOM      2  C   UNL     1       1.312   3.787  19.346  0.00  0.00    +0.000 A 
ATOM      3  C   UNL     1       1.458   3.920  17.967  0.00  0.00    +0.000 A 
ATOM      4  C   UNL     1       2.666   4.374  17.433  0.00  0.00    +0.000 A 
ATOM      5  C   UNL     1       3.747   4.703  18.264  0.00  0.00    +0.000 A 
ATOM      6  C   UNL     1       3.569   4.553  19.657  0.00  0.00    +0.000 A 
ENDROOT
BRANCH   5   7
ATOM      7  C   UNL     1       5.078   5.163  17.719  0.00  0.00    +0.000 C 
ATOM      8  C   UNL     1       6.273   5.049  18.634  0.00  0.00    +0.000 C 
ATOM      9  N   UNL     1       7.281   4.304  17.845  0.00  0.00    +0.000 NA
ATOM     10  C   UNL     1       7.070   4.662  16.433  0.00  0.00    +0.000 C 
ATOM     11  C   UNL     1       5.592   4.874  16.350  0.00  0.00    +0.000 C 
ATOM     12  C   UNL     1       5.028   6.230  16.629  0.00  0.00    +0.000 C 
ATOM     13  H   UNL     1       7.058   3.314  17.939  0.00  0.00    +0.000 HD
ENDBRANCH   5   7
BRANCH   1  15
ATOM     14  C   UNL     1       1.602   2.647  21.925  0.00  0.00    +0.000 C 
ATOM     15  O   UNL     1       2.097   3.921  21.530  0.00  0.00    +0.000 OA
ENDBRANCH   1  15
TORSDOF 2
ENDMDL
MODEL 7
REMARK VINA RESULT:      -6.2      1.742      1.875
REMARK  Name = 
REMARK  3 active torsions:
REMARK  status: ('A' for Active; 'I' for Inactive)
REMARK    1  A    between atoms: C_1  and  O_2
REMARK    2  A    between atoms: O_2  and  C_3
REMARK    3  A    between atoms: C_7  and  C_8
REMARK                            x       y       z     vdW  Elec       q    Type
REMARK                         _______ _______ _______ _____ _____    ______ ____
ROOT
ATOM      1  C   UNL     1       5.204   4.225  16.300  0.00  0.00    +0.000 A 
ATOM      2  C   UNL     1       5.215   5.617  16.299  0.00  0.00    +0.000 A 
ATOM      3  C   UNL     1       4.361   6.331  17.137  0.00  0.00    +0.000 A 
ATOM      4  C   UNL     1       3.484   5.650  17.984  0.00  0.00    +0.000 A 
ATOM      5  C   UNL     1       3.443   4.248  18.009  0.00  0.00    +0.000 A 
ATOM      6  C   UNL     1       4.324   3.554  17.152  0.00  0.00    +0.000 A 
ENDROOT
BRANCH   5   7
ATOM      7  C   UNL     1       2.534   3.480  18.938  0.00  0.00    +0.000 C 
ATOM      8  C   UNL     1       3.179   2.469  19.853  0.00  0.00    +0.000 C 
ATOM      9  N   UNL     1       2.692   2.822  21.206  0.00  0.00    +0.000 NA
ATOM     10  C   UNL     1       1.338   3.377  21.044  0.00  0.00    +0.000 C 
ATOM     11  C   UNL     1       1.409   4.068  19.720  0.00  0.00    +0.000 C 
ATOM     12  C   UNL     1       1.090   3.305  18.475  0.00  0.00    +0.000 C 
ATOM     13  H   UNL     1       3.286   3.576  21.548  0.00  0.00    +0.000 HD
ENDBRANCH   5   7
BRANCH   1  15
ATOM     14  C   UNL     1       6.421   4.370  14.259  0.00  0.00    +0.000 C 
ATOM     15  O   UNL     1       6.093   3.644  15.438  0.00  0.00    +0.000 OA
ENDBRANCH   1  15
TORSDOF 2
ENDMDL
MODEL 8
REMARK VINA RESULT:      -6.2      2.413      3.336
REMARK  Name = 
REMARK  3 active torsions:
REMARK  status: ('A' for Active; 'I' for Inactive)
REMARK    1  A    between atoms: C_1  and  O_2
REMARK    2  A    between atoms: O_2  and  C_3
REMARK    3  A    between atoms: C_7  and  C_8
REMARK                            x       y       z     vdW  Elec       q    Type
REMARK                         _______ _______ _______ _____ _____    ______ ____
ROOT
ATOM      1  C   UNL     1       3.628   6.402  17.723  0.00  0.00    +0.000 A 
ATOM      2  C   UNL     1       4.553   5.918  16.802  0.00  0.00    +0.000 A 
ATOM      3  C   UNL     1       4.845   4.557  16.742  0.00  0.00    +0.000 A 
ATOM      4  C   UNL     1       4.209   3.668  17.611  0.00  0.00    +0.000 A 
ATOM      5  C   UNL     1       3.274   4.120  18.553  0.00  0.00    +0.000 A 
ATOM      6  C   UNL     1       2.997   5.504  18.586  0.00  0.00    +0.000 A 
ENDROOT
BRANCH   5   7
ATOM      7  C   UNL     1       2.542   3.183  19.483  0.00  0.00    +0.000 C 
ATOM      8  C   UNL     1       3.372   2.431  20.495  0.00  0.00    +0.000 C 
ATOM      9  N   UNL     1       2.719   2.706  21.796  0.00  0.00    +0.000 NA
ATOM     10  C   UNL     1       1.280   2.866  21.529  0.00  0.00    +0.000 C 
ATOM     11  C   UNL     1       1.252   3.484  20.167  0.00  0.00    +0.000 C 
ATOM     12  C   UNL     1       1.231   2.601  18.961  0.00  0.00    +0.000 C 
ATOM     13  H   UNL     1       3.066   3.609  22.117  0.00  0.00    +0.000 HD
ENDBRANCH   5   7
BRANCH   1  15
ATOM     14  C   UNL     1       2.200   8.245  18.204  0.00  0.00    +0.000 C 
ATOM     15  O   UNL     1       3.427   7.754  17.676  0.00  0.00    +0.000 OA
ENDBRANCH   1  15
TORSDOF 2
ENDMDL
MODEL 9
REMARK VINA RESULT:      -6.1      3.022      5.246
REMARK  Name = 
REMARK  3 active torsions:
REMARK  status: ('A' for Active; 'I' for Inactive)
REMARK    1  A    between atoms: C_1  and  O_2
REMARK    2  A    between atoms: O_2  and  C_3
REMARK    3  A    between atoms: C_7  and  C_8
REMARK                            x       y       z     vdW  Elec       q    Type
REMARK                         _______ _______ _______ _____ _____    ______ ____
ROOT
ATOM      1  C   UNL     1       2.311   5.332  19.380  0.00  0.00    +0.000 A 
ATOM      2  C   UNL     1       1.594   4.211  18.971  0.00  0.00    +0.000 A 
ATOM      3  C   UNL     1       2.039   3.438  17.901  0.00  0.00    +0.000 A 
ATOM      4  C   UNL     1       3.212   3.787  17.229  0.00  0.00    +0.000 A 
ATOM      5  C   UNL     1       3.959   4.911  17.610  0.00  0.00    +0.000 A 
ATOM      6  C   UNL     1       3.484   5.671  18.701  0.00  0.00    +0.000 A 
ENDROOT
BRANCH   5   7
ATOM      7  C   UNL     1       5.250   5.296  16.928  0.00  0.00    +0.000 C 
ATOM      8  C   UNL     1       6.523   5.138  17.723  0.00  0.00    +0.000 C 
ATOM      9  N   UNL     1       7.411   4.332  16.854  0.00  0.00    +0.000 NA
ATOM     10  C   UNL     1       7.079   4.678  15.462  0.00  0.00    +0.000 C 
ATOM     11  C   UNL     1       5.612   4.961  15.521  0.00  0.00    +0.000 C 
ATOM     12  C   UNL     1       5.143   6.348  15.827  0.00  0.00    +0.000 C 
ATOM     13  H   UNL     1       7.152   3.355  16.989  0.00  0.00    +0.000 HD
ENDBRANCH   5   7
BRANCH   1  15
ATOM     14  C   UNL     1       1.845   7.421  20.421  0.00  0.00    +0.000 C 
ATOM     15  O   UNL     1       1.773   6.000  20.444  0.00  0.00    +0.000 OA
ENDBRANCH   1  15
TORSDOF 2
ENDMDL
