MODEL 1
REMARK VINA RESULT:      -8.1      0.000      0.000
REMARK  Name = 
REMARK  4 active torsions:
REMARK  status: ('A' for Active; 'I' for Inactive)
REMARK    1  A    between atoms: C_1  and  N_2
REMARK    2  A    between atoms: C_4  and  C_5
REMARK    3  A    between atoms: C_11  and  C_12
REMARK    4  A    between atoms: C_17  and  C_18
REMARK                            x       y       z     vdW  Elec       q    Type
REMARK                         _______ _______ _______ _____ _____    ______ ____
ROOT
ATOM      1  C   UNL     1       2.085   6.473  20.077  0.00  0.00    +0.000 A 
ATOM      2  C   UNL     1       1.584   5.515  20.960  0.00  0.00    +0.000 A 
ATOM      3  N   UNL     1       1.895   4.196  20.973  0.00  0.00    +0.000 NA
ATOM      4  C   UNL     1       2.788   3.862  20.025  0.00  0.00    +0.000 A 
ATOM      5  N   UNL     1       3.256   2.596  19.835  0.00  0.00    +0.000 N 
ATOM      6  C   UNL     1       4.208   2.597  18.848  0.00  0.00    +0.000 A 
ATOM      7  C   UNL     1       4.306   3.875  18.322  0.00  0.00    +0.000 A 
ATOM      8  C   UNL     1       3.394   4.691  19.086  0.00  0.00    +0.000 A 
ATOM      9  C   UNL     1       3.003   6.047  19.108  0.00  0.00    +0.000 A 
ATOM     10  H   UNL     1       2.954   1.800  20.378  0.00  0.00    +0.000 HD
ENDROOT
BRANCH   1  14
ATOM     11  C   UNL     1       1.024  11.163  18.830  0.00  0.00    +0.000 C 
ATOM     12  N   UNL     1       1.184   9.927  19.557  0.00  0.00    +0.000 N 
ATOM     13  C   UNL     1       1.619   8.730  19.062  0.00  0.00    +0.000 A 
ATOM     14  C   UNL     1       1.661   7.860  20.132  0.00  0.00    +0.000 A 
ATOM     15  C   UNL     1       1.204   8.639  21.220  0.00  0.00    +0.000 A 
ATOM     16  N   UNL     1       0.912   9.893  20.872  0.00  0.00    +0.000 NA
ENDBRANCH   1  14
BRANCH   7  17
ATOM     17  C   UNL     1       5.253   4.250  17.260  0.00  0.00    +0.000 A 
ATOM     18  C   UNL     1       4.910   3.958  15.926  0.00  0.00    +0.000 A 
ATOM     19  C   UNL     1       5.753   4.289  14.860  0.00  0.00    +0.000 A 
ATOM     20  C   UNL     1       6.949   4.952  15.100  0.00  0.00    +0.000 A 
ATOM     21  C   UNL     1       7.309   5.264  16.407  0.00  0.00    +0.000 A 
ATOM     22  C   UNL     1       6.483   4.905  17.492  0.00  0.00    +0.000 A 
BRANCH  22  23
ATOM     23  C   UNL     1       6.970   5.228  18.803  0.00  0.00    +0.000 C 
ATOM     24  N   UNL     1       7.357   5.445  19.877  0.00  0.00    +0.000 NA
ENDBRANCH  22  23
ENDBRANCH   7  17
TORSDOF 3
ENDMDL
MODEL 2
REMARK VINA RESULT:      -8.0      0.772      1.136
REMARK  Name = 
REMARK  4 active torsions:
REMARK  status: ('A' for Active; 'I' for Inactive)
REMARK    1  A    between atoms: C_1  and  N_2
REMARK    2  A    between atoms: C_4  and  C_5
REMARK    3  A    between atoms: C_11  and  C_12
REMARK    4  A    between atoms: C_17  and  C_18
REMARK                            x       y       z     vdW  Elec       q    Type
REMARK                         _______ _______ _______ _____ _____    ______ ____
ROOT
ATOM      1  C   UNL     1       2.220   7.097  19.498  0.00  0.00    +0.000 A 
ATOM      2  C   UNL     1       1.787   6.340  20.587  0.00  0.00    +0.000 A 
ATOM      3  N   UNL     1       2.143   5.063  20.867  0.00  0.00    +0.000 NA
ATOM      4  C   UNL     1       3.009   4.554  19.973  0.00  0.00    +0.000 A 
ATOM      5  N   UNL     1       3.511   3.289  20.037  0.00  0.00    +0.000 N 
ATOM      6  C   UNL     1       4.423   3.101  19.029  0.00  0.00    +0.000 A 
ATOM      7  C   UNL     1       4.456   4.238  18.238  0.00  0.00    +0.000 A 
ATOM      8  C   UNL     1       3.548   5.176  18.851  0.00  0.00    +0.000 A 
ATOM      9  C   UNL     1       3.113   6.495  18.600  0.00  0.00    +0.000 A 
ATOM     10  H   UNL     1       3.258   2.621  20.751  0.00  0.00    +0.000 HD
ENDROOT
BRANCH   1  14
ATOM     11  C   UNL     1       0.032  11.519  20.082  0.00  0.00    +0.000 C 
ATOM     12  N   UNL     1       0.789  10.408  19.557  0.00  0.00    +0.000 N 
ATOM     13  C   UNL     1       1.042   9.217  20.178  0.00  0.00    +0.000 A 
ATOM     14  C   UNL     1       1.751   8.452  19.274  0.00  0.00    +0.000 A 
ATOM     15  C   UNL     1       1.889   9.298  18.149  0.00  0.00    +0.000 A 
ATOM     16  N   UNL     1       1.307  10.486  18.320  0.00  0.00    +0.000 NA
ENDBRANCH   1  14
BRANCH   7  17
ATOM     17  C   UNL     1       5.347   4.398  17.078  0.00  0.00    +0.000 A 
ATOM     18  C   UNL     1       4.835   4.113  15.798  0.00  0.00    +0.000 A 
ATOM     19  C   UNL     1       5.616   4.248  14.645  0.00  0.00    +0.000 A 
ATOM     20  C   UNL     1       6.922   4.705  14.741  0.00  0.00    +0.000 A 
ATOM     21  C   UNL     1       7.453   5.006  15.993  0.00  0.00    +0.000 A 
ATOM     22  C   UNL     1       6.685   4.842  17.164  0.00  0.00    +0.000 A 
BRANCH  22  23
ATOM     23  C   UNL     1       7.343   5.132  18.406  0.00  0.00    +0.000 C 
ATOM     24  N   UNL     1       7.835   5.391  19.427  0.00  0.00    +0.000 NA
ENDBRANCH  22  23
ENDBRANCH   7  17
TORSDOF 3
ENDMDL
MODEL 3
REMARK VINA RESULT:      -7.7      3.078      7.117
REMARK  Name = 
REMARK  4 active torsions:
REMARK  status: ('A' for Active; 'I' for Inactive)
REMARK    1  A    between atoms: C_1  and  N_2
REMARK    2  A    between atoms: C_4  and  C_5
REMARK    3  A    between atoms: C_11  and  C_12
REMARK    4  A    between atoms: C_17  and  C_18
REMARK                            x       y       z     vdW  Elec       q    Type
REMARK                         _______ _______ _______ _____ _____    ______ ____
ROOT
ATOM      1  C   UNL     1       6.090   4.224  15.105  0.00  0.00    +0.000 A 
ATOM      2  C   UNL     1       7.320   4.733  15.522  0.00  0.00    +0.000 A 
ATOM      3  N   UNL     1       7.644   5.111  16.782  0.00  0.00    +0.000 NA
ATOM      4  C   UNL     1       6.639   4.932  17.656  0.00  0.00    +0.000 A 
ATOM      5  N   UNL     1       6.720   5.239  18.982  0.00  0.00    +0.000 N 
ATOM      6  C   UNL     1       5.562   4.869  19.615  0.00  0.00    +0.000 A 
ATOM      7  C   UNL     1       4.670   4.387  18.671  0.00  0.00    +0.000 A 
ATOM      8  C   UNL     1       5.368   4.423  17.409  0.00  0.00    +0.000 A 
ATOM      9  C   UNL     1       5.084   4.077  16.071  0.00  0.00    +0.000 A 
ATOM     10  H   UNL     1       7.538   5.647  19.413  0.00  0.00    +0.000 HD
ENDROOT
BRANCH   1  14
ATOM     11  C   UNL     1       3.815   3.055  10.845  0.00  0.00    +0.000 C 
ATOM     12  N   UNL     1       4.810   3.376  11.840  0.00  0.00    +0.000 N 
ATOM     13  C   UNL     1       4.590   3.717  13.145  0.00  0.00    +0.000 A 
ATOM     14  C   UNL     1       5.836   3.877  13.718  0.00  0.00    +0.000 A 
ATOM     15  C   UNL     1       6.733   3.631  12.653  0.00  0.00    +0.000 A 
ATOM     16  N   UNL     1       6.112   3.329  11.512  0.00  0.00    +0.000 NA
ENDBRANCH   1  14
BRANCH   7  17
ATOM     17  C   UNL     1       3.332   3.872  19.001  0.00  0.00    +0.000 A 
ATOM     18  C   UNL     1       3.095   2.490  18.866  0.00  0.00    +0.000 A 
ATOM     19  C   UNL     1       1.852   1.923  19.167  0.00  0.00    +0.000 A 
ATOM     20  C   UNL     1       0.822   2.721  19.644  0.00  0.00    +0.000 A 
ATOM     21  C   UNL     1       1.030   4.089  19.799  0.00  0.00    +0.000 A 
ATOM     22  C   UNL     1       2.268   4.676  19.466  0.00  0.00    +0.000 A 
BRANCH  22  23
ATOM     23  C   UNL     1       2.361   6.100  19.615  0.00  0.00    +0.000 C 
ATOM     24  N   UNL     1       2.409   7.259  19.697  0.00  0.00    +0.000 NA
ENDBRANCH  22  23
ENDBRANCH   7  17
TORSDOF 3
ENDMDL
MODEL 4
REMARK VINA RESULT:      -7.7      3.452      7.117
REMARK  Name = 
REMARK  4 active torsions:
REMARK  status: ('A' for Active; 'I' for Inactive)
REMARK    1  A    between atoms: C_1  and  N_2
REMARK    2  A    between atoms: C_4  and  C_5
REMARK    3  A    between atoms: C_11  and  C_12
REMARK    4  A    between atoms: C_17  and  C_18
REMARK                            x       y       z     vdW  Elec       q    Type
REMARK                         _______ _______ _______ _____ _____    ______ ____
ROOT
ATOM      1  C   UNL     1       6.150   4.255  15.016  0.00  0.00    +0.000 A 
ATOM      2  C   UNL     1       7.368   4.814  15.403  0.00  0.00    +0.000 A 
ATOM      3  N   UNL     1       7.702   5.222  16.652  0.00  0.00    +0.000 NA
ATOM      4  C   UNL     1       6.719   5.020  17.547  0.00  0.00    +0.000 A 
ATOM      5  N   UNL     1       6.814   5.348  18.866  0.00  0.00    +0.000 N 
ATOM      6  C   UNL     1       5.681   4.947  19.526  0.00  0.00    +0.000 A 
ATOM      7  C   UNL     1       4.790   4.420  18.605  0.00  0.00    +0.000 A 
ATOM      8  C   UNL     1       5.463   4.462  17.330  0.00  0.00    +0.000 A 
ATOM      9  C   UNL     1       5.168   4.087  16.002  0.00  0.00    +0.000 A 
ATOM     10  H   UNL     1       7.623   5.791  19.277  0.00  0.00    +0.000 HD
ENDROOT
BRANCH   1  14
ATOM     11  C   UNL     1       3.838   2.994  10.804  0.00  0.00    +0.000 C 
ATOM     12  N   UNL     1       4.841   3.337  11.782  0.00  0.00    +0.000 N 
ATOM     13  C   UNL     1       4.633   3.704  13.082  0.00  0.00    +0.000 A 
ATOM     14  C   UNL     1       5.884   3.880  13.639  0.00  0.00    +0.000 A 
ATOM     15  C   UNL     1       6.772   3.614  12.571  0.00  0.00    +0.000 A 
ATOM     16  N   UNL     1       6.140   3.287  11.442  0.00  0.00    +0.000 NA
ENDBRANCH   1  14
BRANCH   7  17
ATOM     17  C   UNL     1       3.477   3.862  18.968  0.00  0.00    +0.000 A 
ATOM     18  C   UNL     1       2.326   4.439  18.397  0.00  0.00    +0.000 A 
ATOM     19  C   UNL     1       1.043   3.962  18.685  0.00  0.00    +0.000 A 
ATOM     20  C   UNL     1       0.881   2.871  19.528  0.00  0.00    +0.000 A 
ATOM     21  C   UNL     1       2.001   2.273  20.098  0.00  0.00    +0.000 A 
ATOM     22  C   UNL     1       3.296   2.768  19.841  0.00  0.00    +0.000 A 
BRANCH  22  23
ATOM     23  C   UNL     1       4.378   2.111  20.518  0.00  0.00    +0.000 C 
ATOM     24  N   UNL     1       5.268   1.560  21.025  0.00  0.00    +0.000 NA
ENDBRANCH  22  23
ENDBRANCH   7  17
TORSDOF 3
ENDMDL
MODEL 5
REMARK VINA RESULT:      -7.5      2.508      4.533
REMARK  Name = 
REMARK  4 active torsions:
REMARK  status: ('A' for Active; 'I' for Inactive)
REMARK    1  A    between atoms: C_1  and  N_2
REMARK    2  A    between atoms: C_4  and  C_5
REMARK    3  A    between atoms: C_11  and  C_12
REMARK    4  A    between atoms: C_17  and  C_18
REMARK                            x       y       z     vdW  Elec       q    Type
REMARK                         _______ _______ _______ _____ _____    ______ ____
ROOT
ATOM      1  C   UNL     1       1.058   9.332  20.309  0.00  0.00    +0.000 A 
ATOM      2  C   UNL     1       1.385  10.028  19.145  0.00  0.00    +0.000 A 
ATOM      3  N   UNL     1       2.069   9.537  18.083  0.00  0.00    +0.000 NA
ATOM      4  C   UNL     1       2.416   8.247  18.237  0.00  0.00    +0.000 A 
ATOM      5  N   UNL     1       3.111   7.531  17.308  0.00  0.00    +0.000 N 
ATOM      6  C   UNL     1       3.239   6.231  17.726  0.00  0.00    +0.000 A 
ATOM      7  C   UNL     1       2.689   6.112  18.992  0.00  0.00    +0.000 A 
ATOM      8  C   UNL     1       2.154   7.412  19.318  0.00  0.00    +0.000 A 
ATOM      9  C   UNL     1       1.465   7.993  20.403  0.00  0.00    +0.000 A 
ATOM     10  H   UNL     1       3.441   7.918  16.436  0.00  0.00    +0.000 HD
ENDROOT
BRANCH   1  14
ATOM     11  C   UNL     1      -1.643  12.514  23.004  0.00  0.00    +0.000 C 
ATOM     12  N   UNL     1      -0.864  11.377  22.576  0.00  0.00    +0.000 N 
ATOM     13  C   UNL     1      -0.382  11.134  21.320  0.00  0.00    +0.000 A 
ATOM     14  C   UNL     1       0.346   9.964  21.404  0.00  0.00    +0.000 A 
ATOM     15  C   UNL     1       0.210   9.577  22.758  0.00  0.00    +0.000 A 
ATOM     16  N   UNL     1      -0.526  10.433  23.470  0.00  0.00    +0.000 NA
ENDBRANCH   1  14
BRANCH   7  17
ATOM     17  C   UNL     1       2.626   4.845  19.738  0.00  0.00    +0.000 A 
ATOM     18  C   UNL     1       1.414   4.499  20.365  0.00  0.00    +0.000 A 
ATOM     19  C   UNL     1       1.271   3.308  21.086  0.00  0.00    +0.000 A 
ATOM     20  C   UNL     1       2.331   2.416  21.170  0.00  0.00    +0.000 A 
ATOM     21  C   UNL     1       3.538   2.726  20.550  0.00  0.00    +0.000 A 
ATOM     22  C   UNL     1       3.703   3.938  19.850  0.00  0.00    +0.000 A 
BRANCH  22  23
ATOM     23  C   UNL     1       5.002   4.183  19.291  0.00  0.00    +0.000 C 
ATOM     24  N   UNL     1       6.049   4.343  18.811  0.00  0.00    +0.000 NA
ENDBRANCH  22  23
ENDBRANCH   7  17
TORSDOF 3
ENDMDL
MODEL 6
REMARK VINA RESULT:      -7.1      1.021      1.176
REMARK  Name = 
REMARK  4 active torsions:
REMARK  status: ('A' for Active; 'I' for Inactive)
REMARK    1  A    between atoms: C_1  and  N_2
REMARK    2  A    between atoms: C_4  and  C_5
REMARK    3  A    between atoms: C_11  and  C_12
REMARK    4  A    between atoms: C_17  and  C_18
REMARK                            x       y       z     vdW  Elec       q    Type
REMARK                         _______ _______ _______ _____ _____    ______ ____
ROOT
ATOM      1  C   UNL     1       2.012   7.592  19.465  0.00  0.00    +0.000 A 
ATOM      2  C   UNL     1       1.434   6.886  20.521  0.00  0.00    +0.000 A 
ATOM      3  N   UNL     1       1.665   5.589  20.839  0.00  0.00    +0.000 NA
ATOM      4  C   UNL     1       2.560   5.003  20.024  0.00  0.00    +0.000 A 
ATOM      5  N   UNL     1       2.956   3.704  20.140  0.00  0.00    +0.000 N 
ATOM      6  C   UNL     1       3.930   3.433  19.213  0.00  0.00    +0.000 A 
ATOM      7  C   UNL     1       4.116   4.553  18.418  0.00  0.00    +0.000 A 
ATOM      8  C   UNL     1       3.236   5.566  18.946  0.00  0.00    +0.000 A 
ATOM      9  C   UNL     1       2.926   6.910  18.650  0.00  0.00    +0.000 A 
ATOM     10  H   UNL     1       2.594   3.068  20.835  0.00  0.00    +0.000 HD
ENDROOT
BRANCH   1  14
ATOM     11  C   UNL     1       2.198  12.311  17.924  0.00  0.00    +0.000 C 
ATOM     12  N   UNL     1       1.765  11.056  18.490  0.00  0.00    +0.000 N 
ATOM     13  C   UNL     1       2.451   9.874  18.494  0.00  0.00    +0.000 A 
ATOM     14  C   UNL     1       1.669   8.976  19.192  0.00  0.00    +0.000 A 
ATOM     15  C   UNL     1       0.521   9.724  19.540  0.00  0.00    +0.000 A 
ATOM     16  N   UNL     1       0.577  10.987  19.113  0.00  0.00    +0.000 NA
ENDBRANCH   1  14
BRANCH   7  17
ATOM     17  C   UNL     1       5.109   4.628  17.335  0.00  0.00    +0.000 A 
ATOM     18  C   UNL     1       4.691   4.330  16.024  0.00  0.00    +0.000 A 
ATOM     19  C   UNL     1       5.573   4.386  14.939  0.00  0.00    +0.000 A 
ATOM     20  C   UNL     1       6.890   4.775  15.135  0.00  0.00    +0.000 A 
ATOM     21  C   UNL     1       7.330   5.086  16.418  0.00  0.00    +0.000 A 
ATOM     22  C   UNL     1       6.458   5.000  17.523  0.00  0.00    +0.000 A 
BRANCH  22  23
ATOM     23  C   UNL     1       7.024   5.294  18.809  0.00  0.00    +0.000 C 
ATOM     24  N   UNL     1       7.526   5.529  19.831  0.00  0.00    +0.000 NA
ENDBRANCH  22  23
ENDBRANCH   7  17
TORSDOF 3
ENDMDL
MODEL 7
REMARK VINA RESULT:      -7.0      3.209      7.157
REMARK  Name = 
REMARK  4 active torsions:
REMARK  status: ('A' for Active; 'I' for Inactive)
REMARK    1  A    between atoms: C_1  and  N_2
REMARK    2  A    between atoms: C_4  and  C_5
REMARK    3  A    between atoms: C_11  and  C_12
REMARK    4  A    between atoms: C_17  and  C_18
REMARK                            x       y       z     vdW  Elec       q    Type
REMARK                         _______ _______ _______ _____ _____    ______ ____
ROOT
ATOM      1  C   UNL     1       6.103   4.168  15.086  0.00  0.00    +0.000 A 
ATOM      2  C   UNL     1       7.397   4.538  15.452  0.00  0.00    +0.000 A 
ATOM      3  N   UNL     1       7.804   4.910  16.690  0.00  0.00    +0.000 NA
ATOM      4  C   UNL     1       6.812   4.878  17.597  0.00  0.00    +0.000 A 
ATOM      5  N   UNL     1       6.971   5.211  18.909  0.00  0.00    +0.000 N 
ATOM      6  C   UNL     1       5.797   5.001  19.586  0.00  0.00    +0.000 A 
ATOM      7  C   UNL     1       4.825   4.602  18.683  0.00  0.00    +0.000 A 
ATOM      8  C   UNL     1       5.482   4.518  17.402  0.00  0.00    +0.000 A 
ATOM      9  C   UNL     1       5.118   4.171  16.084  0.00  0.00    +0.000 A 
ATOM     10  H   UNL     1       7.844   5.530  19.305  0.00  0.00    +0.000 HD
ENDROOT
BRANCH   1  14
ATOM     11  C   UNL     1       3.574   3.188  10.923  0.00  0.00    +0.000 C 
ATOM     12  N   UNL     1       4.630   3.400  11.884  0.00  0.00    +0.000 N 
ATOM     13  C   UNL     1       4.495   3.810  13.180  0.00  0.00    +0.000 A 
ATOM     14  C   UNL     1       5.766   3.815  13.719  0.00  0.00    +0.000 A 
ATOM     15  C   UNL     1       6.592   3.412  12.644  0.00  0.00    +0.000 A 
ATOM     16  N   UNL     1       5.904   3.162  11.528  0.00  0.00    +0.000 NA
ENDBRANCH   1  14
BRANCH   7  17
ATOM     17  C   UNL     1       3.446   4.261  19.067  0.00  0.00    +0.000 A 
ATOM     18  C   UNL     1       2.628   5.279  19.595  0.00  0.00    +0.000 A 
ATOM     19  C   UNL     1       1.304   5.036  19.976  0.00  0.00    +0.000 A 
ATOM     20  C   UNL     1       0.753   3.774  19.807  0.00  0.00    +0.000 A 
ATOM     21  C   UNL     1       1.534   2.750  19.278  0.00  0.00    +0.000 A 
ATOM     22  C   UNL     1       2.879   2.976  18.922  0.00  0.00    +0.000 A 
BRANCH  22  23
ATOM     23  C   UNL     1       3.611   1.841  18.432  0.00  0.00    +0.000 C 
ATOM     24  N   UNL     1       4.164   0.896  18.043  0.00  0.00    +0.000 NA
ENDBRANCH  22  23
ENDBRANCH   7  17
TORSDOF 3
ENDMDL
MODEL 8
REMARK VINA RESULT:      -7.0      3.403      7.426
REMARK  Name = 
REMARK  4 active torsions:
REMARK  status: ('A' for Active; 'I' for Inactive)
REMARK    1  A    between atoms: C_1  and  N_2
REMARK    2  A    between atoms: C_4  and  C_5
REMARK    3  A    between atoms: C_11  and  C_12
REMARK    4  A    between atoms: C_17  and  C_18
REMARK                            x       y       z     vdW  Elec       q    Type
REMARK                         _______ _______ _______ _____ _____    ______ ____
ROOT
ATOM      1  C   UNL     1       5.963   4.183  14.686  0.00  0.00    +0.000 A 
ATOM      2  C   UNL     1       7.053   4.985  15.026  0.00  0.00    +0.000 A 
ATOM      3  N   UNL     1       7.245   5.617  16.209  0.00  0.00    +0.000 NA
ATOM      4  C   UNL     1       6.255   5.387  17.090  0.00  0.00    +0.000 A 
ATOM      5  N   UNL     1       6.219   5.914  18.346  0.00  0.00    +0.000 N 
ATOM      6  C   UNL     1       5.126   5.430  19.020  0.00  0.00    +0.000 A 
ATOM      7  C   UNL     1       4.385   4.636  18.160  0.00  0.00    +0.000 A 
ATOM      8  C   UNL     1       5.118   4.605  16.917  0.00  0.00    +0.000 A 
ATOM      9  C   UNL     1       4.964   3.999  15.652  0.00  0.00    +0.000 A 
ATOM     10  H   UNL     1       6.923   6.538  18.713  0.00  0.00    +0.000 HD
ENDROOT
BRANCH   1  14
ATOM     11  C   UNL     1       6.962   1.740  10.476  0.00  0.00    +0.000 C 
ATOM     12  N   UNL     1       6.298   2.477  11.525  0.00  0.00    +0.000 N 
ATOM     13  C   UNL     1       6.820   2.841  12.734  0.00  0.00    +0.000 A 
ATOM     14  C   UNL     1       5.841   3.574  13.374  0.00  0.00    +0.000 A 
ATOM     15  C   UNL     1       4.760   3.565  12.462  0.00  0.00    +0.000 A 
ATOM     16  N   UNL     1       5.036   2.898  11.340  0.00  0.00    +0.000 NA
ENDBRANCH   1  14
BRANCH   7  17
ATOM     17  C   UNL     1       3.158   3.928  18.556  0.00  0.00    +0.000 A 
ATOM     18  C   UNL     1       1.930   4.376  18.033  0.00  0.00    +0.000 A 
ATOM     19  C   UNL     1       0.720   3.751  18.356  0.00  0.00    +0.000 A 
ATOM     20  C   UNL     1       0.713   2.640  19.187  0.00  0.00    +0.000 A 
ATOM     21  C   UNL     1       1.913   2.168  19.711  0.00  0.00    +0.000 A 
ATOM     22  C   UNL     1       3.134   2.810  19.418  0.00  0.00    +0.000 A 
BRANCH  22  23
ATOM     23  C   UNL     1       4.306   2.273  20.049  0.00  0.00    +0.000 C 
ATOM     24  N   UNL     1       5.228   1.811  20.586  0.00  0.00    +0.000 NA
ENDBRANCH  22  23
ENDBRANCH   7  17
TORSDOF 3
ENDMDL
MODEL 9
REMARK VINA RESULT:      -7.0      3.199      7.456
REMARK  Name = 
REMARK  4 active torsions:
REMARK  status: ('A' for Active; 'I' for Inactive)
REMARK    1  A    between atoms: C_1  and  N_2
REMARK    2  A    between atoms: C_4  and  C_5
REMARK    3  A    between atoms: C_11  and  C_12
REMARK    4  A    between atoms: C_17  and  C_18
REMARK                            x       y       z     vdW  Elec       q    Type
REMARK                         _______ _______ _______ _____ _____    ______ ____
ROOT
ATOM      1  C   UNL     1       5.950   4.247  14.653  0.00  0.00    +0.000 A 
ATOM      2  C   UNL     1       7.088   5.028  14.858  0.00  0.00    +0.000 A 
ATOM      3  N   UNL     1       7.406   5.697  15.992  0.00  0.00    +0.000 NA
ATOM      4  C   UNL     1       6.499   5.528  16.970  0.00  0.00    +0.000 A 
ATOM      5  N   UNL     1       6.596   6.101  18.203  0.00  0.00    +0.000 N 
ATOM      6  C   UNL     1       5.560   5.675  18.995  0.00  0.00    +0.000 A 
ATOM      7  C   UNL     1       4.720   4.872  18.239  0.00  0.00    +0.000 A 
ATOM      8  C   UNL     1       5.331   4.774  16.935  0.00  0.00    +0.000 A 
ATOM      9  C   UNL     1       5.042   4.128  15.715  0.00  0.00    +0.000 A 
ATOM     10  H   UNL     1       7.347   6.717  18.477  0.00  0.00    +0.000 HD
ENDROOT
BRANCH   1  14
ATOM     11  C   UNL     1       6.383   1.413  10.595  0.00  0.00    +0.000 C 
ATOM     12  N   UNL     1       5.892   2.323  11.602  0.00  0.00    +0.000 N 
ATOM     13  C   UNL     1       6.498   2.654  12.781  0.00  0.00    +0.000 A 
ATOM     14  C   UNL     1       5.688   3.595  13.383  0.00  0.00    +0.000 A 
ATOM     15  C   UNL     1       4.605   3.735  12.484  0.00  0.00    +0.000 A 
ATOM     16  N   UNL     1       4.727   2.962  11.403  0.00  0.00    +0.000 NA
ENDBRANCH   1  14
BRANCH   7  17
ATOM     17  C   UNL     1       3.518   4.216  18.776  0.00  0.00    +0.000 A 
ATOM     18  C   UNL     1       3.444   2.811  18.724  0.00  0.00    +0.000 A 
ATOM     19  C   UNL     1       2.339   2.112  19.220  0.00  0.00    +0.000 A 
ATOM     20  C   UNL     1       1.291   2.802  19.813  0.00  0.00    +0.000 A 
ATOM     21  C   UNL     1       1.341   4.191  19.890  0.00  0.00    +0.000 A 
ATOM     22  C   UNL     1       2.435   4.907  19.362  0.00  0.00    +0.000 A 
BRANCH  22  23
ATOM     23  C   UNL     1       2.365   6.338  19.447  0.00  0.00    +0.000 C 
ATOM     24  N   UNL     1       2.262   7.495  19.501  0.00  0.00    +0.000 NA
ENDBRANCH  22  23
ENDBRANCH   7  17
TORSDOF 3
ENDMDL
