MODEL 1
REMARK VINA RESULT:      -7.2      0.000      0.000
REMARK  Name = 
REMARK  7 active torsions:
REMARK  status: ('A' for Active; 'I' for Inactive)
REMARK    1  A    between atoms: C_1  and  N_2
REMARK    2  A    between atoms: N_2  and  C_3
REMARK    3  A    between atoms: N_2  and  C_10
REMARK    4  A    between atoms: C_3  and  C_4
REMARK    5  A    between atoms: C_10  and  C_11
REMARK    6  A    between atoms: N_16  and  C_17
REMARK    7  A    between atoms: N_20  and  C_21
REMARK                            x       y       z     vdW  Elec       q    Type
REMARK                         _______ _______ _______ _____ _____    ______ ____
ROOT
ATOM      1  C   UNL     1       2.487   8.143  17.794  0.00  0.00    +0.000 A 
ATOM      2  N   UNL     1       3.620   8.048  17.123  0.00  0.00    +0.000 NA
ATOM      3  C   UNL     1       4.239   6.917  17.595  0.00  0.00    +0.000 A 
ATOM      4  C   UNL     1       5.504   6.362  17.181  0.00  0.00    +0.000 A 
ATOM      5  O   UNL     1       6.187   6.881  16.297  0.00  0.00    +0.000 OA
ATOM      6  N   UNL     1       5.882   5.207  17.859  0.00  0.00    +0.000 N 
ATOM      7  C   UNL     1       7.150   4.592  17.516  0.00  0.00    +0.000 C 
ATOM      8  C   UNL     1       5.146   4.577  18.857  0.00  0.00    +0.000 A 
ATOM      9  O   UNL     1       5.494   3.566  19.446  0.00  0.00    +0.000 OA
ATOM     10  N   UNL     1       3.881   5.177  19.214  0.00  0.00    +0.000 N 
ATOM     11  C   UNL     1       3.068   4.553  20.264  0.00  0.00    +0.000 C 
ATOM     12  C   UNL     1       3.480   6.325  18.567  0.00  0.00    +0.000 A 
ATOM     13  N   UNL     1       2.359   7.099  18.688  0.00  0.00    +0.000 N 
ATOM     14  H   UNL     1       1.551   6.940  19.273  0.00  0.00    +0.000 HD
ENDROOT
BRANCH   1  15
ATOM     15  C   UNL     1       1.421   9.184  17.593  0.00  0.00    +0.000 C 
BRANCH  15  17
ATOM     16  C   UNL     1       1.955  11.392  18.365  0.00  0.00    +0.000 C 
ATOM     17  N   UNL     1       1.309  10.117  18.736  0.00  0.00    +0.000 NA
BRANCH  17  18
ATOM     18  C   UNL     1      -0.120  10.363  19.058  0.00  0.00    +0.000 C 
BRANCH  18  19
ATOM     19  C   UNL     1      -0.417  10.309  20.541  0.00  0.00    +0.000 A 
ATOM     20  C   UNL     1      -0.870  11.446  21.226  0.00  0.00    +0.000 A 
ATOM     21  C   UNL     1      -1.052  11.412  22.610  0.00  0.00    +0.000 A 
ATOM     22  C   UNL     1      -0.806  10.235  23.314  0.00  0.00    +0.000 A 
ATOM     23  C   UNL     1      -0.389   9.090  22.638  0.00  0.00    +0.000 A 
ATOM     24  C   UNL     1      -0.199   9.124  21.258  0.00  0.00    +0.000 A 
ENDBRANCH  18  19
ENDBRANCH  17  18
ENDBRANCH  15  17
ENDBRANCH   1  15
TORSDOF 4
ENDMDL
MODEL 2
REMARK VINA RESULT:      -7.1      0.326      1.046
REMARK  Name = 
REMARK  7 active torsions:
REMARK  status: ('A' for Active; 'I' for Inactive)
REMARK    1  A    between atoms: C_1  and  N_2
REMARK    2  A    between atoms: N_2  and  C_3
REMARK    3  A    between atoms: N_2  and  C_10
REMARK    4  A    between atoms: C_3  and  C_4
REMARK    5  A    between atoms: C_10  and  C_11
REMARK    6  A    between atoms: N_16  and  C_17
REMARK    7  A    between atoms: N_20  and  C_21
REMARK                            x       y       z     vdW  Elec       q    Type
REMARK                         _______ _______ _______ _____ _____    ______ ____
ROOT
ATOM      1  C   UNL     1       2.332   8.250  17.906  0.00  0.00    +0.000 A 
ATOM      2  N   UNL     1       3.414   8.128  17.159  0.00  0.00    +0.000 NA
ATOM      3  C   UNL     1       4.038   6.984  17.591  0.00  0.00    +0.000 A 
ATOM      4  C   UNL     1       5.259   6.401  17.092  0.00  0.00    +0.000 A 
ATOM      5  O   UNL     1       5.891   6.903  16.162  0.00  0.00    +0.000 OA
ATOM      6  N   UNL     1       5.658   5.239  17.746  0.00  0.00    +0.000 N 
ATOM      7  C   UNL     1       6.885   4.595  17.319  0.00  0.00    +0.000 C 
ATOM      8  C   UNL     1       4.979   4.627  18.794  0.00  0.00    +0.000 A 
ATOM      9  O   UNL     1       5.343   3.609  19.362  0.00  0.00    +0.000 OA
ATOM     10  N   UNL     1       3.754   5.255  19.236  0.00  0.00    +0.000 N 
ATOM     11  C   UNL     1       3.002   4.651  20.341  0.00  0.00    +0.000 C 
ATOM     12  C   UNL     1       3.336   6.412  18.614  0.00  0.00    +0.000 A 
ATOM     13  N   UNL     1       2.243   7.210  18.810  0.00  0.00    +0.000 N 
ATOM     14  H   UNL     1       1.474   7.070  19.450  0.00  0.00    +0.000 HD
ENDROOT
BRANCH   1  15
ATOM     15  C   UNL     1       1.277   9.314  17.776  0.00  0.00    +0.000 C 
BRANCH  15  17
ATOM     16  C   UNL     1       2.255  11.485  18.074  0.00  0.00    +0.000 C 
ATOM     17  N   UNL     1       1.466  10.426  18.733  0.00  0.00    +0.000 NA
BRANCH  17  18
ATOM     18  C   UNL     1       0.149  10.977  19.144  0.00  0.00    +0.000 C 
BRANCH  18  19
ATOM     19  C   UNL     1      -0.168  10.747  20.606  0.00  0.00    +0.000 A 
ATOM     20  C   UNL     1       0.252   9.578  21.258  0.00  0.00    +0.000 A 
ATOM     21  C   UNL     1      -0.125   9.331  22.579  0.00  0.00    +0.000 A 
ATOM     22  C   UNL     1      -0.901  10.262  23.265  0.00  0.00    +0.000 A 
ATOM     23  C   UNL     1      -1.294  11.443  22.638  0.00  0.00    +0.000 A 
ATOM     24  C   UNL     1      -0.926  11.688  21.317  0.00  0.00    +0.000 A 
ENDBRANCH  18  19
ENDBRANCH  17  18
ENDBRANCH  15  17
ENDBRANCH   1  15
TORSDOF 4
ENDMDL
MODEL 3
REMARK VINA RESULT:      -7.0      3.624      8.062
REMARK  Name = 
REMARK  7 active torsions:
REMARK  status: ('A' for Active; 'I' for Inactive)
REMARK    1  A    between atoms: C_1  and  N_2
REMARK    2  A    between atoms: N_2  and  C_3
REMARK    3  A    between atoms: N_2  and  C_10
REMARK    4  A    between atoms: C_3  and  C_4
REMARK    5  A    between atoms: C_10  and  C_11
REMARK    6  A    between atoms: N_16  and  C_17
REMARK    7  A    between atoms: N_20  and  C_21
REMARK                            x       y       z     vdW  Elec       q    Type
REMARK                         _______ _______ _______ _____ _____    ______ ____
ROOT
ATOM      1  C   UNL     1       4.678   5.917  16.883  0.00  0.00    +0.000 A 
ATOM      2  N   UNL     1       4.296   4.663  16.725  0.00  0.00    +0.000 NA
ATOM      3  C   UNL     1       3.337   4.443  17.683  0.00  0.00    +0.000 A 
ATOM      4  C   UNL     1       2.595   3.231  17.927  0.00  0.00    +0.000 A 
ATOM      5  O   UNL     1       2.754   2.218  17.247  0.00  0.00    +0.000 OA
ATOM      6  N   UNL     1       1.695   3.305  18.988  0.00  0.00    +0.000 N 
ATOM      7  C   UNL     1       0.918   2.125  19.315  0.00  0.00    +0.000 C 
ATOM      8  C   UNL     1       1.471   4.425  19.782  0.00  0.00    +0.000 A 
ATOM      9  O   UNL     1       0.681   4.473  20.712  0.00  0.00    +0.000 OA
ATOM     10  N   UNL     1       2.238   5.610  19.473  0.00  0.00    +0.000 N 
ATOM     11  C   UNL     1       2.041   6.818  20.283  0.00  0.00    +0.000 C 
ATOM     12  C   UNL     1       3.142   5.568  18.434  0.00  0.00    +0.000 A 
ATOM     13  N   UNL     1       3.988   6.512  17.920  0.00  0.00    +0.000 N 
ATOM     14  H   UNL     1       4.081   7.481  18.190  0.00  0.00    +0.000 HD
ENDROOT
BRANCH   1  15
ATOM     15  C   UNL     1       5.669   6.658  16.028  0.00  0.00    +0.000 C 
BRANCH  15  17
ATOM     16  C   UNL     1       7.371   6.404  17.701  0.00  0.00    +0.000 C 
ATOM     17  N   UNL     1       7.065   6.227  16.267  0.00  0.00    +0.000 NA
BRANCH  17  18
ATOM     18  C   UNL     1       7.229   4.797  15.901  0.00  0.00    +0.000 C 
BRANCH  18  19
ATOM     19  C   UNL     1       7.107   4.540  14.415  0.00  0.00    +0.000 A 
ATOM     20  C   UNL     1       7.880   5.263  13.494  0.00  0.00    +0.000 A 
ATOM     21  C   UNL     1       7.694   5.087  12.122  0.00  0.00    +0.000 A 
ATOM     22  C   UNL     1       6.751   4.170  11.662  0.00  0.00    +0.000 A 
ATOM     23  C   UNL     1       6.002   3.423  12.568  0.00  0.00    +0.000 A 
ATOM     24  C   UNL     1       6.181   3.602  13.938  0.00  0.00    +0.000 A 
ENDBRANCH  18  19
ENDBRANCH  17  18
ENDBRANCH  15  17
ENDBRANCH   1  15
TORSDOF 4
ENDMDL
MODEL 4
REMARK VINA RESULT:      -6.8      2.732      6.499
REMARK  Name = 
REMARK  7 active torsions:
REMARK  status: ('A' for Active; 'I' for Inactive)
REMARK    1  A    between atoms: C_1  and  N_2
REMARK    2  A    between atoms: N_2  and  C_3
REMARK    3  A    between atoms: N_2  and  C_10
REMARK    4  A    between atoms: C_3  and  C_4
REMARK    5  A    between atoms: C_10  and  C_11
REMARK    6  A    between atoms: N_16  and  C_17
REMARK    7  A    between atoms: N_20  and  C_21
REMARK                            x       y       z     vdW  Elec       q    Type
REMARK                         _______ _______ _______ _____ _____    ______ ____
ROOT
ATOM      1  C   UNL     1       3.488   6.509  18.572  0.00  0.00    +0.000 A 
ATOM      2  N   UNL     1       3.321   7.596  17.842  0.00  0.00    +0.000 NA
ATOM      3  C   UNL     1       2.408   8.365  18.520  0.00  0.00    +0.000 A 
ATOM      4  C   UNL     1       1.893   9.659  18.148  0.00  0.00    +0.000 A 
ATOM      5  O   UNL     1       2.256  10.239  17.124  0.00  0.00    +0.000 OA
ATOM      6  N   UNL     1       0.957  10.189  19.033  0.00  0.00    +0.000 N 
ATOM      7  C   UNL     1       0.374  11.480  18.727  0.00  0.00    +0.000 C 
ATOM      8  C   UNL     1       0.518   9.582  20.204  0.00  0.00    +0.000 A 
ATOM      9  O   UNL     1      -0.306  10.057  20.970  0.00  0.00    +0.000 OA
ATOM     10  N   UNL     1       1.087   8.292  20.526  0.00  0.00    +0.000 N 
ATOM     11  C   UNL     1       0.654   7.608  21.750  0.00  0.00    +0.000 C 
ATOM     12  C   UNL     1       2.010   7.737  19.666  0.00  0.00    +0.000 A 
ATOM     13  N   UNL     1       2.704   6.559  19.708  0.00  0.00    +0.000 N 
ATOM     14  H   UNL     1       2.704   5.859  20.436  0.00  0.00    +0.000 HD
ENDROOT
BRANCH   1  15
ATOM     15  C   UNL     1       4.442   5.384  18.286  0.00  0.00    +0.000 C 
BRANCH  15  17
ATOM     16  C   UNL     1       4.833   4.441  16.114  0.00  0.00    +0.000 C 
ATOM     17  N   UNL     1       3.922   4.436  17.276  0.00  0.00    +0.000 NA
BRANCH  17  18
ATOM     18  C   UNL     1       3.857   3.065  17.844  0.00  0.00    +0.000 C 
BRANCH  18  19
ATOM     19  C   UNL     1       2.930   2.953  19.035  0.00  0.00    +0.000 A 
ATOM     20  C   UNL     1       1.552   3.181  18.897  0.00  0.00    +0.000 A 
ATOM     21  C   UNL     1       0.718   3.168  20.016  0.00  0.00    +0.000 A 
ATOM     22  C   UNL     1       1.251   2.904  21.276  0.00  0.00    +0.000 A 
ATOM     23  C   UNL     1       2.612   2.643  21.419  0.00  0.00    +0.000 A 
ATOM     24  C   UNL     1       3.448   2.662  20.304  0.00  0.00    +0.000 A 
ENDBRANCH  18  19
ENDBRANCH  17  18
ENDBRANCH  15  17
ENDBRANCH   1  15
TORSDOF 4
ENDMDL
MODEL 5
REMARK VINA RESULT:      -6.8      2.740      7.598
REMARK  Name = 
REMARK  7 active torsions:
REMARK  status: ('A' for Active; 'I' for Inactive)
REMARK    1  A    between atoms: C_1  and  N_2
REMARK    2  A    between atoms: N_2  and  C_3
REMARK    3  A    between atoms: N_2  and  C_10
REMARK    4  A    between atoms: C_3  and  C_4
REMARK    5  A    between atoms: C_10  and  C_11
REMARK    6  A    between atoms: N_16  and  C_17
REMARK    7  A    between atoms: N_20  and  C_21
REMARK                            x       y       z     vdW  Elec       q    Type
REMARK                         _______ _______ _______ _____ _____    ______ ____
ROOT
ATOM      1  C   UNL     1       2.212   6.407  19.941  0.00  0.00    +0.000 A 
ATOM      2  N   UNL     1       2.278   7.227  18.908  0.00  0.00    +0.000 NA
ATOM      3  C   UNL     1       1.803   8.434  19.360  0.00  0.00    +0.000 A 
ATOM      4  C   UNL     1       1.677   9.666  18.621  0.00  0.00    +0.000 A 
ATOM      5  O   UNL     1       2.017   9.760  17.442  0.00  0.00    +0.000 OA
ATOM      6  N   UNL     1       1.141  10.726  19.348  0.00  0.00    +0.000 N 
ATOM      7  C   UNL     1       0.964  11.999  18.677  0.00  0.00    +0.000 C 
ATOM      8  C   UNL     1       0.749  10.677  20.681  0.00  0.00    +0.000 A 
ATOM      9  O   UNL     1       0.276  11.615  21.304  0.00  0.00    +0.000 OA
ATOM     10  N   UNL     1       0.916   9.415  21.366  0.00  0.00    +0.000 N 
ATOM     11  C   UNL     1       0.514   9.309  22.773  0.00  0.00    +0.000 C 
ATOM     12  C   UNL     1       1.436   8.344  20.673  0.00  0.00    +0.000 A 
ATOM     13  N   UNL     1       1.706   7.057  21.049  0.00  0.00    +0.000 N 
ATOM     14  H   UNL     1       1.611   6.640  21.964  0.00  0.00    +0.000 HD
ENDROOT
BRANCH   1  15
ATOM     15  C   UNL     1       2.681   4.979  19.972  0.00  0.00    +0.000 C 
BRANCH  15  17
ATOM     16  C   UNL     1       4.503   3.471  19.566  0.00  0.00    +0.000 C 
ATOM     17  N   UNL     1       3.904   4.761  19.169  0.00  0.00    +0.000 NA
BRANCH  17  18
ATOM     18  C   UNL     1       3.567   4.722  17.722  0.00  0.00    +0.000 C 
BRANCH  18  19
ATOM     19  C   UNL     1       4.778   4.829  16.822  0.00  0.00    +0.000 A 
ATOM     20  C   UNL     1       4.970   3.925  15.766  0.00  0.00    +0.000 A 
ATOM     21  C   UNL     1       6.136   3.972  14.999  0.00  0.00    +0.000 A 
ATOM     22  C   UNL     1       7.105   4.937  15.267  0.00  0.00    +0.000 A 
ATOM     23  C   UNL     1       6.908   5.860  16.292  0.00  0.00    +0.000 A 
ATOM     24  C   UNL     1       5.748   5.811  17.063  0.00  0.00    +0.000 A 
ENDBRANCH  18  19
ENDBRANCH  17  18
ENDBRANCH  15  17
ENDBRANCH   1  15
TORSDOF 4
ENDMDL
MODEL 6
REMARK VINA RESULT:      -6.8      2.642      7.153
REMARK  Name = 
REMARK  7 active torsions:
REMARK  status: ('A' for Active; 'I' for Inactive)
REMARK    1  A    between atoms: C_1  and  N_2
REMARK    2  A    between atoms: N_2  and  C_3
REMARK    3  A    between atoms: N_2  and  C_10
REMARK    4  A    between atoms: C_3  and  C_4
REMARK    5  A    between atoms: C_10  and  C_11
REMARK    6  A    between atoms: N_16  and  C_17
REMARK    7  A    between atoms: N_20  and  C_21
REMARK                            x       y       z     vdW  Elec       q    Type
REMARK                         _______ _______ _______ _____ _____    ______ ____
ROOT
ATOM      1  C   UNL     1       2.174   6.285  19.486  0.00  0.00    +0.000 A 
ATOM      2  N   UNL     1       2.218   7.188  18.523  0.00  0.00    +0.000 NA
ATOM      3  C   UNL     1       1.865   8.377  19.112  0.00  0.00    +0.000 A 
ATOM      4  C   UNL     1       1.770   9.676  18.492  0.00  0.00    +0.000 A 
ATOM      5  O   UNL     1       2.024   9.852  17.300  0.00  0.00    +0.000 OA
ATOM      6  N   UNL     1       1.368  10.700  19.346  0.00  0.00    +0.000 N 
ATOM      7  C   UNL     1       1.229  12.036  18.800  0.00  0.00    +0.000 C 
ATOM      8  C   UNL     1       1.076  10.557  20.698  0.00  0.00    +0.000 A 
ATOM      9  O   UNL     1       0.720  11.464  21.434  0.00  0.00    +0.000 OA
ATOM     10  N   UNL     1       1.207   9.231  21.259  0.00  0.00    +0.000 N 
ATOM     11  C   UNL     1       0.908   9.027  22.681  0.00  0.00    +0.000 C 
ATOM     12  C   UNL     1       1.595   8.195  20.439  0.00  0.00    +0.000 A 
ATOM     13  N   UNL     1       1.802   6.865  20.683  0.00  0.00    +0.000 N 
ATOM     14  H   UNL     1       1.748   6.376  21.565  0.00  0.00    +0.000 HD
ENDROOT
BRANCH   1  15
ATOM     15  C   UNL     1       2.541   4.833  19.360  0.00  0.00    +0.000 C 
BRANCH  15  17
ATOM     16  C   UNL     1       4.238   3.236  19.935  0.00  0.00    +0.000 C 
ATOM     17  N   UNL     1       4.001   4.604  19.433  0.00  0.00    +0.000 NA
BRANCH  17  18
ATOM     18  C   UNL     1       4.611   4.747  18.086  0.00  0.00    +0.000 C 
BRANCH  18  19
ATOM     19  C   UNL     1       5.838   5.632  18.073  0.00  0.00    +0.000 A 
ATOM     20  C   UNL     1       6.902   5.398  18.956  0.00  0.00    +0.000 A 
ATOM     21  C   UNL     1       7.988   6.275  19.003  0.00  0.00    +0.000 A 
ATOM     22  C   UNL     1       8.028   7.376  18.151  0.00  0.00    +0.000 A 
ATOM     23  C   UNL     1       6.992   7.598  17.246  0.00  0.00    +0.000 A 
ATOM     24  C   UNL     1       5.904   6.729  17.203  0.00  0.00    +0.000 A 
ENDBRANCH  18  19
ENDBRANCH  17  18
ENDBRANCH  15  17
ENDBRANCH   1  15
TORSDOF 4
ENDMDL
MODEL 7
REMARK VINA RESULT:      -6.8      3.441      7.554
REMARK  Name = 
REMARK  7 active torsions:
REMARK  status: ('A' for Active; 'I' for Inactive)
REMARK    1  A    between atoms: C_1  and  N_2
REMARK    2  A    between atoms: N_2  and  C_3
REMARK    3  A    between atoms: N_2  and  C_10
REMARK    4  A    between atoms: C_3  and  C_4
REMARK    5  A    between atoms: C_10  and  C_11
REMARK    6  A    between atoms: N_16  and  C_17
REMARK    7  A    between atoms: N_20  and  C_21
REMARK                            x       y       z     vdW  Elec       q    Type
REMARK                         _______ _______ _______ _____ _____    ______ ____
ROOT
ATOM      1  C   UNL     1       1.733   8.020  20.193  0.00  0.00    +0.000 A 
ATOM      2  N   UNL     1       1.440   8.323  21.444  0.00  0.00    +0.000 NA
ATOM      3  C   UNL     1       0.593   9.402  21.378  0.00  0.00    +0.000 A 
ATOM      4  C   UNL     1      -0.024  10.110  22.472  0.00  0.00    +0.000 A 
ATOM      5  O   UNL     1       0.153   9.784  23.645  0.00  0.00    +0.000 OA
ATOM      6  N   UNL     1      -0.825  11.184  22.091  0.00  0.00    +0.000 N 
ATOM      7  C   UNL     1      -1.472  11.962  23.130  0.00  0.00    +0.000 C 
ATOM      8  C   UNL     1      -1.065  11.590  20.783  0.00  0.00    +0.000 A 
ATOM      9  O   UNL     1      -1.767  12.537  20.465  0.00  0.00    +0.000 OA
ATOM     10  N   UNL     1      -0.427  10.828  19.734  0.00  0.00    +0.000 N 
ATOM     11  C   UNL     1      -0.645  11.218  18.336  0.00  0.00    +0.000 C 
ATOM     12  C   UNL     1       0.379   9.764  20.077  0.00  0.00    +0.000 A 
ATOM     13  N   UNL     1       1.095   8.878  19.320  0.00  0.00    +0.000 N 
ATOM     14  H   UNL     1       1.134   8.806  18.313  0.00  0.00    +0.000 HD
ENDROOT
BRANCH   1  15
ATOM     15  C   UNL     1       2.579   6.865  19.734  0.00  0.00    +0.000 C 
BRANCH  15  17
ATOM     16  C   UNL     1       3.791   6.790  17.665  0.00  0.00    +0.000 C 
ATOM     17  N   UNL     1       2.461   6.613  18.281  0.00  0.00    +0.000 NA
BRANCH  17  18
ATOM     18  C   UNL     1       1.988   5.225  18.038  0.00  0.00    +0.000 C 
BRANCH  18  19
ATOM     19  C   UNL     1       2.169   4.313  19.232  0.00  0.00    +0.000 A 
ATOM     20  C   UNL     1       3.380   3.639  19.446  0.00  0.00    +0.000 A 
ATOM     21  C   UNL     1       3.507   2.728  20.495  0.00  0.00    +0.000 A 
ATOM     22  C   UNL     1       2.432   2.502  21.352  0.00  0.00    +0.000 A 
ATOM     23  C   UNL     1       1.235   3.192  21.170  0.00  0.00    +0.000 A 
ATOM     24  C   UNL     1       1.104   4.097  20.118  0.00  0.00    +0.000 A 
ENDBRANCH  18  19
ENDBRANCH  17  18
ENDBRANCH  15  17
ENDBRANCH   1  15
TORSDOF 4
ENDMDL
MODEL 8
REMARK VINA RESULT:      -6.8      2.759      7.576
REMARK  Name = 
REMARK  7 active torsions:
REMARK  status: ('A' for Active; 'I' for Inactive)
REMARK    1  A    between atoms: C_1  and  N_2
REMARK    2  A    between atoms: N_2  and  C_3
REMARK    3  A    between atoms: N_2  and  C_10
REMARK    4  A    between atoms: C_3  and  C_4
REMARK    5  A    between atoms: C_10  and  C_11
REMARK    6  A    between atoms: N_16  and  C_17
REMARK    7  A    between atoms: N_20  and  C_21
REMARK                            x       y       z     vdW  Elec       q    Type
REMARK                         _______ _______ _______ _____ _____    ______ ____
ROOT
ATOM      1  C   UNL     1       2.167   6.366  19.855  0.00  0.00    +0.000 A 
ATOM      2  N   UNL     1       2.227   7.209  18.840  0.00  0.00    +0.000 NA
ATOM      3  C   UNL     1       1.814   8.420  19.338  0.00  0.00    +0.000 A 
ATOM      4  C   UNL     1       1.707   9.675  18.634  0.00  0.00    +0.000 A 
ATOM      5  O   UNL     1       2.008   9.786  17.446  0.00  0.00    +0.000 OA
ATOM      6  N   UNL     1       1.237  10.735  19.405  0.00  0.00    +0.000 N 
ATOM      7  C   UNL     1       1.083  12.030  18.772  0.00  0.00    +0.000 C 
ATOM      8  C   UNL     1       0.890  10.666  20.750  0.00  0.00    +0.000 A 
ATOM      9  O   UNL     1       0.475  11.604  21.412  0.00  0.00    +0.000 OA
ATOM     10  N   UNL     1       1.035   9.382  21.398  0.00  0.00    +0.000 N 
ATOM     11  C   UNL     1       0.679   9.255  22.816  0.00  0.00    +0.000 C 
ATOM     12  C   UNL     1       1.491   8.310  20.661  0.00  0.00    +0.000 A 
ATOM     13  N   UNL     1       1.725   7.005  20.996  0.00  0.00    +0.000 N 
ATOM     14  H   UNL     1       1.647   6.569  21.904  0.00  0.00    +0.000 HD
ENDROOT
BRANCH   1  15
ATOM     15  C   UNL     1       2.584   4.921  19.835  0.00  0.00    +0.000 C 
BRANCH  15  17
ATOM     16  C   UNL     1       4.466   3.452  19.601  0.00  0.00    +0.000 C 
ATOM     17  N   UNL     1       3.854   4.703  19.109  0.00  0.00    +0.000 NA
BRANCH  17  18
ATOM     18  C   UNL     1       3.598   4.585  17.650  0.00  0.00    +0.000 C 
BRANCH  18  19
ATOM     19  C   UNL     1       4.853   4.682  16.811  0.00  0.00    +0.000 A 
ATOM     20  C   UNL     1       5.832   5.646  17.090  0.00  0.00    +0.000 A 
ATOM     21  C   UNL     1       6.942   5.790  16.255  0.00  0.00    +0.000 A 
ATOM     22  C   UNL     1       7.091   4.955  15.150  0.00  0.00    +0.000 A 
ATOM     23  C   UNL     1       6.142   3.971  14.884  0.00  0.00    +0.000 A 
ATOM     24  C   UNL     1       5.030   3.830  15.712  0.00  0.00    +0.000 A 
ENDBRANCH  18  19
ENDBRANCH  17  18
ENDBRANCH  15  17
ENDBRANCH   1  15
TORSDOF 4
ENDMDL
MODEL 9
REMARK VINA RESULT:      -6.8      2.199      3.874
REMARK  Name = 
REMARK  7 active torsions:
REMARK  status: ('A' for Active; 'I' for Inactive)
REMARK    1  A    between atoms: C_1  and  N_2
REMARK    2  A    between atoms: N_2  and  C_3
REMARK    3  A    between atoms: N_2  and  C_10
REMARK    4  A    between atoms: C_3  and  C_4
REMARK    5  A    between atoms: C_10  and  C_11
REMARK    6  A    between atoms: N_16  and  C_17
REMARK    7  A    between atoms: N_20  and  C_21
REMARK                            x       y       z     vdW  Elec       q    Type
REMARK                         _______ _______ _______ _____ _____    ______ ____
ROOT
ATOM      1  C   UNL     1       1.869   7.170  20.591  0.00  0.00    +0.000 A 
ATOM      2  N   UNL     1       1.486   5.912  20.707  0.00  0.00    +0.000 NA
ATOM      3  C   UNL     1       2.127   5.233  19.701  0.00  0.00    +0.000 A 
ATOM      4  C   UNL     1       2.053   3.825  19.399  0.00  0.00    +0.000 A 
ATOM      5  O   UNL     1       1.373   3.047  20.067  0.00  0.00    +0.000 OA
ATOM      6  N   UNL     1       2.807   3.427  18.297  0.00  0.00    +0.000 N 
ATOM      7  C   UNL     1       2.778   2.029  17.912  0.00  0.00    +0.000 C 
ATOM      8  C   UNL     1       3.597   4.261  17.514  0.00  0.00    +0.000 A 
ATOM      9  O   UNL     1       4.250   3.898  16.548  0.00  0.00    +0.000 OA
ATOM     10  N   UNL     1       3.638   5.659  17.881  0.00  0.00    +0.000 N 
ATOM     11  C   UNL     1       4.454   6.581  17.084  0.00  0.00    +0.000 C 
ATOM     12  C   UNL     1       2.897   6.086  18.961  0.00  0.00    +0.000 A 
ATOM     13  N   UNL     1       2.743   7.319  19.533  0.00  0.00    +0.000 N 
ATOM     14  H   UNL     1       3.202   8.184  19.285  0.00  0.00    +0.000 HD
ENDROOT
BRANCH   1  15
ATOM     15  C   UNL     1       1.490   8.302  21.506  0.00  0.00    +0.000 C 
BRANCH  15  17
ATOM     16  C   UNL     1      -0.555   9.228  22.353  0.00  0.00    +0.000 C 
ATOM     17  N   UNL     1       0.213   8.943  21.124  0.00  0.00    +0.000 NA
BRANCH  17  18
ATOM     18  C   UNL     1       0.474  10.214  20.400  0.00  0.00    +0.000 C 
BRANCH  18  19
ATOM     19  C   UNL     1      -0.592  10.553  19.381  0.00  0.00    +0.000 A 
ATOM     20  C   UNL     1      -1.549  11.544  19.644  0.00  0.00    +0.000 A 
ATOM     21  C   UNL     1      -2.585  11.785  18.739  0.00  0.00    +0.000 A 
ATOM     22  C   UNL     1      -2.656  11.054  17.556  0.00  0.00    +0.000 A 
ATOM     23  C   UNL     1      -1.691  10.091  17.269  0.00  0.00    +0.000 A 
ATOM     24  C   UNL     1      -0.660   9.844  18.174  0.00  0.00    +0.000 A 
ENDBRANCH  18  19
ENDBRANCH  17  18
ENDBRANCH  15  17
ENDBRANCH   1  15
TORSDOF 4
ENDMDL
