MODEL 1
REMARK VINA RESULT:      -4.4      0.000      0.000
REMARK  Name = 
REMARK  8 active torsions:
REMARK  status: ('A' for Active; 'I' for Inactive)
REMARK    1  A    between atoms: C_2  and  C_3
REMARK    2  A    between atoms: C_3  and  N_4
REMARK    3  A    between atoms: N_7  and  C_8
REMARK    4  A    between atoms: C_8  and  C_9
REMARK    5  A    between atoms: N_13  and  C_14
REMARK    6  A    between atoms: C_14  and  C_15
REMARK    7  A    between atoms: N_19  and  C_20
REMARK    8  A    between atoms: C_20  and  C_21
REMARK                            x       y       z     vdW  Elec       q    Type
REMARK                         _______ _______ _______ _____ _____    ______ ____
ROOT
ATOM      1  N   UNL     1      -1.739  12.730  22.646  0.00  0.00    +0.000 NA
ATOM      2  C   UNL     1      -0.657  11.750  22.436  0.00  0.00    +0.000 C 
ATOM      3  C   UNL     1      -0.708  11.165  20.998  0.00  0.00    +0.000 C 
ATOM      4  N   UNL     1      -0.065  11.923  19.898  0.00  0.00    +0.000 NA
ATOM      5  C   UNL     1      -0.595  11.480  18.592  0.00  0.00    +0.000 C 
ATOM      6  C   UNL     1      -1.982  12.025  18.127  0.00  0.00    +0.000 C 
ATOM      7  N   UNL     1      -3.162  11.338  18.697  0.00  0.00    +0.000 NA
ATOM      8  C   UNL     1      -4.270  12.305  18.907  0.00  0.00    +0.000 C 
ATOM      9  C   UNL     1      -4.200  13.101  20.245  0.00  0.00    +0.000 C 
ATOM     10  N   UNL     1      -4.930  12.478  21.380  0.00  0.00    +0.000 NA
ATOM     11  C   UNL     1      -4.296  12.865  22.672  0.00  0.00    +0.000 C 
ATOM     12  C   UNL     1      -3.006  12.069  23.013  0.00  0.00    +0.000 C 
ENDROOT
BRANCH   1  13
ATOM     13  C   UNL     1      -1.353  13.848  23.523  0.00  0.00    +0.000 C 
BRANCH  13  15
ATOM     14 CL   UNL     1      -2.752  16.169  23.793  0.00  0.00    +0.000 Cl
ATOM     15  C   UNL     1      -1.464  15.265  22.950  0.00  0.00    +0.000 C 
ENDBRANCH  13  15
ENDBRANCH   1  13
BRANCH   4  16
ATOM     16  C   UNL     1      -0.030  13.384  20.077  0.00  0.00    +0.000 C 
BRANCH  16  17
ATOM     17  C   UNL     1       0.980  14.125  19.187  0.00  0.00    +0.000 C 
ATOM     18 CL   UNL     1       0.526  15.842  19.024  0.00  0.00    +0.000 Cl
ENDBRANCH  16  17
ENDBRANCH   4  16
BRANCH   7  19
ATOM     19  C   UNL     1      -3.651  10.240  17.825  0.00  0.00    +0.000 C 
BRANCH  19  20
ATOM     20  C   UNL     1      -3.999  10.644  16.392  0.00  0.00    +0.000 C 
ATOM     21 CL   UNL     1      -2.839   9.933  15.239  0.00  0.00    +0.000 Cl
ENDBRANCH  19  20
ENDBRANCH   7  19
BRANCH  10  22
ATOM     22  C   UNL     1      -6.362  12.879  21.426  0.00  0.00    +0.000 C 
BRANCH  22  23
ATOM     23  C   UNL     1      -7.385  11.742  21.526  0.00  0.00    +0.000 C 
ATOM     24 CL   UNL     1      -7.201  10.600  20.167  0.00  0.00    +0.000 Cl
ENDBRANCH  22  23
ENDBRANCH  10  22
TORSDOF 8
ENDMDL
MODEL 2
REMARK VINA RESULT:      -4.4      1.210      1.269
REMARK  Name = 
REMARK  8 active torsions:
REMARK  status: ('A' for Active; 'I' for Inactive)
REMARK    1  A    between atoms: C_2  and  C_3
REMARK    2  A    between atoms: C_3  and  N_4
REMARK    3  A    between atoms: N_7  and  C_8
REMARK    4  A    between atoms: C_8  and  C_9
REMARK    5  A    between atoms: N_13  and  C_14
REMARK    6  A    between atoms: C_14  and  C_15
REMARK    7  A    between atoms: N_19  and  C_20
REMARK    8  A    between atoms: C_20  and  C_21
REMARK                            x       y       z     vdW  Elec       q    Type
REMARK                         _______ _______ _______ _____ _____    ______ ____
ROOT
ATOM      1  N   UNL     1      -2.316  13.443  22.391  0.00  0.00    +0.000 NA
ATOM      2  C   UNL     1      -0.991  12.797  22.436  0.00  0.00    +0.000 C 
ATOM      3  C   UNL     1      -0.698  12.036  21.113  0.00  0.00    +0.000 C 
ATOM      4  N   UNL     1      -0.150  12.795  19.963  0.00  0.00    +0.000 NA
ATOM      5  C   UNL     1      -0.370  12.049  18.707  0.00  0.00    +0.000 C 
ATOM      6  C   UNL     1      -1.781  12.106  18.044  0.00  0.00    +0.000 C 
ATOM      7  N   UNL     1      -2.793  11.190  18.616  0.00  0.00    +0.000 NA
ATOM      8  C   UNL     1      -4.140  11.816  18.571  0.00  0.00    +0.000 C 
ATOM      9  C   UNL     1      -4.459  12.768  19.763  0.00  0.00    +0.000 C 
ATOM     10  N   UNL     1      -5.130  12.118  20.918  0.00  0.00    +0.000 NA
ATOM     11  C   UNL     1      -4.795  12.838  22.178  0.00  0.00    +0.000 C 
ATOM     12  C   UNL     1      -3.391  12.500  22.753  0.00  0.00    +0.000 C 
ENDROOT
BRANCH   1  13
ATOM     13  C   UNL     1      -2.362  14.730  23.104  0.00  0.00    +0.000 C 
BRANCH  13  15
ATOM     14 CL   UNL     1      -3.035  16.340  25.197  0.00  0.00    +0.000 Cl
ATOM     15  C   UNL     1      -2.672  14.694  24.605  0.00  0.00    +0.000 C 
ENDBRANCH  13  15
ENDBRANCH   1  13
BRANCH   4  16
ATOM     16  C   UNL     1      -0.536  14.214  19.904  0.00  0.00    +0.000 C 
BRANCH  16  17
ATOM     17  C   UNL     1       0.228  15.054  18.869  0.00  0.00    +0.000 C 
ATOM     18 CL   UNL     1      -0.593  16.615  18.603  0.00  0.00    +0.000 Cl
ENDBRANCH  16  17
ENDBRANCH   4  16
BRANCH   7  19
ATOM     19  C   UNL     1      -2.850   9.892  17.897  0.00  0.00    +0.000 C 
BRANCH  19  20
ATOM     20  C   UNL     1      -2.247   9.893  16.490  0.00  0.00    +0.000 C 
ATOM     21 CL   UNL     1      -3.506  10.213  15.269  0.00  0.00    +0.000 Cl
ENDBRANCH  19  20
ENDBRANCH   7  19
BRANCH  10  22
ATOM     22  C   UNL     1      -6.611  12.092  20.777  0.00  0.00    +0.000 C 
BRANCH  22  23
ATOM     23  C   UNL     1      -7.254  13.313  20.110  0.00  0.00    +0.000 C 
ATOM     24 CL   UNL     1      -7.778  12.927  18.449  0.00  0.00    +0.000 Cl
ENDBRANCH  22  23
ENDBRANCH  10  22
TORSDOF 8
ENDMDL
MODEL 3
REMARK VINA RESULT:      -4.3      2.069      5.525
REMARK  Name = 
REMARK  8 active torsions:
REMARK  status: ('A' for Active; 'I' for Inactive)
REMARK    1  A    between atoms: C_2  and  C_3
REMARK    2  A    between atoms: C_3  and  N_4
REMARK    3  A    between atoms: N_7  and  C_8
REMARK    4  A    between atoms: C_8  and  C_9
REMARK    5  A    between atoms: N_13  and  C_14
REMARK    6  A    between atoms: C_14  and  C_15
REMARK    7  A    between atoms: N_19  and  C_20
REMARK    8  A    between atoms: C_20  and  C_21
REMARK                            x       y       z     vdW  Elec       q    Type
REMARK                         _______ _______ _______ _____ _____    ______ ____
ROOT
ATOM      1  N   UNL     1      -2.890  11.389  18.487  0.00  0.00    +0.000 NA
ATOM      2  C   UNL     1      -1.628  12.083  18.173  0.00  0.00    +0.000 C 
ATOM      3  C   UNL     1      -1.228  13.055  19.318  0.00  0.00    +0.000 C 
ATOM      4  N   UNL     1      -0.494  12.513  20.487  0.00  0.00    +0.000 NA
ATOM      5  C   UNL     1      -0.609  13.435  21.635  0.00  0.00    +0.000 C 
ATOM      6  C   UNL     1      -1.922  13.413  22.479  0.00  0.00    +0.000 C 
ATOM      7  N   UNL     1      -3.056  14.178  21.914  0.00  0.00    +0.000 NA
ATOM      8  C   UNL     1      -4.341  13.503  22.227  0.00  0.00    +0.000 C 
ATOM      9  C   UNL     1      -4.738  12.361  21.243  0.00  0.00    +0.000 C 
ATOM     10  N   UNL     1      -5.587  12.789  20.102  0.00  0.00    +0.000 NA
ATOM     11  C   UNL     1      -5.360  11.898  18.930  0.00  0.00    +0.000 C 
ATOM     12  C   UNL     1      -4.063  12.210  18.133  0.00  0.00    +0.000 C 
ENDROOT
BRANCH   1  13
ATOM     13  C   UNL     1      -2.935  10.005  17.986  0.00  0.00    +0.000 C 
BRANCH  13  15
ATOM     14 CL   UNL     1      -2.843  10.263  15.276  0.00  0.00    +0.000 Cl
ATOM     15  C   UNL     1      -2.067   9.667  16.769  0.00  0.00    +0.000 C 
ENDBRANCH  13  15
ENDBRANCH   1  13
BRANCH   4  16
ATOM     16  C   UNL     1      -0.772  11.103  20.807  0.00  0.00    +0.000 C 
BRANCH  16  17
ATOM     17  C   UNL     1       0.287  10.412  21.679  0.00  0.00    +0.000 C 
ATOM     18 CL   UNL     1      -0.447   9.805  23.188  0.00  0.00    +0.000 Cl
ENDBRANCH  16  17
ENDBRANCH   4  16
BRANCH   7  19
ATOM     19  C   UNL     1      -3.113  15.569  22.433  0.00  0.00    +0.000 C 
BRANCH  19  20
ATOM     20  C   UNL     1      -4.107  15.804  23.572  0.00  0.00    +0.000 C 
ATOM     21 CL   UNL     1      -3.334  15.509  25.151  0.00  0.00    +0.000 Cl
ENDBRANCH  19  20
ENDBRANCH   7  19
BRANCH  10  22
ATOM     22  C   UNL     1      -7.039  12.765  20.430  0.00  0.00    +0.000 C 
BRANCH  22  23
ATOM     23  C   UNL     1      -7.548  11.527  21.176  0.00  0.00    +0.000 C 
ATOM     24 CL   UNL     1      -7.914  11.916  22.878  0.00  0.00    +0.000 Cl
ENDBRANCH  22  23
ENDBRANCH  10  22
TORSDOF 8
ENDMDL
MODEL 4
REMARK VINA RESULT:      -4.3      2.740      5.191
REMARK  Name = 
REMARK  8 active torsions:
REMARK  status: ('A' for Active; 'I' for Inactive)
REMARK    1  A    between atoms: C_2  and  C_3
REMARK    2  A    between atoms: C_3  and  N_4
REMARK    3  A    between atoms: N_7  and  C_8
REMARK    4  A    between atoms: C_8  and  C_9
REMARK    5  A    between atoms: N_13  and  C_14
REMARK    6  A    between atoms: C_14  and  C_15
REMARK    7  A    between atoms: N_19  and  C_20
REMARK    8  A    between atoms: C_20  and  C_21
REMARK                            x       y       z     vdW  Elec       q    Type
REMARK                         _______ _______ _______ _____ _____    ______ ____
ROOT
ATOM      1  N   UNL     1      -1.241  12.973  20.737  0.00  0.00    +0.000 NA
ATOM      2  C   UNL     1      -1.069  14.382  21.139  0.00  0.00    +0.000 C 
ATOM      3  C   UNL     1      -2.433  15.125  21.163  0.00  0.00    +0.000 C 
ATOM      4  N   UNL     1      -3.283  15.014  22.373  0.00  0.00    +0.000 NA
ATOM      5  C   UNL     1      -4.679  15.372  22.052  0.00  0.00    +0.000 C 
ATOM      6  C   UNL     1      -5.579  14.307  21.350  0.00  0.00    +0.000 C 
ATOM      7  N   UNL     1      -5.406  14.191  19.885  0.00  0.00    +0.000 NA
ATOM      8  C   UNL     1      -5.587  12.781  19.454  0.00  0.00    +0.000 C 
ATOM      9  C   UNL     1      -4.316  11.888  19.585  0.00  0.00    +0.000 C 
ATOM     10  N   UNL     1      -3.464  11.835  18.368  0.00  0.00    +0.000 NA
ATOM     11  C   UNL     1      -2.045  11.579  18.746  0.00  0.00    +0.000 C 
ATOM     12  C   UNL     1      -1.288  12.831  19.269  0.00  0.00    +0.000 C 
ENDROOT
BRANCH   1  13
ATOM     13  C   UNL     1      -0.311  12.055  21.414  0.00  0.00    +0.000 C 
BRANCH  13  15
ATOM     14 CL   UNL     1       0.196   9.708  22.702  0.00  0.00    +0.000 Cl
ATOM     15  C   UNL     1      -0.899  11.098  22.457  0.00  0.00    +0.000 C 
ENDBRANCH  13  15
ENDBRANCH   1  13
BRANCH   4  16
ATOM     16  C   UNL     1      -3.134  13.762  23.133  0.00  0.00    +0.000 C 
BRANCH  16  17
ATOM     17  C   UNL     1      -3.711  13.793  24.557  0.00  0.00    +0.000 C 
ATOM     18 CL   UNL     1      -4.617  12.294  24.896  0.00  0.00    +0.000 Cl
ENDBRANCH  16  17
ENDBRANCH   4  16
BRANCH   7  19
ATOM     19  C   UNL     1      -6.364  15.041  19.134  0.00  0.00    +0.000 C 
BRANCH  19  20
ATOM     20  C   UNL     1      -7.096  14.348  17.983  0.00  0.00    +0.000 C 
ATOM     21 CL   UNL     1      -6.895  15.267  16.469  0.00  0.00    +0.000 Cl
ENDBRANCH  19  20
ENDBRANCH   7  19
BRANCH  10  22
ATOM     22  C   UNL     1      -3.891  10.773  17.418  0.00  0.00    +0.000 C 
BRANCH  22  23
ATOM     23  C   UNL     1      -2.772  10.019  16.691  0.00  0.00    +0.000 C 
ATOM     24 CL   UNL     1      -2.843  10.317  14.933  0.00  0.00    +0.000 Cl
ENDBRANCH  22  23
ENDBRANCH  10  22
TORSDOF 8
ENDMDL
MODEL 5
REMARK VINA RESULT:      -4.2      2.541      5.880
REMARK  Name = 
REMARK  8 active torsions:
REMARK  status: ('A' for Active; 'I' for Inactive)
REMARK    1  A    between atoms: C_2  and  C_3
REMARK    2  A    between atoms: C_3  and  N_4
REMARK    3  A    between atoms: N_7  and  C_8
REMARK    4  A    between atoms: C_8  and  C_9
REMARK    5  A    between atoms: N_13  and  C_14
REMARK    6  A    between atoms: C_14  and  C_15
REMARK    7  A    between atoms: N_19  and  C_20
REMARK    8  A    between atoms: C_20  and  C_21
REMARK                            x       y       z     vdW  Elec       q    Type
REMARK                         _______ _______ _______ _____ _____    ______ ____
ROOT
ATOM      1  N   UNL     1       0.075  10.902  19.560  0.00  0.00    +0.000 NA
ATOM      2  C   UNL     1       0.880  11.716  20.490  0.00  0.00    +0.000 C 
ATOM      3  C   UNL     1      -0.031  12.561  21.422  0.00  0.00    +0.000 C 
ATOM      4  N   UNL     1      -0.578  11.928  22.647  0.00  0.00    +0.000 NA
ATOM      5  C   UNL     1      -1.745  12.689  23.137  0.00  0.00    +0.000 C 
ATOM      6  C   UNL     1      -3.123  12.471  22.437  0.00  0.00    +0.000 C 
ATOM      7  N   UNL     1      -3.324  13.221  21.178  0.00  0.00    +0.000 NA
ATOM      8  C   UNL     1      -4.144  12.425  20.228  0.00  0.00    +0.000 C 
ATOM      9  C   UNL     1      -3.343  11.392  19.380  0.00  0.00    +0.000 C 
ATOM     10  N   UNL     1      -2.862  11.900  18.069  0.00  0.00    +0.000 NA
ATOM     11  C   UNL     1      -1.622  11.180  17.663  0.00  0.00    +0.000 C 
ATOM     12  C   UNL     1      -0.334  11.679  18.374  0.00  0.00    +0.000 C 
ENDROOT
BRANCH   1  13
ATOM     13  C   UNL     1       0.676   9.592  19.259  0.00  0.00    +0.000 C 
BRANCH  13  15
ATOM     14 CL   UNL     1       2.392   7.893  17.997  0.00  0.00    +0.000 Cl
ATOM     15  C   UNL     1       1.667   9.523  18.091  0.00  0.00    +0.000 C 
ENDBRANCH  13  15
ENDBRANCH   1  13
BRANCH   4  16
ATOM     16  C   UNL     1      -0.789  10.474  22.563  0.00  0.00    +0.000 C 
BRANCH  16  17
ATOM     17  C   UNL     1       0.110   9.632  23.481  0.00  0.00    +0.000 C 
ATOM     18 CL   UNL     1       1.492   8.972  22.568  0.00  0.00    +0.000 Cl
ENDBRANCH  16  17
ENDBRANCH   4  16
BRANCH   7  19
ATOM     19  C   UNL     1      -3.994  14.528  21.400  0.00  0.00    +0.000 C 
BRANCH  19  20
ATOM     20  C   UNL     1      -5.085  14.534  22.473  0.00  0.00    +0.000 C 
ATOM     21 CL   UNL     1      -4.572  15.495  23.884  0.00  0.00    +0.000 Cl
ENDBRANCH  19  20
ENDBRANCH   7  19
BRANCH  10  22
ATOM     22  C   UNL     1      -3.871  11.735  16.988  0.00  0.00    +0.000 C 
BRANCH  22  23
ATOM     23  C   UNL     1      -3.919  10.365  16.305  0.00  0.00    +0.000 C 
ATOM     24 CL   UNL     1      -3.250  10.452  14.654  0.00  0.00    +0.000 Cl
ENDBRANCH  22  23
ENDBRANCH  10  22
TORSDOF 8
ENDMDL
MODEL 6
REMARK VINA RESULT:      -4.2      2.488      5.568
REMARK  Name = 
REMARK  8 active torsions:
REMARK  status: ('A' for Active; 'I' for Inactive)
REMARK    1  A    between atoms: C_2  and  C_3
REMARK    2  A    between atoms: C_3  and  N_4
REMARK    3  A    between atoms: N_7  and  C_8
REMARK    4  A    between atoms: C_8  and  C_9
REMARK    5  A    between atoms: N_13  and  C_14
REMARK    6  A    between atoms: C_14  and  C_15
REMARK    7  A    between atoms: N_19  and  C_20
REMARK    8  A    between atoms: C_20  and  C_21
REMARK                            x       y       z     vdW  Elec       q    Type
REMARK                         _______ _______ _______ _____ _____    ______ ____
ROOT
ATOM      1  N   UNL     1      -0.749  11.273  19.110  0.00  0.00    +0.000 NA
ATOM      2  C   UNL     1       0.301  12.025  19.822  0.00  0.00    +0.000 C 
ATOM      3  C   UNL     1      -0.287  12.781  21.045  0.00  0.00    +0.000 C 
ATOM      4  N   UNL     1      -0.454  12.048  22.323  0.00  0.00    +0.000 NA
ATOM      5  C   UNL     1      -1.418  12.750  23.194  0.00  0.00    +0.000 C 
ATOM      6  C   UNL     1      -2.943  12.567  22.916  0.00  0.00    +0.000 C 
ATOM      7  N   UNL     1      -3.500  13.408  21.835  0.00  0.00    +0.000 NA
ATOM      8  C   UNL     1      -4.570  12.676  21.109  0.00  0.00    +0.000 C 
ATOM      9  C   UNL     1      -4.064  11.723  19.985  0.00  0.00    +0.000 C 
ATOM     10  N   UNL     1      -3.987  12.339  18.634  0.00  0.00    +0.000 NA
ATOM     11  C   UNL     1      -2.928  11.671  17.826  0.00  0.00    +0.000 C 
ATOM     12  C   UNL     1      -1.483  12.133  18.162  0.00  0.00    +0.000 C 
ENDROOT
BRANCH   1  13
ATOM     13  C   UNL     1      -0.274  10.000  18.544  0.00  0.00    +0.000 C 
BRANCH  13  15
ATOM     14 CL   UNL     1       2.064   8.928  17.644  0.00  0.00    +0.000 Cl
ATOM     15  C   UNL     1       1.080   9.473  19.032  0.00  0.00    +0.000 C 
ENDBRANCH  13  15
ENDBRANCH   1  13
BRANCH   4  16
ATOM     16  C   UNL     1      -0.692  10.601  22.192  0.00  0.00    +0.000 C 
BRANCH  16  17
ATOM     17  C   UNL     1       0.049   9.724  23.213  0.00  0.00    +0.000 C 
ATOM     18 CL   UNL     1       1.523   9.031  22.486  0.00  0.00    +0.000 Cl
ENDBRANCH  16  17
ENDBRANCH   4  16
BRANCH   7  19
ATOM     19  C   UNL     1      -4.064  14.684  22.346  0.00  0.00    +0.000 C 
BRANCH  19  20
ATOM     20  C   UNL     1      -4.745  14.600  23.713  0.00  0.00    +0.000 C 
ATOM     21 CL   UNL     1      -5.510  16.156  24.129  0.00  0.00    +0.000 Cl
ENDBRANCH  19  20
ENDBRANCH   7  19
BRANCH  10  22
ATOM     22  C   UNL     1      -5.271  12.242  17.888  0.00  0.00    +0.000 C 
BRANCH  22  23
ATOM     23  C   UNL     1      -6.174  11.055  18.238  0.00  0.00    +0.000 C 
ATOM     24 CL   UNL     1      -7.508  11.564  19.307  0.00  0.00    +0.000 Cl
ENDBRANCH  22  23
ENDBRANCH  10  22
TORSDOF 8
ENDMDL
MODEL 7
REMARK VINA RESULT:      -4.2      2.219      5.153
REMARK  Name = 
REMARK  8 active torsions:
REMARK  status: ('A' for Active; 'I' for Inactive)
REMARK    1  A    between atoms: C_2  and  C_3
REMARK    2  A    between atoms: C_3  and  N_4
REMARK    3  A    between atoms: N_7  and  C_8
REMARK    4  A    between atoms: C_8  and  C_9
REMARK    5  A    between atoms: N_13  and  C_14
REMARK    6  A    between atoms: C_14  and  C_15
REMARK    7  A    between atoms: N_19  and  C_20
REMARK    8  A    between atoms: C_20  and  C_21
REMARK                            x       y       z     vdW  Elec       q    Type
REMARK                         _______ _______ _______ _____ _____    ______ ____
ROOT
ATOM      1  N   UNL     1      -4.213  14.287  21.334  0.00  0.00    +0.000 NA
ATOM      2  C   UNL     1      -5.451  14.819  20.734  0.00  0.00    +0.000 C 
ATOM      3  C   UNL     1      -5.887  13.967  19.510  0.00  0.00    +0.000 C 
ATOM      4  N   UNL     1      -6.679  12.735  19.747  0.00  0.00    +0.000 NA
ATOM      5  C   UNL     1      -6.601  11.844  18.572  0.00  0.00    +0.000 C 
ATOM      6  C   UNL     1      -5.327  10.961  18.389  0.00  0.00    +0.000 C 
ATOM      7  N   UNL     1      -4.159  11.644  17.790  0.00  0.00    +0.000 NA
ATOM      8  C   UNL     1      -2.898  11.115  18.371  0.00  0.00    +0.000 C 
ATOM      9  C   UNL     1      -2.474  11.771  19.720  0.00  0.00    +0.000 C 
ATOM     10  N   UNL     1      -1.570  12.942  19.587  0.00  0.00    +0.000 NA
ATOM     11  C   UNL     1      -1.758  13.869  20.739  0.00  0.00    +0.000 C 
ATOM     12  C   UNL     1      -3.014  14.777  20.628  0.00  0.00    +0.000 C 
ENDROOT
BRANCH   1  13
ATOM     13  C   UNL     1      -4.165  14.431  22.798  0.00  0.00    +0.000 C 
BRANCH  13  15
ATOM     14 CL   UNL     1      -2.030  15.308  24.245  0.00  0.00    +0.000 Cl
ATOM     15  C   UNL     1      -3.529  15.707  23.361  0.00  0.00    +0.000 C 
ENDBRANCH  13  15
ENDBRANCH   1  13
BRANCH   4  16
ATOM     16  C   UNL     1      -6.434  12.068  21.036  0.00  0.00    +0.000 C 
BRANCH  16  17
ATOM     17  C   UNL     1      -7.673  11.904  21.930  0.00  0.00    +0.000 C 
ATOM     18 CL   UNL     1      -7.276  12.296  23.624  0.00  0.00    +0.000 Cl
ENDBRANCH  16  17
ENDBRANCH   4  16
BRANCH   7  19
ATOM     19  C   UNL     1      -4.105  11.478  16.315  0.00  0.00    +0.000 C 
BRANCH  19  20
ATOM     20  C   UNL     1      -2.797  10.905  15.765  0.00  0.00    +0.000 C 
ATOM     21 CL   UNL     1      -3.092  10.006  14.254  0.00  0.00    +0.000 Cl
ENDBRANCH  19  20
ENDBRANCH   7  19
BRANCH  10  22
ATOM     22  C   UNL     1      -0.134  12.552  19.535  0.00  0.00    +0.000 C 
BRANCH  22  23
ATOM     23  C   UNL     1       0.275  11.345  20.385  0.00  0.00    +0.000 C 
ATOM     24 CL   UNL     1       0.629   9.932  19.355  0.00  0.00    +0.000 Cl
ENDBRANCH  22  23
ENDBRANCH  10  22
TORSDOF 8
ENDMDL
MODEL 8
REMARK VINA RESULT:      -4.2      1.379      1.543
REMARK  Name = 
REMARK  8 active torsions:
REMARK  status: ('A' for Active; 'I' for Inactive)
REMARK    1  A    between atoms: C_2  and  C_3
REMARK    2  A    between atoms: C_3  and  N_4
REMARK    3  A    between atoms: N_7  and  C_8
REMARK    4  A    between atoms: C_8  and  C_9
REMARK    5  A    between atoms: N_13  and  C_14
REMARK    6  A    between atoms: C_14  and  C_15
REMARK    7  A    between atoms: N_19  and  C_20
REMARK    8  A    between atoms: C_20  and  C_21
REMARK                            x       y       z     vdW  Elec       q    Type
REMARK                         _______ _______ _______ _____ _____    ______ ____
ROOT
ATOM      1  N   UNL     1      -2.603  13.776  22.879  0.00  0.00    +0.000 NA
ATOM      2  C   UNL     1      -1.225  13.313  23.128  0.00  0.00    +0.000 C 
ATOM      3  C   UNL     1      -0.639  12.610  21.872  0.00  0.00    +0.000 C 
ATOM      4  N   UNL     1      -0.034  13.445  20.807  0.00  0.00    +0.000 NA
ATOM      5  C   UNL     1       0.038  12.686  19.541  0.00  0.00    +0.000 C 
ATOM      6  C   UNL     1      -1.255  12.560  18.675  0.00  0.00    +0.000 C 
ATOM      7  N   UNL     1      -2.208  11.512  19.102  0.00  0.00    +0.000 NA
ATOM      8  C   UNL     1      -3.605  11.952  18.850  0.00  0.00    +0.000 C 
ATOM      9  C   UNL     1      -4.222  12.842  19.970  0.00  0.00    +0.000 C 
ATOM     10  N   UNL     1      -4.964  12.098  21.020  0.00  0.00    +0.000 NA
ATOM     11  C   UNL     1      -4.920  12.847  22.308  0.00  0.00    +0.000 C 
ATOM     12  C   UNL     1      -3.584  12.694  23.088  0.00  0.00    +0.000 C 
ENDROOT
BRANCH   1  13
ATOM     13  C   UNL     1      -2.927  15.039  23.562  0.00  0.00    +0.000 C 
BRANCH  13  15
ATOM     14 CL   UNL     1      -2.861  17.759  23.426  0.00  0.00    +0.000 Cl
ATOM     15  C   UNL     1      -3.379  16.216  22.691  0.00  0.00    +0.000 C 
ENDBRANCH  13  15
ENDBRANCH   1  13
BRANCH   4  16
ATOM     16  C   UNL     1      -0.593  14.800  20.675  0.00  0.00    +0.000 C 
BRANCH  16  17
ATOM     17  C   UNL     1       0.321  15.816  19.973  0.00  0.00    +0.000 C 
ATOM     18 CL   UNL     1      -0.399  16.341  18.428  0.00  0.00    +0.000 Cl
ENDBRANCH  16  17
ENDBRANCH   4  16
BRANCH   7  19
ATOM     19  C   UNL     1      -1.984  10.224  18.397  0.00  0.00    +0.000 C 
BRANCH  19  20
ATOM     20  C   UNL     1      -3.138   9.750  17.511  0.00  0.00    +0.000 C 
ATOM     21 CL   UNL     1      -2.710   9.905  15.787  0.00  0.00    +0.000 Cl
ENDBRANCH  19  20
ENDBRANCH   7  19
BRANCH  10  22
ATOM     22  C   UNL     1      -6.391  11.875  20.662  0.00  0.00    +0.000 C 
BRANCH  22  23
ATOM     23  C   UNL     1      -7.052  12.951  19.793  0.00  0.00    +0.000 C 
ATOM     24 CL   UNL     1      -7.339  12.345  18.140  0.00  0.00    +0.000 Cl
ENDBRANCH  22  23
ENDBRANCH  10  22
TORSDOF 8
ENDMDL
MODEL 9
REMARK VINA RESULT:      -4.2      2.832      5.634
REMARK  Name = 
REMARK  8 active torsions:
REMARK  status: ('A' for Active; 'I' for Inactive)
REMARK    1  A    between atoms: C_2  and  C_3
REMARK    2  A    between atoms: C_3  and  N_4
REMARK    3  A    between atoms: N_7  and  C_8
REMARK    4  A    between atoms: C_8  and  C_9
REMARK    5  A    between atoms: N_13  and  C_14
REMARK    6  A    between atoms: C_14  and  C_15
REMARK    7  A    between atoms: N_19  and  C_20
REMARK    8  A    between atoms: C_20  and  C_21
REMARK                            x       y       z     vdW  Elec       q    Type
REMARK                         _______ _______ _______ _____ _____    ______ ____
ROOT
ATOM      1  N   UNL     1      -1.901  12.427  20.599  0.00  0.00    +0.000 NA
ATOM      2  C   UNL     1      -1.753  13.733  21.268  0.00  0.00    +0.000 C 
ATOM      3  C   UNL     1      -3.088  14.528  21.237  0.00  0.00    +0.000 C 
ATOM      4  N   UNL     1      -4.105  14.250  22.280  0.00  0.00    +0.000 NA
ATOM      5  C   UNL     1      -5.432  14.729  21.840  0.00  0.00    +0.000 C 
ATOM      6  C   UNL     1      -6.247  13.850  20.841  0.00  0.00    +0.000 C 
ATOM      7  N   UNL     1      -5.868  13.983  19.417  0.00  0.00    +0.000 NA
ATOM      8  C   UNL     1      -6.020  12.680  18.718  0.00  0.00    +0.000 C 
ATOM      9  C   UNL     1      -4.804  11.716  18.859  0.00  0.00    +0.000 C 
ATOM     10  N   UNL     1      -3.788  11.833  17.782  0.00  0.00    +0.000 NA
ATOM     11  C   UNL     1      -2.445  11.444  18.298  0.00  0.00    +0.000 C 
ATOM     12  C   UNL     1      -1.740  12.545  19.137  0.00  0.00    +0.000 C 
ENDROOT
BRANCH   1  13
ATOM     13  C   UNL     1      -1.102  11.358  21.220  0.00  0.00    +0.000 C 
BRANCH  13  15
ATOM     14 CL   UNL     1       1.080   9.745  21.459  0.00  0.00    +0.000 Cl
ATOM     15  C   UNL     1       0.371  11.249  20.809  0.00  0.00    +0.000 C 
ENDBRANCH  13  15
ENDBRANCH   1  13
BRANCH   4  16
ATOM     16  C   UNL     1      -4.099  12.879  22.815  0.00  0.00    +0.000 C 
BRANCH  16  17
ATOM     17  C   UNL     1      -4.548  12.750  24.279  0.00  0.00    +0.000 C 
ATOM     18 CL   UNL     1      -6.302  12.433  24.368  0.00  0.00    +0.000 Cl
ENDBRANCH  16  17
ENDBRANCH   4  16
BRANCH   7  19
ATOM     19  C   UNL     1      -6.687  14.998  18.707  0.00  0.00    +0.000 C 
BRANCH  19  20
ATOM     20  C   UNL     1      -6.163  16.434  18.782  0.00  0.00    +0.000 C 
ATOM     21 CL   UNL     1      -6.742  17.386  17.391  0.00  0.00    +0.000 Cl
ENDBRANCH  19  20
ENDBRANCH   7  19
BRANCH  10  22
ATOM     22  C   UNL     1      -4.100  10.976  16.606  0.00  0.00    +0.000 C 
BRANCH  22  23
ATOM     23  C   UNL     1      -2.969  10.075  16.100  0.00  0.00    +0.000 C 
ATOM     24 CL   UNL     1      -2.943  10.028  14.317  0.00  0.00    +0.000 Cl
ENDBRANCH  22  23
ENDBRANCH  10  22
TORSDOF 8
ENDMDL
