MODEL 1
REMARK VINA RESULT:      -8.1      0.000      0.000
REMARK  Name = 
REMARK  7 active torsions:
REMARK  status: ('A' for Active; 'I' for Inactive)
REMARK    1  A    between atoms: C_2  and  C_11
REMARK    2  A    between atoms: N_3  and  C_4
REMARK    3  A    between atoms: C_14  and  N_15
REMARK    4  A    between atoms: N_15  and  C_16
REMARK    5  A    between atoms: C_16  and  C_17
REMARK    6  A    between atoms: C_17  and  C_18
REMARK    7  A    between atoms: C_18  and  C_19
REMARK                            x       y       z     vdW  Elec       q    Type
REMARK                         _______ _______ _______ _____ _____    ______ ____
ROOT
ATOM      1  C   UNL     1       7.965   8.082  18.042  0.00  0.00    +0.000 A 
ATOM      2  C   UNL     1       8.303   7.075  18.944  0.00  0.00    +0.000 A 
ATOM      3  N   UNL     1       7.955   5.777  18.773  0.00  0.00    +0.000 NA
ATOM      4  C   UNL     1       7.262   5.496  17.655  0.00  0.00    +0.000 A 
ATOM      5  C   UNL     1       6.979   6.511  16.724  0.00  0.00    +0.000 A 
ATOM      6  N   UNL     1       7.295   7.830  16.894  0.00  0.00    +0.000 NA
ENDROOT
BRANCH   1   8
ATOM      7  O   UNL     1       7.949  10.362  17.653  0.00  0.00    +0.000 OA
ATOM      8  C   UNL     1       8.370   9.467  18.380  0.00  0.00    +0.000 C 
ATOM      9  N   UNL     1       9.229   9.640  19.456  0.00  0.00    +0.000 N 
ATOM     10  H   UNL     1       9.649   8.807  19.856  0.00  0.00    +0.000 HD
BRANCH   9  11
ATOM     11  C   UNL     1       9.681  10.905  19.929  0.00  0.00    +0.000 A 
ATOM     12  C   UNL     1       9.242  11.426  21.157  0.00  0.00    +0.000 A 
ATOM     13  C   UNL     1       9.657  12.682  21.608  0.00  0.00    +0.000 A 
ATOM     14  C   UNL     1      10.543  13.437  20.846  0.00  0.00    +0.000 A 
ATOM     15  C   UNL     1      11.010  12.930  19.636  0.00  0.00    +0.000 A 
ATOM     16  C   UNL     1      10.590  11.671  19.181  0.00  0.00    +0.000 A 
ATOM     17 CL   UNL     1      11.186  11.123  17.652  0.00  0.00    +0.000 Cl
ENDBRANCH   9  11
ENDBRANCH   1   8
BRANCH   4  18
ATOM     18  N   UNL     1       6.834   4.185  17.415  0.00  0.00    +0.000 N 
ATOM     19  H   UNL     1       6.537   3.772  18.297  0.00  0.00    +0.000 HD
BRANCH  18  20
ATOM     20  C   UNL     1       5.809   4.061  16.376  0.00  0.00    +0.000 C 
BRANCH  20  21
ATOM     21  C   UNL     1       4.544   3.494  17.024  0.00  0.00    +0.000 C 
BRANCH  21  22
ATOM     22  C   UNL     1       3.524   4.589  17.338  0.00  0.00    +0.000 C 
BRANCH  22  23
ATOM     23  C   UNL     1       2.691   4.253  18.553  0.00  0.00    +0.000 A 
ATOM     24  C   UNL     1       2.997   4.802  19.805  0.00  0.00    +0.000 A 
ATOM     25  C   UNL     1       2.225   4.486  20.925  0.00  0.00    +0.000 A 
ATOM     26  C   UNL     1       1.143   3.615  20.805  0.00  0.00    +0.000 A 
ATOM     27  C   UNL     1       0.836   3.056  19.567  0.00  0.00    +0.000 A 
ATOM     28  C   UNL     1       1.608   3.370  18.447  0.00  0.00    +0.000 A 
ENDBRANCH  22  23
ENDBRANCH  21  22
ENDBRANCH  20  21
ENDBRANCH  18  20
ENDBRANCH   4  18
TORSDOF 7
ENDMDL
MODEL 2
REMARK VINA RESULT:      -8.0      1.169      1.520
REMARK  Name = 
REMARK  7 active torsions:
REMARK  status: ('A' for Active; 'I' for Inactive)
REMARK    1  A    between atoms: C_2  and  C_11
REMARK    2  A    between atoms: N_3  and  C_4
REMARK    3  A    between atoms: C_14  and  N_15
REMARK    4  A    between atoms: N_15  and  C_16
REMARK    5  A    between atoms: C_16  and  C_17
REMARK    6  A    between atoms: C_17  and  C_18
REMARK    7  A    between atoms: C_18  and  C_19
REMARK                            x       y       z     vdW  Elec       q    Type
REMARK                         _______ _______ _______ _____ _____    ______ ____
ROOT
ATOM      1  C   UNL     1       8.114   8.177  18.149  0.00  0.00    +0.000 A 
ATOM      2  C   UNL     1       8.456   7.257  19.138  0.00  0.00    +0.000 A 
ATOM      3  N   UNL     1       8.066   5.960  19.112  0.00  0.00    +0.000 NA
ATOM      4  C   UNL     1       7.325   5.589  18.052  0.00  0.00    +0.000 A 
ATOM      5  C   UNL     1       7.037   6.513  17.032  0.00  0.00    +0.000 A 
ATOM      6  N   UNL     1       7.396   7.832  17.056  0.00  0.00    +0.000 NA
ENDROOT
BRANCH   1   8
ATOM      7  O   UNL     1       8.119  10.413  17.553  0.00  0.00    +0.000 OA
ATOM      8  C   UNL     1       8.569   9.576  18.331  0.00  0.00    +0.000 C 
ATOM      9  N   UNL     1       9.503   9.823  19.327  0.00  0.00    +0.000 N 
ATOM     10  H   UNL     1       9.932   9.019  19.774  0.00  0.00    +0.000 HD
BRANCH   9  11
ATOM     11  C   UNL     1      10.012  11.113  19.650  0.00  0.00    +0.000 A 
ATOM     12  C   UNL     1      10.931  11.768  18.814  0.00  0.00    +0.000 A 
ATOM     13  C   UNL     1      11.457  13.019  19.144  0.00  0.00    +0.000 A 
ATOM     14  C   UNL     1      11.054  13.657  20.313  0.00  0.00    +0.000 A 
ATOM     15  C   UNL     1      10.125  13.038  21.145  0.00  0.00    +0.000 A 
ATOM     16  C   UNL     1       9.600  11.779  20.816  0.00  0.00    +0.000 A 
ATOM     17 CL   UNL     1       8.476  11.058  21.915  0.00  0.00    +0.000 Cl
ENDBRANCH   9  11
ENDBRANCH   1   8
BRANCH   4  18
ATOM     18  N   UNL     1       6.852   4.275  17.962  0.00  0.00    +0.000 N 
ATOM     19  H   UNL     1       7.502   3.660  18.446  0.00  0.00    +0.000 HD
BRANCH  18  20
ATOM     20  C   UNL     1       5.474   4.093  18.422  0.00  0.00    +0.000 C 
BRANCH  20  21
ATOM     21  C   UNL     1       4.558   4.111  17.196  0.00  0.00    +0.000 C 
BRANCH  21  22
ATOM     22  C   UNL     1       3.316   4.973  17.424  0.00  0.00    +0.000 C 
BRANCH  22  23
ATOM     23  C   UNL     1       2.384   4.362  18.442  0.00  0.00    +0.000 A 
ATOM     24  C   UNL     1       2.154   4.992  19.673  0.00  0.00    +0.000 A 
ATOM     25  C   UNL     1       1.292   4.420  20.612  0.00  0.00    +0.000 A 
ATOM     26  C   UNL     1       0.657   3.212  20.333  0.00  0.00    +0.000 A 
ATOM     27  C   UNL     1       0.885   2.571  19.117  0.00  0.00    +0.000 A 
ATOM     28  C   UNL     1       1.747   3.141  18.178  0.00  0.00    +0.000 A 
ENDBRANCH  22  23
ENDBRANCH  21  22
ENDBRANCH  20  21
ENDBRANCH  18  20
ENDBRANCH   4  18
TORSDOF 7
ENDMDL
MODEL 3
REMARK VINA RESULT:      -7.9      1.225      1.957
REMARK  Name = 
REMARK  7 active torsions:
REMARK  status: ('A' for Active; 'I' for Inactive)
REMARK    1  A    between atoms: C_2  and  C_11
REMARK    2  A    between atoms: N_3  and  C_4
REMARK    3  A    between atoms: C_14  and  N_15
REMARK    4  A    between atoms: N_15  and  C_16
REMARK    5  A    between atoms: C_16  and  C_17
REMARK    6  A    between atoms: C_17  and  C_18
REMARK    7  A    between atoms: C_18  and  C_19
REMARK                            x       y       z     vdW  Elec       q    Type
REMARK                         _______ _______ _______ _____ _____    ______ ____
ROOT
ATOM      1  C   UNL     1       8.049   8.181  18.205  0.00  0.00    +0.000 A 
ATOM      2  C   UNL     1       7.140   7.931  17.179  0.00  0.00    +0.000 A 
ATOM      3  N   UNL     1       6.622   6.704  16.930  0.00  0.00    +0.000 NA
ATOM      4  C   UNL     1       7.026   5.717  17.749  0.00  0.00    +0.000 A 
ATOM      5  C   UNL     1       7.898   5.995  18.817  0.00  0.00    +0.000 A 
ATOM      6  N   UNL     1       8.454   7.219  19.066  0.00  0.00    +0.000 NA
ENDROOT
BRANCH   1   8
ATOM      7  O   UNL     1       8.173  10.386  17.513  0.00  0.00    +0.000 OA
ATOM      8  C   UNL     1       8.572   9.563  18.332  0.00  0.00    +0.000 C 
ATOM      9  N   UNL     1       9.505   9.807  19.330  0.00  0.00    +0.000 N 
ATOM     10  H   UNL     1       9.887   9.003  19.818  0.00  0.00    +0.000 HD
BRANCH   9  11
ATOM     11  C   UNL     1      10.073  11.084  19.604  0.00  0.00    +0.000 A 
ATOM     12  C   UNL     1      11.034  11.655  18.753  0.00  0.00    +0.000 A 
ATOM     13  C   UNL     1      11.617  12.892  19.036  0.00  0.00    +0.000 A 
ATOM     14  C   UNL     1      11.234  13.599  20.171  0.00  0.00    +0.000 A 
ATOM     15  C   UNL     1      10.266  13.064  21.016  0.00  0.00    +0.000 A 
ATOM     16  C   UNL     1       9.683  11.819  20.735  0.00  0.00    +0.000 A 
ATOM     17 CL   UNL     1       8.512  11.202  21.849  0.00  0.00    +0.000 Cl
ENDBRANCH   9  11
ENDBRANCH   1   8
BRANCH   4  18
ATOM     18  N   UNL     1       6.566   4.411  17.543  0.00  0.00    +0.000 N 
ATOM     19  H   UNL     1       6.052   4.112  18.369  0.00  0.00    +0.000 HD
BRANCH  18  20
ATOM     20  C   UNL     1       5.790   4.227  16.315  0.00  0.00    +0.000 C 
BRANCH  20  21
ATOM     21  C   UNL     1       4.391   3.745  16.706  0.00  0.00    +0.000 C 
BRANCH  21  22
ATOM     22  C   UNL     1       3.586   4.839  17.406  0.00  0.00    +0.000 C 
BRANCH  22  23
ATOM     23  C   UNL     1       2.569   4.265  18.364  0.00  0.00    +0.000 A 
ATOM     24  C   UNL     1       1.904   3.067  18.071  0.00  0.00    +0.000 A 
ATOM     25  C   UNL     1       0.963   2.543  18.960  0.00  0.00    +0.000 A 
ATOM     26  C   UNL     1       0.672   3.214  20.146  0.00  0.00    +0.000 A 
ATOM     27  C   UNL     1       1.319   4.411  20.444  0.00  0.00    +0.000 A 
ATOM     28  C   UNL     1       2.260   4.936  19.556  0.00  0.00    +0.000 A 
ENDBRANCH  22  23
ENDBRANCH  21  22
ENDBRANCH  20  21
ENDBRANCH  18  20
ENDBRANCH   4  18
TORSDOF 7
ENDMDL
MODEL 4
REMARK VINA RESULT:      -7.8      0.868      1.175
REMARK  Name = 
REMARK  7 active torsions:
REMARK  status: ('A' for Active; 'I' for Inactive)
REMARK    1  A    between atoms: C_2  and  C_11
REMARK    2  A    between atoms: N_3  and  C_4
REMARK    3  A    between atoms: C_14  and  N_15
REMARK    4  A    between atoms: N_15  and  C_16
REMARK    5  A    between atoms: C_16  and  C_17
REMARK    6  A    between atoms: C_17  and  C_18
REMARK    7  A    between atoms: C_18  and  C_19
REMARK                            x       y       z     vdW  Elec       q    Type
REMARK                         _______ _______ _______ _____ _____    ______ ____
ROOT
ATOM      1  C   UNL     1       8.116   8.097  18.196  0.00  0.00    +0.000 A 
ATOM      2  C   UNL     1       7.539   7.836  16.955  0.00  0.00    +0.000 A 
ATOM      3  N   UNL     1       7.201   6.591  16.540  0.00  0.00    +0.000 NA
ATOM      4  C   UNL     1       7.441   5.595  17.411  0.00  0.00    +0.000 A 
ATOM      5  C   UNL     1       7.969   5.879  18.683  0.00  0.00    +0.000 A 
ATOM      6  N   UNL     1       8.344   7.123  19.108  0.00  0.00    +0.000 NA
ENDROOT
BRANCH   1   8
ATOM      7  O   UNL     1       8.076  10.360  17.720  0.00  0.00    +0.000 OA
ATOM      8  C   UNL     1       8.480   9.501  18.499  0.00  0.00    +0.000 C 
ATOM      9  N   UNL     1       9.286   9.732  19.605  0.00  0.00    +0.000 N 
ATOM     10  H   UNL     1       9.701   8.922  20.056  0.00  0.00    +0.000 HD
BRANCH   9  11
ATOM     11  C   UNL     1       9.692  11.022  20.048  0.00  0.00    +0.000 A 
ATOM     12  C   UNL     1       9.136  11.611  21.196  0.00  0.00    +0.000 A 
ATOM     13  C   UNL     1       9.508  12.890  21.615  0.00  0.00    +0.000 A 
ATOM     14  C   UNL     1      10.467  13.604  20.903  0.00  0.00    +0.000 A 
ATOM     15  C   UNL     1      11.050  13.031  19.776  0.00  0.00    +0.000 A 
ATOM     16  C   UNL     1      10.673  11.748  19.353  0.00  0.00    +0.000 A 
ATOM     17 CL   UNL     1      11.416  11.115  17.924  0.00  0.00    +0.000 Cl
ENDBRANCH   9  11
ENDBRANCH   1   8
BRANCH   4  18
ATOM     18  N   UNL     1       7.153   4.274  17.051  0.00  0.00    +0.000 N 
ATOM     19  H   UNL     1       7.350   3.668  17.846  0.00  0.00    +0.000 HD
BRANCH  18  20
ATOM     20  C   UNL     1       5.802   4.068  16.524  0.00  0.00    +0.000 C 
BRANCH  20  21
ATOM     21  C   UNL     1       4.808   4.298  17.665  0.00  0.00    +0.000 C 
BRANCH  21  22
ATOM     22  C   UNL     1       3.538   3.467  17.490  0.00  0.00    +0.000 C 
BRANCH  22  23
ATOM     23  C   UNL     1       2.784   3.308  18.789  0.00  0.00    +0.000 A 
ATOM     24  C   UNL     1       3.436   2.865  19.947  0.00  0.00    +0.000 A 
ATOM     25  C   UNL     1       2.733   2.718  21.145  0.00  0.00    +0.000 A 
ATOM     26  C   UNL     1       1.371   3.007  21.196  0.00  0.00    +0.000 A 
ATOM     27  C   UNL     1       0.709   3.440  20.049  0.00  0.00    +0.000 A 
ATOM     28  C   UNL     1       1.411   3.586  18.850  0.00  0.00    +0.000 A 
ENDBRANCH  22  23
ENDBRANCH  21  22
ENDBRANCH  20  21
ENDBRANCH  18  20
ENDBRANCH   4  18
TORSDOF 7
ENDMDL
MODEL 5
REMARK VINA RESULT:      -7.7      1.273      1.616
REMARK  Name = 
REMARK  7 active torsions:
REMARK  status: ('A' for Active; 'I' for Inactive)
REMARK    1  A    between atoms: C_2  and  C_11
REMARK    2  A    between atoms: N_3  and  C_4
REMARK    3  A    between atoms: C_14  and  N_15
REMARK    4  A    between atoms: N_15  and  C_16
REMARK    5  A    between atoms: C_16  and  C_17
REMARK    6  A    between atoms: C_17  and  C_18
REMARK    7  A    between atoms: C_18  and  C_19
REMARK                            x       y       z     vdW  Elec       q    Type
REMARK                         _______ _______ _______ _____ _____    ______ ____
ROOT
ATOM      1  C   UNL     1       7.930   8.123  18.052  0.00  0.00    +0.000 A 
ATOM      2  C   UNL     1       8.330   7.148  18.964  0.00  0.00    +0.000 A 
ATOM      3  N   UNL     1       7.870   5.874  18.937  0.00  0.00    +0.000 NA
ATOM      4  C   UNL     1       6.999   5.583  17.955  0.00  0.00    +0.000 A 
ATOM      5  C   UNL     1       6.649   6.560  17.006  0.00  0.00    +0.000 A 
ATOM      6  N   UNL     1       7.078   7.858  17.035  0.00  0.00    +0.000 NA
ENDROOT
BRANCH   1   8
ATOM      7  O   UNL     1       8.085  10.350  17.446  0.00  0.00    +0.000 OA
ATOM      8  C   UNL     1       8.476   9.490  18.230  0.00  0.00    +0.000 C 
ATOM      9  N   UNL     1       9.420   9.679  19.229  0.00  0.00    +0.000 N 
ATOM     10  H   UNL     1       9.792   8.850  19.682  0.00  0.00    +0.000 HD
BRANCH   9  11
ATOM     11  C   UNL     1      10.011  10.934  19.549  0.00  0.00    +0.000 A 
ATOM     12  C   UNL     1      10.971  11.526  18.711  0.00  0.00    +0.000 A 
ATOM     13  C   UNL     1      11.577  12.741  19.038  0.00  0.00    +0.000 A 
ATOM     14  C   UNL     1      11.217  13.406  20.206  0.00  0.00    +0.000 A 
ATOM     15  C   UNL     1      10.250  12.851  21.039  0.00  0.00    +0.000 A 
ATOM     16  C   UNL     1       9.644  11.628  20.714  0.00  0.00    +0.000 A 
ATOM     17 CL   UNL     1       8.477  10.984  21.815  0.00  0.00    +0.000 Cl
ENDBRANCH   9  11
ENDBRANCH   1   8
BRANCH   4  18
ATOM     18  N   UNL     1       6.449   4.298  17.873  0.00  0.00    +0.000 N 
ATOM     19  H   UNL     1       6.107   4.030  18.794  0.00  0.00    +0.000 HD
BRANCH  18  20
ATOM     20  C   UNL     1       5.427   4.140  16.837  0.00  0.00    +0.000 C 
BRANCH  20  21
ATOM     21  C   UNL     1       4.505   2.991  17.255  0.00  0.00    +0.000 C 
BRANCH  21  22
ATOM     22  C   UNL     1       3.049   3.444  17.377  0.00  0.00    +0.000 C 
BRANCH  22  23
ATOM     23  C   UNL     1       2.581   3.460  18.812  0.00  0.00    +0.000 A 
ATOM     24  C   UNL     1       3.188   2.640  19.773  0.00  0.00    +0.000 A 
ATOM     25  C   UNL     1       2.749   2.657  21.099  0.00  0.00    +0.000 A 
ATOM     26  C   UNL     1       1.696   3.489  21.476  0.00  0.00    +0.000 A 
ATOM     27  C   UNL     1       1.079   4.301  20.528  0.00  0.00    +0.000 A 
ATOM     28  C   UNL     1       1.516   4.284  19.201  0.00  0.00    +0.000 A 
ENDBRANCH  22  23
ENDBRANCH  21  22
ENDBRANCH  20  21
ENDBRANCH  18  20
ENDBRANCH   4  18
TORSDOF 7
ENDMDL
MODEL 6
REMARK VINA RESULT:      -7.5      5.364      7.004
REMARK  Name = 
REMARK  7 active torsions:
REMARK  status: ('A' for Active; 'I' for Inactive)
REMARK    1  A    between atoms: C_2  and  C_11
REMARK    2  A    between atoms: N_3  and  C_4
REMARK    3  A    between atoms: C_14  and  N_15
REMARK    4  A    between atoms: N_15  and  C_16
REMARK    5  A    between atoms: C_16  and  C_17
REMARK    6  A    between atoms: C_17  and  C_18
REMARK    7  A    between atoms: C_18  and  C_19
REMARK                            x       y       z     vdW  Elec       q    Type
REMARK                         _______ _______ _______ _____ _____    ______ ____
ROOT
ATOM      1  C   UNL     1       2.675   8.129  18.102  0.00  0.00    +0.000 A 
ATOM      2  C   UNL     1       2.534   7.172  19.105  0.00  0.00    +0.000 A 
ATOM      3  N   UNL     1       3.298   6.055  19.177  0.00  0.00    +0.000 NA
ATOM      4  C   UNL     1       4.230   5.917  18.218  0.00  0.00    +0.000 A 
ATOM      5  C   UNL     1       4.400   6.918  17.246  0.00  0.00    +0.000 A 
ATOM      6  N   UNL     1       3.621   8.037  17.140  0.00  0.00    +0.000 NA
ENDROOT
BRANCH   1   8
ATOM      7  O   UNL     1       2.072  10.276  17.486  0.00  0.00    +0.000 OA
ATOM      8  C   UNL     1       1.739   9.279  18.119  0.00  0.00    +0.000 C 
ATOM      9  N   UNL     1       0.589   9.160  18.887  0.00  0.00    +0.000 N 
ATOM     10  H   UNL     1       0.524   8.358  19.507  0.00  0.00    +0.000 HD
BRANCH   9  11
ATOM     11  C   UNL     1      -0.423  10.157  18.979  0.00  0.00    +0.000 A 
ATOM     12  C   UNL     1      -1.392  10.312  17.974  0.00  0.00    +0.000 A 
ATOM     13  C   UNL     1      -2.366  11.310  18.045  0.00  0.00    +0.000 A 
ATOM     14  C   UNL     1      -2.406  12.166  19.141  0.00  0.00    +0.000 A 
ATOM     15  C   UNL     1      -1.471  12.016  20.161  0.00  0.00    +0.000 A 
ATOM     16  C   UNL     1      -0.489  11.016  20.088  0.00  0.00    +0.000 A 
ATOM     17 CL   UNL     1       0.660  10.913  21.377  0.00  0.00    +0.000 Cl
ENDBRANCH   9  11
ENDBRANCH   1   8
BRANCH   4  18
ATOM     18  N   UNL     1       5.040   4.775  18.197  0.00  0.00    +0.000 N 
ATOM     19  H   UNL     1       4.853   4.227  19.034  0.00  0.00    +0.000 HD
BRANCH  18  20
ATOM     20  C   UNL     1       4.930   3.974  16.977  0.00  0.00    +0.000 C 
BRANCH  20  21
ATOM     21  C   UNL     1       3.505   3.418  16.902  0.00  0.00    +0.000 C 
BRANCH  21  22
ATOM     22  C   UNL     1       3.331   2.177  17.778  0.00  0.00    +0.000 C 
BRANCH  22  23
ATOM     23  C   UNL     1       2.629   2.497  19.076  0.00  0.00    +0.000 A 
ATOM     24  C   UNL     1       1.279   2.870  19.088  0.00  0.00    +0.000 A 
ATOM     25  C   UNL     1       0.636   3.166  20.292  0.00  0.00    +0.000 A 
ATOM     26  C   UNL     1       1.337   3.098  21.494  0.00  0.00    +0.000 A 
ATOM     27  C   UNL     1       2.683   2.738  21.494  0.00  0.00    +0.000 A 
ATOM     28  C   UNL     1       3.327   2.442  20.291  0.00  0.00    +0.000 A 
ENDBRANCH  22  23
ENDBRANCH  21  22
ENDBRANCH  20  21
ENDBRANCH  18  20
ENDBRANCH   4  18
TORSDOF 7
ENDMDL
MODEL 7
REMARK VINA RESULT:      -7.5      1.472      2.055
REMARK  Name = 
REMARK  7 active torsions:
REMARK  status: ('A' for Active; 'I' for Inactive)
REMARK    1  A    between atoms: C_2  and  C_11
REMARK    2  A    between atoms: N_3  and  C_4
REMARK    3  A    between atoms: C_14  and  N_15
REMARK    4  A    between atoms: N_15  and  C_16
REMARK    5  A    between atoms: C_16  and  C_17
REMARK    6  A    between atoms: C_17  and  C_18
REMARK    7  A    between atoms: C_18  and  C_19
REMARK                            x       y       z     vdW  Elec       q    Type
REMARK                         _______ _______ _______ _____ _____    ______ ____
ROOT
ATOM      1  C   UNL     1       7.930   8.034  18.120  0.00  0.00    +0.000 A 
ATOM      2  C   UNL     1       8.371   7.086  19.042  0.00  0.00    +0.000 A 
ATOM      3  N   UNL     1       7.933   5.804  19.054  0.00  0.00    +0.000 NA
ATOM      4  C   UNL     1       7.041   5.477  18.102  0.00  0.00    +0.000 A 
ATOM      5  C   UNL     1       6.649   6.427  17.143  0.00  0.00    +0.000 A 
ATOM      6  N   UNL     1       7.056   7.732  17.132  0.00  0.00    +0.000 NA
ENDROOT
BRANCH   1   8
ATOM      7  O   UNL     1       8.073  10.237  17.429  0.00  0.00    +0.000 OA
ATOM      8  C   UNL     1       8.457   9.413  18.254  0.00  0.00    +0.000 C 
ATOM      9  N   UNL     1       9.378   9.654  19.264  0.00  0.00    +0.000 N 
ATOM     10  H   UNL     1       9.750   8.848  19.757  0.00  0.00    +0.000 HD
BRANCH   9  11
ATOM     11  C   UNL     1       9.949  10.928  19.544  0.00  0.00    +0.000 A 
ATOM     12  C   UNL     1      10.839  11.544  18.649  0.00  0.00    +0.000 A 
ATOM     13  C   UNL     1      11.425  12.779  18.937  0.00  0.00    +0.000 A 
ATOM     14  C   UNL     1      11.115  13.438  20.122  0.00  0.00    +0.000 A 
ATOM     15  C   UNL     1      10.217  12.857  21.013  0.00  0.00    +0.000 A 
ATOM     16  C   UNL     1       9.631  11.615  20.727  0.00  0.00    +0.000 A 
ATOM     17 CL   UNL     1       8.550  10.940  21.897  0.00  0.00    +0.000 Cl
ENDBRANCH   9  11
ENDBRANCH   1   8
BRANCH   4  18
ATOM     18  N   UNL     1       6.512   4.182  18.063  0.00  0.00    +0.000 N 
ATOM     19  H   UNL     1       7.130   3.561  18.581  0.00  0.00    +0.000 HD
BRANCH  18  20
ATOM     20  C   UNL     1       5.122   4.079  18.514  0.00  0.00    +0.000 C 
BRANCH  20  21
ATOM     21  C   UNL     1       4.281   3.571  17.341  0.00  0.00    +0.000 C 
BRANCH  21  22
ATOM     22  C   UNL     1       2.785   3.782  17.578  0.00  0.00    +0.000 C 
BRANCH  22  23
ATOM     23  C   UNL     1       2.515   4.988  18.445  0.00  0.00    +0.000 A 
ATOM     24  C   UNL     1       2.015   4.838  19.746  0.00  0.00    +0.000 A 
ATOM     25  C   UNL     1       1.766   5.958  20.542  0.00  0.00    +0.000 A 
ATOM     26  C   UNL     1       2.008   7.237  20.046  0.00  0.00    +0.000 A 
ATOM     27  C   UNL     1       2.496   7.399  18.751  0.00  0.00    +0.000 A 
ATOM     28  C   UNL     1       2.745   6.280  17.953  0.00  0.00    +0.000 A 
ENDBRANCH  22  23
ENDBRANCH  21  22
ENDBRANCH  20  21
ENDBRANCH  18  20
ENDBRANCH   4  18
TORSDOF 7
ENDMDL
MODEL 8
REMARK VINA RESULT:      -7.5      2.970      9.609
REMARK  Name = 
REMARK  7 active torsions:
REMARK  status: ('A' for Active; 'I' for Inactive)
REMARK    1  A    between atoms: C_2  and  C_11
REMARK    2  A    between atoms: N_3  and  C_4
REMARK    3  A    between atoms: C_14  and  N_15
REMARK    4  A    between atoms: N_15  and  C_16
REMARK    5  A    between atoms: C_16  and  C_17
REMARK    6  A    between atoms: C_17  and  C_18
REMARK    7  A    between atoms: C_18  and  C_19
REMARK                            x       y       z     vdW  Elec       q    Type
REMARK                         _______ _______ _______ _____ _____    ______ ____
ROOT
ATOM      1  C   UNL     1       6.152   5.821  18.537  0.00  0.00    +0.000 A 
ATOM      2  C   UNL     1       5.762   6.676  17.507  0.00  0.00    +0.000 A 
ATOM      3  N   UNL     1       6.521   7.711  17.076  0.00  0.00    +0.000 NA
ATOM      4  C   UNL     1       7.705   7.871  17.693  0.00  0.00    +0.000 A 
ATOM      5  C   UNL     1       8.112   6.966  18.689  0.00  0.00    +0.000 A 
ATOM      6  N   UNL     1       7.348   5.935  19.159  0.00  0.00    +0.000 NA
ENDROOT
BRANCH   1   8
ATOM      7  O   UNL     1       5.658   3.629  19.089  0.00  0.00    +0.000 OA
ATOM      8  C   UNL     1       5.200   4.758  18.939  0.00  0.00    +0.000 C 
ATOM      9  N   UNL     1       3.863   5.108  19.066  0.00  0.00    +0.000 N 
ATOM     10  H   UNL     1       3.588   6.028  18.734  0.00  0.00    +0.000 HD
BRANCH   9  11
ATOM     11  C   UNL     1       2.834   4.215  19.478  0.00  0.00    +0.000 A 
ATOM     12  C   UNL     1       2.394   4.170  20.811  0.00  0.00    +0.000 A 
ATOM     13  C   UNL     1       1.408   3.272  21.225  0.00  0.00    +0.000 A 
ATOM     14  C   UNL     1       0.821   2.409  20.305  0.00  0.00    +0.000 A 
ATOM     15  C   UNL     1       1.224   2.452  18.974  0.00  0.00    +0.000 A 
ATOM     16  C   UNL     1       2.217   3.351  18.557  0.00  0.00    +0.000 A 
ATOM     17 CL   UNL     1       2.690   3.324  16.894  0.00  0.00    +0.000 Cl
ENDBRANCH   9  11
ENDBRANCH   1   8
BRANCH   4  18
ATOM     18  N   UNL     1       8.538   8.936  17.332  0.00  0.00    +0.000 N 
ATOM     19  H   UNL     1       8.335   9.197  16.369  0.00  0.00    +0.000 HD
BRANCH  18  20
ATOM     20  C   UNL     1       8.483  10.085  18.238  0.00  0.00    +0.000 C 
BRANCH  20  21
ATOM     21  C   UNL     1       9.710  10.960  17.968  0.00  0.00    +0.000 C 
BRANCH  21  22
ATOM     22  C   UNL     1      10.656  11.001  19.168  0.00  0.00    +0.000 C 
BRANCH  22  23
ATOM     23  C   UNL     1      10.307  12.116  20.125  0.00  0.00    +0.000 A 
ATOM     24  C   UNL     1      10.778  13.418  19.910  0.00  0.00    +0.000 A 
ATOM     25  C   UNL     1      10.453  14.445  20.800  0.00  0.00    +0.000 A 
ATOM     26  C   UNL     1       9.661  14.179  21.915  0.00  0.00    +0.000 A 
ATOM     27  C   UNL     1       9.196  12.886  22.144  0.00  0.00    +0.000 A 
ATOM     28  C   UNL     1       9.520  11.858  21.256  0.00  0.00    +0.000 A 
ENDBRANCH  22  23
ENDBRANCH  21  22
ENDBRANCH  20  21
ENDBRANCH  18  20
ENDBRANCH   4  18
TORSDOF 7
ENDMDL
MODEL 9
REMARK VINA RESULT:      -7.4      5.413      6.837
REMARK  Name = 
REMARK  7 active torsions:
REMARK  status: ('A' for Active; 'I' for Inactive)
REMARK    1  A    between atoms: C_2  and  C_11
REMARK    2  A    between atoms: N_3  and  C_4
REMARK    3  A    between atoms: C_14  and  N_15
REMARK    4  A    between atoms: N_15  and  C_16
REMARK    5  A    between atoms: C_16  and  C_17
REMARK    6  A    between atoms: C_17  and  C_18
REMARK    7  A    between atoms: C_18  and  C_19
REMARK                            x       y       z     vdW  Elec       q    Type
REMARK                         _______ _______ _______ _____ _____    ______ ____
ROOT
ATOM      1  C   UNL     1       2.438   7.778  18.856  0.00  0.00    +0.000 A 
ATOM      2  C   UNL     1       2.675   6.718  19.730  0.00  0.00    +0.000 A 
ATOM      3  N   UNL     1       3.565   5.729  19.472  0.00  0.00    +0.000 NA
ATOM      4  C   UNL     1       4.235   5.828  18.310  0.00  0.00    +0.000 A 
ATOM      5  C   UNL     1       4.029   6.933  17.466  0.00  0.00    +0.000 A 
ATOM      6  N   UNL     1       3.115   7.924  17.694  0.00  0.00    +0.000 NA
ENDROOT
BRANCH   1   8
ATOM      7  O   UNL     1       1.049   8.766  20.420  0.00  0.00    +0.000 OA
ATOM      8  C   UNL     1       1.401   8.764  19.244  0.00  0.00    +0.000 C 
ATOM      9  N   UNL     1       0.874   9.569  18.244  0.00  0.00    +0.000 N 
ATOM     10  H   UNL     1       1.117   9.339  17.285  0.00  0.00    +0.000 HD
BRANCH   9  11
ATOM     11  C   UNL     1      -0.099  10.585  18.460  0.00  0.00    +0.000 A 
ATOM     12  C   UNL     1      -1.474  10.308  18.394  0.00  0.00    +0.000 A 
ATOM     13  C   UNL     1      -2.431  11.309  18.573  0.00  0.00    +0.000 A 
ATOM     14  C   UNL     1      -2.031  12.613  18.845  0.00  0.00    +0.000 A 
ATOM     15  C   UNL     1      -0.673  12.907  18.939  0.00  0.00    +0.000 A 
ATOM     16  C   UNL     1       0.289  11.903  18.755  0.00  0.00    +0.000 A 
ATOM     17 CL   UNL     1       1.956  12.350  18.853  0.00  0.00    +0.000 Cl
ENDBRANCH   9  11
ENDBRANCH   1   8
BRANCH   4  18
ATOM     18  N   UNL     1       5.149   4.831  17.949  0.00  0.00    +0.000 N 
ATOM     19  H   UNL     1       5.250   4.184  18.728  0.00  0.00    +0.000 HD
BRANCH  18  20
ATOM     20  C   UNL     1       4.834   4.142  16.697  0.00  0.00    +0.000 C 
BRANCH  20  21
ATOM     21  C   UNL     1       3.480   3.450  16.865  0.00  0.00    +0.000 C 
BRANCH  21  22
ATOM     22  C   UNL     1       3.562   2.261  17.822  0.00  0.00    +0.000 C 
BRANCH  22  23
ATOM     23  C   UNL     1       2.774   2.499  19.088  0.00  0.00    +0.000 A 
ATOM     24  C   UNL     1       1.418   2.849  19.033  0.00  0.00    +0.000 A 
ATOM     25  C   UNL     1       0.695   3.071  20.208  0.00  0.00    +0.000 A 
ATOM     26  C   UNL     1       1.321   2.951  21.447  0.00  0.00    +0.000 A 
ATOM     27  C   UNL     1       2.671   2.614  21.514  0.00  0.00    +0.000 A 
ATOM     28  C   UNL     1       3.395   2.392  20.340  0.00  0.00    +0.000 A 
ENDBRANCH  22  23
ENDBRANCH  21  22
ENDBRANCH  20  21
ENDBRANCH  18  20
ENDBRANCH   4  18
TORSDOF 7
ENDMDL
