MODEL 1
REMARK VINA RESULT:      -8.1      0.000      0.000
REMARK  Name = 
REMARK  3 active torsions:
REMARK  status: ('A' for Active; 'I' for Inactive)
REMARK    1  A    between atoms: C_1  and  C_2
REMARK    2  A    between atoms: C_2  and  C_3
REMARK    3  A    between atoms: C_18  and  N_19
REMARK                            x       y       z     vdW  Elec       q    Type
REMARK                         _______ _______ _______ _____ _____    ______ ____
ROOT
ATOM      1  C   UNL     1      -0.605  11.669  18.581  0.00  0.00    +0.000 C 
ATOM      2  C   UNL     1       0.022  10.277  18.761  0.00  0.00    +0.000 C 
ATOM      3  C   UNL     1      -0.985   9.239  18.218  0.00  0.00    +0.000 C 
ATOM      4  C   UNL     1       0.349  10.016  20.243  0.00  0.00    +0.000 C 
ATOM      5  C   UNL     1       1.160   8.736  20.461  0.00  0.00    +0.000 C 
ATOM      6  O   UNL     1       1.227   8.200  21.564  0.00  0.00    +0.000 OA
ATOM      7  C   UNL     1       1.949   8.179  19.329  0.00  0.00    +0.000 C 
ATOM      8  C   UNL     1       2.049   8.914  18.204  0.00  0.00    +0.000 C 
ATOM      9  C   UNL     1       1.333  10.213  17.970  0.00  0.00    +0.000 C 
ATOM     10  O   UNL     1       2.798   8.541  17.113  0.00  0.00    +0.000 OA
ATOM     11  C   UNL     1       3.735   7.552  17.284  0.00  0.00    +0.000 A 
ATOM     12  C   UNL     1       4.665   7.432  16.248  0.00  0.00    +0.000 A 
ATOM     13  C   UNL     1       5.680   6.486  16.330  0.00  0.00    +0.000 A 
ATOM     14  C   UNL     1       5.756   5.672  17.455  0.00  0.00    +0.000 A 
ATOM     15 BR   UNL     1       7.114   4.360  17.556  0.00  0.00    +0.000 Br
ATOM     16  C   UNL     1       4.834   5.800  18.494  0.00  0.00    +0.000 A 
ATOM     17  C   UNL     1       3.786   6.730  18.419  0.00  0.00    +0.000 A 
ATOM     18  C   UNL     1       2.737   6.908  19.540  0.00  0.00    +0.000 C 
ENDROOT
BRANCH  18  19
ATOM     19  N   UNL     1       1.941   5.662  19.749  0.00  0.00    +0.000 N 
ATOM     20  N   UNL     1       1.654   5.370  21.052  0.00  0.00    +0.000 NA
ATOM     21  N   UNL     1       2.256   4.213  21.305  0.00  0.00    +0.000 NA
ATOM     22  C   UNL     1       2.484   3.609  20.103  0.00  0.00    +0.000 A 
ATOM     23  C   UNL     1       2.991   2.340  19.796  0.00  0.00    +0.000 A 
ATOM     24  C   UNL     1       2.797   1.857  18.499  0.00  0.00    +0.000 A 
ATOM     25  C   UNL     1       2.113   2.625  17.550  0.00  0.00    +0.000 A 
ATOM     26  C   UNL     1       1.747   3.958  17.806  0.00  0.00    +0.000 A 
ATOM     27  C   UNL     1       2.037   4.446  19.083  0.00  0.00    +0.000 A 
ENDBRANCH  18  19
TORSDOF 1
ENDMDL
MODEL 2
REMARK VINA RESULT:      -7.4      6.016      8.753
REMARK  Name = 
REMARK  3 active torsions:
REMARK  status: ('A' for Active; 'I' for Inactive)
REMARK    1  A    between atoms: C_1  and  C_2
REMARK    2  A    between atoms: C_2  and  C_3
REMARK    3  A    between atoms: C_18  and  N_19
REMARK                            x       y       z     vdW  Elec       q    Type
REMARK                         _______ _______ _______ _____ _____    ______ ____
ROOT
ATOM      1  C   UNL     1      -4.396  16.597  24.759  0.00  0.00    +0.000 C 
ATOM      2  C   UNL     1      -3.533  15.650  23.910  0.00  0.00    +0.000 C 
ATOM      3  C   UNL     1      -3.036  14.518  24.836  0.00  0.00    +0.000 C 
ATOM      4  C   UNL     1      -2.354  16.411  23.277  0.00  0.00    +0.000 C 
ATOM      5  C   UNL     1      -1.577  15.572  22.259  0.00  0.00    +0.000 C 
ATOM      6  O   UNL     1      -0.441  15.881  21.908  0.00  0.00    +0.000 OA
ATOM      7  C   UNL     1      -2.247  14.407  21.622  0.00  0.00    +0.000 C 
ATOM      8  C   UNL     1      -3.564  14.233  21.844  0.00  0.00    +0.000 C 
ATOM      9  C   UNL     1      -4.387  15.076  22.775  0.00  0.00    +0.000 C 
ATOM     10  O   UNL     1      -4.311  13.234  21.265  0.00  0.00    +0.000 OA
ATOM     11  C   UNL     1      -3.783  12.585  20.177  0.00  0.00    +0.000 A 
ATOM     12  C   UNL     1      -4.692  11.813  19.450  0.00  0.00    +0.000 A 
ATOM     13  C   UNL     1      -4.276  11.137  18.309  0.00  0.00    +0.000 A 
ATOM     14  C   UNL     1      -2.950  11.249  17.904  0.00  0.00    +0.000 A 
ATOM     15 BR   UNL     1      -2.369  10.305  16.372  0.00  0.00    +0.000 Br
ATOM     16  C   UNL     1      -2.045  12.029  18.623  0.00  0.00    +0.000 A 
ATOM     17  C   UNL     1      -2.439  12.697  19.793  0.00  0.00    +0.000 A 
ATOM     18  C   UNL     1      -1.476  13.570  20.628  0.00  0.00    +0.000 C 
ENDROOT
BRANCH  18  19
ATOM     19  N   UNL     1      -0.343  12.766  21.177  0.00  0.00    +0.000 N 
ATOM     20  N   UNL     1       0.852  12.935  20.538  0.00  0.00    +0.000 NA
ATOM     21  N   UNL     1       1.157  11.750  20.021  0.00  0.00    +0.000 NA
ATOM     22  C   UNL     1       0.441  10.817  20.711  0.00  0.00    +0.000 A 
ATOM     23  C   UNL     1       0.461   9.418  20.649  0.00  0.00    +0.000 A 
ATOM     24  C   UNL     1      -0.124   8.710  21.703  0.00  0.00    +0.000 A 
ATOM     25  C   UNL     1      -0.703   9.391  22.781  0.00  0.00    +0.000 A 
ATOM     26  C   UNL     1      -0.866  10.787  22.767  0.00  0.00    +0.000 A 
ATOM     27  C   UNL     1      -0.354  11.461  21.656  0.00  0.00    +0.000 A 
ENDBRANCH  18  19
TORSDOF 1
ENDMDL
MODEL 3
REMARK VINA RESULT:      -7.2      5.820      9.568
REMARK  Name = 
REMARK  3 active torsions:
REMARK  status: ('A' for Active; 'I' for Inactive)
REMARK    1  A    between atoms: C_1  and  C_2
REMARK    2  A    between atoms: C_2  and  C_3
REMARK    3  A    between atoms: C_18  and  N_19
REMARK                            x       y       z     vdW  Elec       q    Type
REMARK                         _______ _______ _______ _____ _____    ______ ____
ROOT
ATOM      1  C   UNL     1       2.149   8.955  18.186  0.00  0.00    +0.000 C 
ATOM      2  C   UNL     1       1.099   9.977  18.645  0.00  0.00    +0.000 C 
ATOM      3  C   UNL     1       1.665  11.386  18.363  0.00  0.00    +0.000 C 
ATOM      4  C   UNL     1       0.779   9.793  20.140  0.00  0.00    +0.000 C 
ATOM      5  C   UNL     1      -0.405  10.642  20.609  0.00  0.00    +0.000 C 
ATOM      6  O   UNL     1      -0.592  10.878  21.800  0.00  0.00    +0.000 OA
ATOM      7  C   UNL     1      -1.393  11.120  19.606  0.00  0.00    +0.000 C 
ATOM      8  C   UNL     1      -1.296  10.650  18.346  0.00  0.00    +0.000 C 
ATOM      9  C   UNL     1      -0.196   9.754  17.856  0.00  0.00    +0.000 C 
ATOM     10  O   UNL     1      -2.183  10.965  17.344  0.00  0.00    +0.000 OA
ATOM     11  C   UNL     1      -3.389  11.514  17.701  0.00  0.00    +0.000 A 
ATOM     12  C   UNL     1      -4.357  11.523  16.693  0.00  0.00    +0.000 A 
ATOM     13  C   UNL     1      -5.627  12.026  16.952  0.00  0.00    +0.000 A 
ATOM     14  C   UNL     1      -5.916  12.509  18.224  0.00  0.00    +0.000 A 
ATOM     15 BR   UNL     1      -7.631  13.225  18.573  0.00  0.00    +0.000 Br
ATOM     16  C   UNL     1      -4.953  12.489  19.233  0.00  0.00    +0.000 A 
ATOM     17  C   UNL     1      -3.657  12.010  18.984  0.00  0.00    +0.000 A 
ATOM     18  C   UNL     1      -2.554  11.971  20.066  0.00  0.00    +0.000 C 
ENDROOT
BRANCH  18  19
ATOM     19  N   UNL     1      -2.218  13.340  20.557  0.00  0.00    +0.000 N 
ATOM     20  N   UNL     1      -1.007  13.823  20.146  0.00  0.00    +0.000 NA
ATOM     21  N   UNL     1      -0.291  13.991  21.252  0.00  0.00    +0.000 NA
ATOM     22  C   UNL     1      -1.172  14.068  22.291  0.00  0.00    +0.000 A 
ATOM     23  C   UNL     1      -0.965  14.344  23.649  0.00  0.00    +0.000 A 
ATOM     24  C   UNL     1      -2.077  14.696  24.419  0.00  0.00    +0.000 A 
ATOM     25  C   UNL     1      -3.348  14.769  23.838  0.00  0.00    +0.000 A 
ATOM     26  C   UNL     1      -3.582  14.339  22.521  0.00  0.00    +0.000 A 
ATOM     27  C   UNL     1      -2.465  13.904  21.802  0.00  0.00    +0.000 A 
ENDBRANCH  18  19
TORSDOF 1
ENDMDL
MODEL 4
REMARK VINA RESULT:      -7.1      5.632      9.677
REMARK  Name = 
REMARK  3 active torsions:
REMARK  status: ('A' for Active; 'I' for Inactive)
REMARK    1  A    between atoms: C_1  and  C_2
REMARK    2  A    between atoms: C_2  and  C_3
REMARK    3  A    between atoms: C_18  and  N_19
REMARK                            x       y       z     vdW  Elec       q    Type
REMARK                         _______ _______ _______ _____ _____    ______ ____
ROOT
ATOM      1  C   UNL     1       2.088   8.573  17.844  0.00  0.00    +0.000 C 
ATOM      2  C   UNL     1       1.295   9.703  18.518  0.00  0.00    +0.000 C 
ATOM      3  C   UNL     1       1.930  11.042  18.082  0.00  0.00    +0.000 C 
ATOM      4  C   UNL     1       1.319   9.546  20.049  0.00  0.00    +0.000 C 
ATOM      5  C   UNL     1       0.380  10.519  20.766  0.00  0.00    +0.000 C 
ATOM      6  O   UNL     1       0.506  10.766  21.963  0.00  0.00    +0.000 OA
ATOM      7  C   UNL     1      -0.758  11.111  20.014  0.00  0.00    +0.000 C 
ATOM      8  C   UNL     1      -1.014  10.641  18.777  0.00  0.00    +0.000 C 
ATOM      9  C   UNL     1      -0.165   9.631  18.060  0.00  0.00    +0.000 C 
ATOM     10  O   UNL     1      -2.072  11.060  18.005  0.00  0.00    +0.000 OA
ATOM     11  C   UNL     1      -3.092  11.738  18.625  0.00  0.00    +0.000 A 
ATOM     12  C   UNL     1      -4.262  11.862  17.873  0.00  0.00    +0.000 A 
ATOM     13  C   UNL     1      -5.372  12.502  18.413  0.00  0.00    +0.000 A 
ATOM     14  C   UNL     1      -5.298  13.006  19.707  0.00  0.00    +0.000 A 
ATOM     15 BR   UNL     1      -6.793  13.906  20.435  0.00  0.00    +0.000 Br
ATOM     16  C   UNL     1      -4.132  12.871  20.462  0.00  0.00    +0.000 A 
ATOM     17  C   UNL     1      -2.993  12.253  19.925  0.00  0.00    +0.000 A 
ATOM     18  C   UNL     1      -1.677  12.082  20.717  0.00  0.00    +0.000 C 
ENDROOT
BRANCH  18  19
ATOM     19  N   UNL     1      -1.085  13.403  21.088  0.00  0.00    +0.000 N 
ATOM     20  N   UNL     1      -1.370  13.830  22.354  0.00  0.00    +0.000 NA
ATOM     21  N   UNL     1      -2.067  14.952  22.209  0.00  0.00    +0.000 NA
ATOM     22  C   UNL     1      -1.803  15.428  20.958  0.00  0.00    +0.000 A 
ATOM     23  C   UNL     1      -2.188  16.620  20.331  0.00  0.00    +0.000 A 
ATOM     24  C   UNL     1      -1.497  17.002  19.178  0.00  0.00    +0.000 A 
ATOM     25  C   UNL     1      -0.454  16.212  18.680  0.00  0.00    +0.000 A 
ATOM     26  C   UNL     1      -0.175  14.941  19.211  0.00  0.00    +0.000 A 
ATOM     27  C   UNL     1      -0.945  14.544  20.308  0.00  0.00    +0.000 A 
ENDBRANCH  18  19
TORSDOF 1
ENDMDL
MODEL 5
REMARK VINA RESULT:      -7.1      5.293      8.595
REMARK  Name = 
REMARK  3 active torsions:
REMARK  status: ('A' for Active; 'I' for Inactive)
REMARK    1  A    between atoms: C_1  and  C_2
REMARK    2  A    between atoms: C_2  and  C_3
REMARK    3  A    between atoms: C_18  and  N_19
REMARK                            x       y       z     vdW  Elec       q    Type
REMARK                         _______ _______ _______ _____ _____    ______ ____
ROOT
ATOM      1  C   UNL     1      -4.010  14.825  24.348  0.00  0.00    +0.000 C 
ATOM      2  C   UNL     1      -2.763  14.382  23.568  0.00  0.00    +0.000 C 
ATOM      3  C   UNL     1      -1.525  14.828  24.377  0.00  0.00    +0.000 C 
ATOM      4  C   UNL     1      -2.758  14.995  22.156  0.00  0.00    +0.000 C 
ATOM      5  C   UNL     1      -1.653  14.431  21.261  0.00  0.00    +0.000 C 
ATOM      6  O   UNL     1      -1.289  15.017  20.244  0.00  0.00    +0.000 OA
ATOM      7  C   UNL     1      -1.066  13.103  21.587  0.00  0.00    +0.000 C 
ATOM      8  C   UNL     1      -1.645  12.377  22.563  0.00  0.00    +0.000 C 
ATOM      9  C   UNL     1      -2.782  12.857  23.419  0.00  0.00    +0.000 C 
ATOM     10  O   UNL     1      -1.239  11.112  22.917  0.00  0.00    +0.000 OA
ATOM     11  C   UNL     1      -0.430  10.428  22.044  0.00  0.00    +0.000 A 
ATOM     12  C   UNL     1      -0.306   9.060  22.299  0.00  0.00    +0.000 A 
ATOM     13  C   UNL     1       0.463   8.262  21.459  0.00  0.00    +0.000 A 
ATOM     14  C   UNL     1       1.094   8.845  20.365  0.00  0.00    +0.000 A 
ATOM     15 BR   UNL     1       2.168   7.771  19.239  0.00  0.00    +0.000 Br
ATOM     16  C   UNL     1       0.960  10.209  20.104  0.00  0.00    +0.000 A 
ATOM     17  C   UNL     1       0.211  11.036  20.955  0.00  0.00    +0.000 A 
ATOM     18  C   UNL     1       0.035  12.552  20.713  0.00  0.00    +0.000 C 
ENDROOT
BRANCH  18  19
ATOM     19  N   UNL     1       1.344  13.271  20.764  0.00  0.00    +0.000 N 
ATOM     20  N   UNL     1       1.606  13.914  21.940  0.00  0.00    +0.000 NA
ATOM     21  N   UNL     1       1.684  15.206  21.637  0.00  0.00    +0.000 NA
ATOM     22  C   UNL     1       1.936  15.287  20.299  0.00  0.00    +0.000 A 
ATOM     23  C   UNL     1       2.212  16.393  19.484  0.00  0.00    +0.000 A 
ATOM     24  C   UNL     1       2.765  16.152  18.224  0.00  0.00    +0.000 A 
ATOM     25  C   UNL     1       3.033  14.843  17.804  0.00  0.00    +0.000 A 
ATOM     26  C   UNL     1       2.610  13.730  18.550  0.00  0.00    +0.000 A 
ATOM     27  C   UNL     1       1.976  14.001  19.765  0.00  0.00    +0.000 A 
ENDBRANCH  18  19
TORSDOF 1
ENDMDL
MODEL 6
REMARK VINA RESULT:      -6.9      2.719      5.439
REMARK  Name = 
REMARK  3 active torsions:
REMARK  status: ('A' for Active; 'I' for Inactive)
REMARK    1  A    between atoms: C_1  and  C_2
REMARK    2  A    between atoms: C_2  and  C_3
REMARK    3  A    between atoms: C_18  and  N_19
REMARK                            x       y       z     vdW  Elec       q    Type
REMARK                         _______ _______ _______ _____ _____    ______ ____
ROOT
ATOM      1  C   UNL     1       7.012   4.769  14.017  0.00  0.00    +0.000 C 
ATOM      2  C   UNL     1       6.211   4.975  15.312  0.00  0.00    +0.000 C 
ATOM      3  C   UNL     1       7.219   5.033  16.480  0.00  0.00    +0.000 C 
ATOM      4  C   UNL     1       5.193   3.837  15.508  0.00  0.00    +0.000 C 
ATOM      5  C   UNL     1       4.226   4.091  16.667  0.00  0.00    +0.000 C 
ATOM      6  O   UNL     1       3.580   3.178  17.175  0.00  0.00    +0.000 OA
ATOM      7  C   UNL     1       4.005   5.487  17.131  0.00  0.00    +0.000 C 
ATOM      8  C   UNL     1       4.539   6.489  16.404  0.00  0.00    +0.000 C 
ATOM      9  C   UNL     1       5.433   6.292  15.214  0.00  0.00    +0.000 C 
ATOM     10  O   UNL     1       4.356   7.821  16.690  0.00  0.00    +0.000 OA
ATOM     11  C   UNL     1       3.337   8.161  17.545  0.00  0.00    +0.000 A 
ATOM     12  C   UNL     1       3.000   9.517  17.555  0.00  0.00    +0.000 A 
ATOM     13  C   UNL     1       1.960   9.971  18.359  0.00  0.00    +0.000 A 
ATOM     14  C   UNL     1       1.263   9.056  19.140  0.00  0.00    +0.000 A 
ATOM     15 BR   UNL     1      -0.130   9.672  20.261  0.00  0.00    +0.000 Br
ATOM     16  C   UNL     1       1.591   7.700  19.121  0.00  0.00    +0.000 A 
ATOM     17  C   UNL     1       2.655   7.227  18.337  0.00  0.00    +0.000 A 
ATOM     18  C   UNL     1       3.062   5.737  18.284  0.00  0.00    +0.000 C 
ENDROOT
BRANCH  18  19
ATOM     19  N   UNL     1       3.506   5.242  19.621  0.00  0.00    +0.000 N 
ATOM     20  N   UNL     1       4.855   5.082  19.762  0.00  0.00    +0.000 NA
ATOM     21  N   UNL     1       5.046   3.785  19.977  0.00  0.00    +0.000 NA
ATOM     22  C   UNL     1       3.861   3.275  20.420  0.00  0.00    +0.000 A 
ATOM     23  C   UNL     1       3.532   1.997  20.889  0.00  0.00    +0.000 A 
ATOM     24  C   UNL     1       2.335   1.849  21.595  0.00  0.00    +0.000 A 
ATOM     25  C   UNL     1       1.504   2.953  21.822  0.00  0.00    +0.000 A 
ATOM     26  C   UNL     1       1.751   4.198  21.218  0.00  0.00    +0.000 A 
ATOM     27  C   UNL     1       2.908   4.291  20.440  0.00  0.00    +0.000 A 
ENDBRANCH  18  19
TORSDOF 1
ENDMDL
MODEL 7
REMARK VINA RESULT:      -6.9      9.981     11.675
REMARK  Name = 
REMARK  3 active torsions:
REMARK  status: ('A' for Active; 'I' for Inactive)
REMARK    1  A    between atoms: C_1  and  C_2
REMARK    2  A    between atoms: C_2  and  C_3
REMARK    3  A    between atoms: C_18  and  N_19
REMARK                            x       y       z     vdW  Elec       q    Type
REMARK                         _______ _______ _______ _____ _____    ______ ____
ROOT
ATOM      1  C   UNL     1       6.633  11.522  25.554  0.00  0.00    +0.000 C 
ATOM      2  C   UNL     1       7.191  12.430  24.447  0.00  0.00    +0.000 C 
ATOM      3  C   UNL     1       8.026  13.536  25.130  0.00  0.00    +0.000 C 
ATOM      4  C   UNL     1       6.048  13.031  23.609  0.00  0.00    +0.000 C 
ATOM      5  C   UNL     1       6.543  13.778  22.368  0.00  0.00    +0.000 C 
ATOM      6  O   UNL     1       5.827  14.583  21.778  0.00  0.00    +0.000 OA
ATOM      7  C   UNL     1       7.889  13.459  21.822  0.00  0.00    +0.000 C 
ATOM      8  C   UNL     1       8.552  12.408  22.344  0.00  0.00    +0.000 C 
ATOM      9  C   UNL     1       8.073  11.596  23.512  0.00  0.00    +0.000 C 
ATOM     10  O   UNL     1       9.773  11.972  21.885  0.00  0.00    +0.000 OA
ATOM     11  C   UNL     1      10.191  12.409  20.653  0.00  0.00    +0.000 A 
ATOM     12  C   UNL     1      11.268  11.705  20.109  0.00  0.00    +0.000 A 
ATOM     13  C   UNL     1      11.754  12.039  18.850  0.00  0.00    +0.000 A 
ATOM     14  C   UNL     1      11.149  13.073  18.145  0.00  0.00    +0.000 A 
ATOM     15 BR   UNL     1      11.826  13.555  16.447  0.00  0.00    +0.000 Br
ATOM     16  C   UNL     1      10.065  13.769  18.683  0.00  0.00    +0.000 A 
ATOM     17  C   UNL     1       9.577  13.465  19.964  0.00  0.00    +0.000 A 
ATOM     18  C   UNL     1       8.384  14.207  20.606  0.00  0.00    +0.000 C 
ENDROOT
BRANCH  18  19
ATOM     19  N   UNL     1       8.679  15.658  20.797  0.00  0.00    +0.000 N 
ATOM     20  N   UNL     1       7.975  16.504  19.988  0.00  0.00    +0.000 NA
ATOM     21  N   UNL     1       8.879  17.119  19.232  0.00  0.00    +0.000 NA
ATOM     22  C   UNL     1      10.077  17.011  19.875  0.00  0.00    +0.000 A 
ATOM     23  C   UNL     1      11.330  17.562  19.578  0.00  0.00    +0.000 A 
ATOM     24  C   UNL     1      12.296  17.568  20.588  0.00  0.00    +0.000 A 
ATOM     25  C   UNL     1      12.006  17.040  21.851  0.00  0.00    +0.000 A 
ATOM     26  C   UNL     1      10.810  16.344  22.102  0.00  0.00    +0.000 A 
ATOM     27  C   UNL     1       9.900  16.274  21.044  0.00  0.00    +0.000 A 
ENDBRANCH  18  19
TORSDOF 1
ENDMDL
MODEL 8
REMARK VINA RESULT:      -6.8      4.932      8.590
REMARK  Name = 
REMARK  3 active torsions:
REMARK  status: ('A' for Active; 'I' for Inactive)
REMARK    1  A    between atoms: C_1  and  C_2
REMARK    2  A    between atoms: C_2  and  C_3
REMARK    3  A    between atoms: C_18  and  N_19
REMARK                            x       y       z     vdW  Elec       q    Type
REMARK                         _______ _______ _______ _____ _____    ______ ____
ROOT
ATOM      1  C   UNL     1      -3.961  13.701  24.543  0.00  0.00    +0.000 C 
ATOM      2  C   UNL     1      -2.775  13.515  23.585  0.00  0.00    +0.000 C 
ATOM      3  C   UNL     1      -1.527  14.117  24.266  0.00  0.00    +0.000 C 
ATOM      4  C   UNL     1      -3.056  14.196  22.233  0.00  0.00    +0.000 C 
ATOM      5  C   UNL     1      -2.005  13.874  21.169  0.00  0.00    +0.000 C 
ATOM      6  O   UNL     1      -1.878  14.567  20.162  0.00  0.00    +0.000 OA
ATOM      7  C   UNL     1      -1.176  12.647  21.320  0.00  0.00    +0.000 C 
ATOM      8  C   UNL     1      -1.497  11.782  22.302  0.00  0.00    +0.000 C 
ATOM      9  C   UNL     1      -2.571  12.019  23.325  0.00  0.00    +0.000 C 
ATOM     10  O   UNL     1      -0.851  10.586  22.507  0.00  0.00    +0.000 OA
ATOM     11  C   UNL     1      -0.068  10.096  21.492  0.00  0.00    +0.000 A 
ATOM     12  C   UNL     1       0.305   8.756  21.626  0.00  0.00    +0.000 A 
ATOM     13  C   UNL     1       1.071   8.145  20.641  0.00  0.00    +0.000 A 
ATOM     14  C   UNL     1       1.450   8.883  19.525  0.00  0.00    +0.000 A 
ATOM     15 BR   UNL     1       2.521   8.067  18.197  0.00  0.00    +0.000 Br
ATOM     16  C   UNL     1       1.068  10.217  19.385  0.00  0.00    +0.000 A 
ATOM     17  C   UNL     1       0.317  10.860  20.382  0.00  0.00    +0.000 A 
ATOM     18  C   UNL     1      -0.128  12.337  20.278  0.00  0.00    +0.000 C 
ENDROOT
BRANCH  18  19
ATOM     19  N   UNL     1       1.044  13.260  20.222  0.00  0.00    +0.000 N 
ATOM     20  N   UNL     1       1.931  13.136  21.254  0.00  0.00    +0.000 NA
ATOM     21  N   UNL     1       1.909  14.301  21.892  0.00  0.00    +0.000 NA
ATOM     22  C   UNL     1       1.412  15.225  21.020  0.00  0.00    +0.000 A 
ATOM     23  C   UNL     1       1.273  16.614  21.138  0.00  0.00    +0.000 A 
ATOM     24  C   UNL     1       1.053  17.348  19.969  0.00  0.00    +0.000 A 
ATOM     25  C   UNL     1       0.980  16.703  18.729  0.00  0.00    +0.000 A 
ATOM     26  C   UNL     1       0.958  15.302  18.627  0.00  0.00    +0.000 A 
ATOM     27  C   UNL     1       1.086  14.591  19.824  0.00  0.00    +0.000 A 
ENDBRANCH  18  19
TORSDOF 1
ENDMDL
MODEL 9
REMARK VINA RESULT:      -6.8      6.033     10.116
REMARK  Name = 
REMARK  3 active torsions:
REMARK  status: ('A' for Active; 'I' for Inactive)
REMARK    1  A    between atoms: C_1  and  C_2
REMARK    2  A    between atoms: C_2  and  C_3
REMARK    3  A    between atoms: C_18  and  N_19
REMARK                            x       y       z     vdW  Elec       q    Type
REMARK                         _______ _______ _______ _____ _____    ______ ____
ROOT
ATOM      1  C   UNL     1       1.538   9.225  17.849  0.00  0.00    +0.000 C 
ATOM      2  C   UNL     1       0.874  10.226  18.807  0.00  0.00    +0.000 C 
ATOM      3  C   UNL     1       1.522  11.606  18.562  0.00  0.00    +0.000 C 
ATOM      4  C   UNL     1       1.051   9.778  20.269  0.00  0.00    +0.000 C 
ATOM      5  C   UNL     1       0.240  10.619  21.257  0.00  0.00    +0.000 C 
ATOM      6  O   UNL     1       0.502  10.630  22.457  0.00  0.00    +0.000 OA
ATOM      7  C   UNL     1      -0.942  11.375  20.762  0.00  0.00    +0.000 C 
ATOM      8  C   UNL     1      -1.348  11.158  19.495  0.00  0.00    +0.000 C 
ATOM      9  C   UNL     1      -0.629  10.282  18.511  0.00  0.00    +0.000 C 
ATOM     10  O   UNL     1      -2.461  11.744  18.939  0.00  0.00    +0.000 OA
ATOM     11  C   UNL     1      -3.376  12.318  19.786  0.00  0.00    +0.000 A 
ATOM     12  C   UNL     1      -4.613  12.614  19.207  0.00  0.00    +0.000 A 
ATOM     13  C   UNL     1      -5.628  13.168  19.979  0.00  0.00    +0.000 A 
ATOM     14  C   UNL     1      -5.394  13.412  21.327  0.00  0.00    +0.000 A 
ATOM     15 BR   UNL     1      -6.760  14.196  22.375  0.00  0.00    +0.000 Br
ATOM     16  C   UNL     1      -4.163  13.105  21.908  0.00  0.00    +0.000 A 
ATOM     17  C   UNL     1      -3.117  12.571  21.140  0.00  0.00    +0.000 A 
ATOM     18  C   UNL     1      -1.735  12.217  21.733  0.00  0.00    +0.000 C 
ENDROOT
BRANCH  18  19
ATOM     19  N   UNL     1      -1.046  13.426  22.276  0.00  0.00    +0.000 N 
ATOM     20  N   UNL     1      -0.940  13.471  23.638  0.00  0.00    +0.000 NA
ATOM     21  N   UNL     1      -1.637  14.536  24.020  0.00  0.00    +0.000 NA
ATOM     22  C   UNL     1      -1.748  15.352  22.933  0.00  0.00    +0.000 A 
ATOM     23  C   UNL     1      -2.287  16.638  22.805  0.00  0.00    +0.000 A 
ATOM     24  C   UNL     1      -1.962  17.370  21.659  0.00  0.00    +0.000 A 
ATOM     25  C   UNL     1      -1.121  16.824  20.682  0.00  0.00    +0.000 A 
ATOM     26  C   UNL     1      -0.711  15.480  20.731  0.00  0.00    +0.000 A 
ATOM     27  C   UNL     1      -1.129  14.744  21.844  0.00  0.00    +0.000 A 
ENDBRANCH  18  19
TORSDOF 1
ENDMDL
