MODEL 1
REMARK VINA RESULT:      -7.0      0.000      0.000
REMARK  Name = 
REMARK  8 active torsions:
REMARK  status: ('A' for Active; 'I' for Inactive)
REMARK    1  A    between atoms: C_1  and  O_2
REMARK    2  A    between atoms: O_2  and  C_3
REMARK    3  A    between atoms: C_6  and  N_7
REMARK    4  A    between atoms: C_15  and  C_16
REMARK    5  A    between atoms: C_16  and  N_17
REMARK    6  A    between atoms: N_17  and  C_18
REMARK    7  A    between atoms: N_17  and  C_19
REMARK    8  A    between atoms: C_21  and  C_22
REMARK                            x       y       z     vdW  Elec       q    Type
REMARK                         _______ _______ _______ _____ _____    ______ ____
ROOT
ATOM      1  N   UNL     1       2.025   7.415  19.413  0.00  0.00    +0.000 N 
ATOM      2  C   UNL     1       2.112   6.075  19.747  0.00  0.00    +0.000 C 
ATOM      3  O   UNL     1       1.595   5.608  20.765  0.00  0.00    +0.000 OA
ATOM      4  N   UNL     1       2.840   5.237  18.891  0.00  0.00    +0.000 N 
ATOM      5  C   UNL     1       2.791   3.803  19.241  0.00  0.00    +0.000 C 
ATOM      6  C   UNL     1       4.054   2.991  18.955  0.00  0.00    +0.000 C 
ATOM      7  O   UNL     1       4.243   2.865  17.552  0.00  0.00    +0.000 OA
ATOM      8  C   UNL     1       5.138   3.822  16.998  0.00  0.00    +0.000 C 
ATOM      9  C   UNL     1       4.807   5.298  17.276  0.00  0.00    +0.000 C 
ATOM     10  C   UNL     1       3.309   5.556  17.536  0.00  0.00    +0.000 C 
ATOM     11  H   UNL     1       2.118   7.654  18.443  0.00  0.00    +0.000 HD
ENDROOT
BRANCH   1  15
ATOM     12  C   UNL     1       0.377  10.418  21.975  0.00  0.00    +0.000 A 
ATOM     13  C   UNL     1       0.986   9.292  22.504  0.00  0.00    +0.000 A 
ATOM     14  C   UNL     1       1.536   8.326  21.651  0.00  0.00    +0.000 A 
ATOM     15  C   UNL     1       1.462   8.429  20.251  0.00  0.00    +0.000 A 
ATOM     16  C   UNL     1       0.839   9.573  19.711  0.00  0.00    +0.000 A 
ATOM     17  C   UNL     1       0.695   9.862  18.241  0.00  0.00    +0.000 C 
ATOM     18  C   UNL     1       0.310  10.552  20.589  0.00  0.00    +0.000 A 
BRANCH  12  20
ATOM     19  C   UNL     1      -1.543  11.205  23.124  0.00  0.00    +0.000 C 
ATOM     20  O   UNL     1      -0.204  11.426  22.694  0.00  0.00    +0.000 OA
ENDBRANCH  12  20
ENDBRANCH   1  15
BRANCH   9  21
ATOM     21  C   UNL     1       5.692   5.938  18.374  0.00  0.00    +0.000 C 
BRANCH  21  22
ATOM     22  N   UNL     1       7.133   6.042  18.057  0.00  0.00    +0.000 NA
ATOM     23  C   UNL     1       7.497   7.356  17.527  0.00  0.00    +0.000 C 
ATOM     24  C   UNL     1       7.916   5.767  19.270  0.00  0.00    +0.000 C 
ENDBRANCH  21  22
ENDBRANCH   9  21
TORSDOF 4
ENDMDL
MODEL 2
REMARK VINA RESULT:      -6.8      2.215      3.860
REMARK  Name = 
REMARK  8 active torsions:
REMARK  status: ('A' for Active; 'I' for Inactive)
REMARK    1  A    between atoms: C_1  and  O_2
REMARK    2  A    between atoms: O_2  and  C_3
REMARK    3  A    between atoms: C_6  and  N_7
REMARK    4  A    between atoms: C_15  and  C_16
REMARK    5  A    between atoms: C_16  and  N_17
REMARK    6  A    between atoms: N_17  and  C_18
REMARK    7  A    between atoms: N_17  and  C_19
REMARK    8  A    between atoms: C_21  and  C_22
REMARK                            x       y       z     vdW  Elec       q    Type
REMARK                         _______ _______ _______ _____ _____    ______ ____
ROOT
ATOM      1  N   UNL     1       1.822   8.204  19.307  0.00  0.00    +0.000 N 
ATOM      2  C   UNL     1       2.675   8.042  18.230  0.00  0.00    +0.000 C 
ATOM      3  O   UNL     1       2.747   8.860  17.310  0.00  0.00    +0.000 OA
ATOM      4  N   UNL     1       3.463   6.884  18.193  0.00  0.00    +0.000 N 
ATOM      5  C   UNL     1       4.435   6.832  17.081  0.00  0.00    +0.000 C 
ATOM      6  C   UNL     1       4.718   5.452  16.490  0.00  0.00    +0.000 C 
ATOM      7  O   UNL     1       5.424   4.655  17.432  0.00  0.00    +0.000 OA
ATOM      8  C   UNL     1       4.595   3.788  18.197  0.00  0.00    +0.000 C 
ATOM      9  C   UNL     1       3.434   4.455  18.953  0.00  0.00    +0.000 C 
ATOM     10  C   UNL     1       3.689   5.937  19.293  0.00  0.00    +0.000 C 
ATOM     11  H   UNL     1       2.070   7.744  20.163  0.00  0.00    +0.000 HD
ENDROOT
BRANCH   1  15
ATOM     12  C   UNL     1      -1.132  11.287  19.579  0.00  0.00    +0.000 A 
ATOM     13  C   UNL     1      -0.773  10.756  18.351  0.00  0.00    +0.000 A 
ATOM     14  C   UNL     1       0.185   9.735  18.281  0.00  0.00    +0.000 A 
ATOM     15  C   UNL     1       0.841   9.240  19.420  0.00  0.00    +0.000 A 
ATOM     16  C   UNL     1       0.479   9.781  20.672  0.00  0.00    +0.000 A 
ATOM     17  C   UNL     1       1.055   9.353  21.995  0.00  0.00    +0.000 C 
ATOM     18  C   UNL     1      -0.509  10.795  20.726  0.00  0.00    +0.000 A 
BRANCH  12  20
ATOM     19  C   UNL     1      -2.265  12.671  21.137  0.00  0.00    +0.000 C 
ATOM     20  O   UNL     1      -2.042  12.286  19.784  0.00  0.00    +0.000 OA
ENDBRANCH  12  20
ENDBRANCH   1  15
BRANCH   9  21
ATOM     21  C   UNL     1       2.055   4.256  18.275  0.00  0.00    +0.000 C 
BRANCH  21  22
ATOM     22  N   UNL     1       1.097   3.401  19.008  0.00  0.00    +0.000 NA
ATOM     23  C   UNL     1       1.480   1.988  18.991  0.00  0.00    +0.000 C 
ATOM     24  C   UNL     1       0.999   3.867  20.399  0.00  0.00    +0.000 C 
ENDBRANCH  21  22
ENDBRANCH   9  21
TORSDOF 4
ENDMDL
MODEL 3
REMARK VINA RESULT:      -6.6      2.224      7.926
REMARK  Name = 
REMARK  8 active torsions:
REMARK  status: ('A' for Active; 'I' for Inactive)
REMARK    1  A    between atoms: C_1  and  O_2
REMARK    2  A    between atoms: O_2  and  C_3
REMARK    3  A    between atoms: C_6  and  N_7
REMARK    4  A    between atoms: C_15  and  C_16
REMARK    5  A    between atoms: C_16  and  N_17
REMARK    6  A    between atoms: N_17  and  C_18
REMARK    7  A    between atoms: N_17  and  C_19
REMARK    8  A    between atoms: C_21  and  C_22
REMARK                            x       y       z     vdW  Elec       q    Type
REMARK                         _______ _______ _______ _____ _____    ______ ____
ROOT
ATOM      1  N   UNL     1       2.132   7.674  18.385  0.00  0.00    +0.000 N 
ATOM      2  C   UNL     1       1.709   8.153  19.612  0.00  0.00    +0.000 C 
ATOM      3  O   UNL     1       1.761   7.478  20.643  0.00  0.00    +0.000 OA
ATOM      4  N   UNL     1       1.184   9.451  19.658  0.00  0.00    +0.000 N 
ATOM      5  C   UNL     1       0.866   9.942  21.015  0.00  0.00    +0.000 C 
ATOM      6  C   UNL     1      -0.343  10.869  21.135  0.00  0.00    +0.000 C 
ATOM      7  O   UNL     1      -0.062  12.117  20.513  0.00  0.00    +0.000 OA
ATOM      8  C   UNL     1      -0.538  12.221  19.177  0.00  0.00    +0.000 C 
ATOM      9  C   UNL     1      -0.074  11.121  18.206  0.00  0.00    +0.000 C 
ATOM     10  C   UNL     1       1.266  10.471  18.604  0.00  0.00    +0.000 C 
ATOM     11  H   UNL     1       2.417   8.350  17.701  0.00  0.00    +0.000 HD
ENDROOT
BRANCH   1  15
ATOM     12  C   UNL     1       3.284   3.622  17.637  0.00  0.00    +0.000 A 
ATOM     13  C   UNL     1       2.021   3.922  18.121  0.00  0.00    +0.000 A 
ATOM     14  C   UNL     1       1.654   5.255  18.345  0.00  0.00    +0.000 A 
ATOM     15  C   UNL     1       2.540   6.325  18.133  0.00  0.00    +0.000 A 
ATOM     16  C   UNL     1       3.827   6.022  17.643  0.00  0.00    +0.000 A 
ATOM     17  C   UNL     1       4.893   7.039  17.333  0.00  0.00    +0.000 C 
ATOM     18  C   UNL     1       4.173   4.670  17.399  0.00  0.00    +0.000 A 
BRANCH  12  20
ATOM     19  C   UNL     1       3.660   1.425  18.446  0.00  0.00    +0.000 C 
ATOM     20  O   UNL     1       3.768   2.369  17.385  0.00  0.00    +0.000 OA
ENDBRANCH  12  20
ENDBRANCH   1  15
BRANCH   9  21
ATOM     21  C   UNL     1      -1.158  10.054  17.913  0.00  0.00    +0.000 C 
BRANCH  21  22
ATOM     22  N   UNL     1      -2.484  10.577  17.521  0.00  0.00    +0.000 NA
ATOM     23  C   UNL     1      -2.529  10.999  16.121  0.00  0.00    +0.000 C 
ATOM     24  C   UNL     1      -3.501   9.541  17.755  0.00  0.00    +0.000 C 
ENDBRANCH  21  22
ENDBRANCH   9  21
TORSDOF 4
ENDMDL
MODEL 4
REMARK VINA RESULT:      -6.5      0.812      1.008
REMARK  Name = 
REMARK  8 active torsions:
REMARK  status: ('A' for Active; 'I' for Inactive)
REMARK    1  A    between atoms: C_1  and  O_2
REMARK    2  A    between atoms: O_2  and  C_3
REMARK    3  A    between atoms: C_6  and  N_7
REMARK    4  A    between atoms: C_15  and  C_16
REMARK    5  A    between atoms: C_16  and  N_17
REMARK    6  A    between atoms: N_17  and  C_18
REMARK    7  A    between atoms: N_17  and  C_19
REMARK    8  A    between atoms: C_21  and  C_22
REMARK                            x       y       z     vdW  Elec       q    Type
REMARK                         _______ _______ _______ _____ _____    ______ ____
ROOT
ATOM      1  N   UNL     1       2.085   7.110  19.317  0.00  0.00    +0.000 N 
ATOM      2  C   UNL     1       1.993   5.782  19.693  0.00  0.00    +0.000 C 
ATOM      3  O   UNL     1       1.348   5.413  20.678  0.00  0.00    +0.000 OA
ATOM      4  N   UNL     1       2.686   4.838  18.924  0.00  0.00    +0.000 N 
ATOM      5  C   UNL     1       2.448   3.431  19.308  0.00  0.00    +0.000 C 
ATOM      6  C   UNL     1       3.628   2.475  19.150  0.00  0.00    +0.000 C 
ATOM      7  O   UNL     1       3.913   2.277  17.771  0.00  0.00    +0.000 OA
ATOM      8  C   UNL     1       4.951   3.108  17.267  0.00  0.00    +0.000 C 
ATOM      9  C   UNL     1       4.768   4.621  17.476  0.00  0.00    +0.000 C 
ATOM     10  C   UNL     1       3.294   5.053  17.604  0.00  0.00    +0.000 C 
ATOM     11  H   UNL     1       2.280   7.302  18.352  0.00  0.00    +0.000 HD
ENDROOT
BRANCH   1  15
ATOM     12  C   UNL     1       0.593  10.370  21.651  0.00  0.00    +0.000 A 
ATOM     13  C   UNL     1       1.056   9.216  22.260  0.00  0.00    +0.000 A 
ATOM     14  C   UNL     1       1.557   8.164  21.482  0.00  0.00    +0.000 A 
ATOM     15  C   UNL     1       1.576   8.210  20.078  0.00  0.00    +0.000 A 
ATOM     16  C   UNL     1       1.102   9.383  19.455  0.00  0.00    +0.000 A 
ATOM     17  C   UNL     1       1.074   9.618  17.969  0.00  0.00    +0.000 C 
ATOM     18  C   UNL     1       0.622  10.447  20.259  0.00  0.00    +0.000 A 
BRANCH  12  20
ATOM     19  C   UNL     1      -0.014  12.660  21.528  0.00  0.00    +0.000 C 
ATOM     20  O   UNL     1       0.073  11.460  22.291  0.00  0.00    +0.000 OA
ENDBRANCH  12  20
ENDBRANCH   1  15
BRANCH   9  21
ATOM     21  C   UNL     1       5.631   5.199  18.625  0.00  0.00    +0.000 C 
BRANCH  21  22
ATOM     22  N   UNL     1       6.685   6.153  18.219  0.00  0.00    +0.000 NA
ATOM     23  C   UNL     1       7.898   6.028  19.029  0.00  0.00    +0.000 C 
ATOM     24  C   UNL     1       7.016   5.935  16.803  0.00  0.00    +0.000 C 
ENDBRANCH  21  22
ENDBRANCH   9  21
TORSDOF 4
ENDMDL
MODEL 5
REMARK VINA RESULT:      -6.5      2.403      7.828
REMARK  Name = 
REMARK  8 active torsions:
REMARK  status: ('A' for Active; 'I' for Inactive)
REMARK    1  A    between atoms: C_1  and  O_2
REMARK    2  A    between atoms: O_2  and  C_3
REMARK    3  A    between atoms: C_6  and  N_7
REMARK    4  A    between atoms: C_15  and  C_16
REMARK    5  A    between atoms: C_16  and  N_17
REMARK    6  A    between atoms: N_17  and  C_18
REMARK    7  A    between atoms: N_17  and  C_19
REMARK    8  A    between atoms: C_21  and  C_22
REMARK                            x       y       z     vdW  Elec       q    Type
REMARK                         _______ _______ _______ _____ _____    ______ ____
ROOT
ATOM      1  N   UNL     1       1.892   8.050  19.494  0.00  0.00    +0.000 N 
ATOM      2  C   UNL     1       1.284   8.743  20.525  0.00  0.00    +0.000 C 
ATOM      3  O   UNL     1       1.180   8.284  21.665  0.00  0.00    +0.000 OA
ATOM      4  N   UNL     1       0.751  10.006  20.235  0.00  0.00    +0.000 N 
ATOM      5  C   UNL     1       0.225  10.740  21.405  0.00  0.00    +0.000 C 
ATOM      6  C   UNL     1      -0.992  11.630  21.157  0.00  0.00    +0.000 C 
ATOM      7  O   UNL     1      -0.625  12.742  20.351  0.00  0.00    +0.000 OA
ATOM      8  C   UNL     1      -0.890  12.567  18.965  0.00  0.00    +0.000 C 
ATOM      9  C   UNL     1      -0.277  11.317  18.310  0.00  0.00    +0.000 C 
ATOM     10  C   UNL     1       0.989  10.805  19.025  0.00  0.00    +0.000 C 
ATOM     11  H   UNL     1       2.275   8.590  18.741  0.00  0.00    +0.000 HD
ENDROOT
BRANCH   1  15
ATOM     12  C   UNL     1       3.178   3.980  19.786  0.00  0.00    +0.000 A 
ATOM     13  C   UNL     1       2.232   4.489  20.660  0.00  0.00    +0.000 A 
ATOM     14  C   UNL     1       1.809   5.819  20.541  0.00  0.00    +0.000 A 
ATOM     15  C   UNL     1       2.341   6.694  19.578  0.00  0.00    +0.000 A 
ATOM     16  C   UNL     1       3.307   6.179  18.689  0.00  0.00    +0.000 A 
ATOM     17  C   UNL     1       3.962   6.960  17.582  0.00  0.00    +0.000 C 
ATOM     18  C   UNL     1       3.705   4.824  18.809  0.00  0.00    +0.000 A 
BRANCH  12  20
ATOM     19  C   UNL     1       3.547   1.963  18.595  0.00  0.00    +0.000 C 
ATOM     20  O   UNL     1       3.680   2.709  19.801  0.00  0.00    +0.000 OA
ENDBRANCH  12  20
ENDBRANCH   1  15
BRANCH   9  21
ATOM     21  C   UNL     1      -1.298  10.176  18.075  0.00  0.00    +0.000 C 
BRANCH  21  22
ATOM     22  N   UNL     1      -2.541  10.561  17.373  0.00  0.00    +0.000 NA
ATOM     23  C   UNL     1      -2.464  10.331  15.930  0.00  0.00    +0.000 C 
ATOM     24  C   UNL     1      -3.667   9.800  17.933  0.00  0.00    +0.000 C 
ENDBRANCH  21  22
ENDBRANCH   9  21
TORSDOF 4
ENDMDL
MODEL 6
REMARK VINA RESULT:      -6.2      3.137      8.222
REMARK  Name = 
REMARK  8 active torsions:
REMARK  status: ('A' for Active; 'I' for Inactive)
REMARK    1  A    between atoms: C_1  and  O_2
REMARK    2  A    between atoms: O_2  and  C_3
REMARK    3  A    between atoms: C_6  and  N_7
REMARK    4  A    between atoms: C_15  and  C_16
REMARK    5  A    between atoms: C_16  and  N_17
REMARK    6  A    between atoms: N_17  and  C_18
REMARK    7  A    between atoms: N_17  and  C_19
REMARK    8  A    between atoms: C_21  and  C_22
REMARK                            x       y       z     vdW  Elec       q    Type
REMARK                         _______ _______ _______ _____ _____    ______ ____
ROOT
ATOM      1  N   UNL     1       0.914   9.777  20.663  0.00  0.00    +0.000 N 
ATOM      2  C   UNL     1      -0.001   9.804  21.700  0.00  0.00    +0.000 C 
ATOM      3  O   UNL     1      -0.359   8.786  22.299  0.00  0.00    +0.000 OA
ATOM      4  N   UNL     1      -0.548  11.045  22.054  0.00  0.00    +0.000 N 
ATOM      5  C   UNL     1      -1.423  11.019  23.244  0.00  0.00    +0.000 C 
ATOM      6  C   UNL     1      -2.606  11.987  23.238  0.00  0.00    +0.000 C 
ATOM      7  O   UNL     1      -2.140  13.326  23.341  0.00  0.00    +0.000 OA
ATOM      8  C   UNL     1      -2.017  13.996  22.092  0.00  0.00    +0.000 C 
ATOM      9  C   UNL     1      -1.148  13.298  21.032  0.00  0.00    +0.000 C 
ATOM     10  C   UNL     1      -0.072  12.369  21.630  0.00  0.00    +0.000 C 
ATOM     11  H   UNL     1       1.432  10.617  20.486  0.00  0.00    +0.000 HD
ENDROOT
BRANCH   1  15
ATOM     12  C   UNL     1       2.465   6.175  18.954  0.00  0.00    +0.000 A 
ATOM     13  C   UNL     1       2.013   6.201  20.263  0.00  0.00    +0.000 A 
ATOM     14  C   UNL     1       1.493   7.385  20.803  0.00  0.00    +0.000 A 
ATOM     15  C   UNL     1       1.442   8.585  20.074  0.00  0.00    +0.000 A 
ATOM     16  C   UNL     1       1.904   8.562  18.741  0.00  0.00    +0.000 A 
ATOM     17  C   UNL     1       1.898   9.741  17.807  0.00  0.00    +0.000 C 
ATOM     18  C   UNL     1       2.404   7.349  18.204  0.00  0.00    +0.000 A 
BRANCH  12  20
ATOM     19  C   UNL     1       2.075   4.178  17.735  0.00  0.00    +0.000 C 
ATOM     20  O   UNL     1       3.001   5.093  18.313  0.00  0.00    +0.000 OA
ENDBRANCH  12  20
ENDBRANCH   1  15
BRANCH   9  21
ATOM     21  C   UNL     1      -1.967  12.583  19.930  0.00  0.00    +0.000 C 
BRANCH  21  22
ATOM     22  N   UNL     1      -1.177  11.860  18.910  0.00  0.00    +0.000 NA
ATOM     23  C   UNL     1      -1.967  10.858  18.195  0.00  0.00    +0.000 C 
ATOM     24  C   UNL     1      -0.626  12.828  17.950  0.00  0.00    +0.000 C 
ENDBRANCH  21  22
ENDBRANCH   9  21
TORSDOF 4
ENDMDL
MODEL 7
REMARK VINA RESULT:      -6.2      1.408      1.567
REMARK  Name = 
REMARK  8 active torsions:
REMARK  status: ('A' for Active; 'I' for Inactive)
REMARK    1  A    between atoms: C_1  and  O_2
REMARK    2  A    between atoms: O_2  and  C_3
REMARK    3  A    between atoms: C_6  and  N_7
REMARK    4  A    between atoms: C_15  and  C_16
REMARK    5  A    between atoms: C_16  and  N_17
REMARK    6  A    between atoms: N_17  and  C_18
REMARK    7  A    between atoms: N_17  and  C_19
REMARK    8  A    between atoms: C_21  and  C_22
REMARK                            x       y       z     vdW  Elec       q    Type
REMARK                         _______ _______ _______ _____ _____    ______ ____
ROOT
ATOM      1  N   UNL     1       1.790   6.768  19.390  0.00  0.00    +0.000 N 
ATOM      2  C   UNL     1       2.117   5.634  20.112  0.00  0.00    +0.000 C 
ATOM      3  O   UNL     1       2.062   5.591  21.344  0.00  0.00    +0.000 OA
ATOM      4  N   UNL     1       2.547   4.508  19.397  0.00  0.00    +0.000 N 
ATOM      5  C   UNL     1       2.764   3.299  20.218  0.00  0.00    +0.000 C 
ATOM      6  C   UNL     1       3.897   2.374  19.777  0.00  0.00    +0.000 C 
ATOM      7  O   UNL     1       3.560   1.743  18.548  0.00  0.00    +0.000 OA
ATOM      8  C   UNL     1       4.092   2.390  17.399  0.00  0.00    +0.000 C 
ATOM      9  C   UNL     1       3.755   3.883  17.245  0.00  0.00    +0.000 C 
ATOM     10  C   UNL     1       2.445   4.295  17.947  0.00  0.00    +0.000 C 
ATOM     11  H   UNL     1       1.492   6.638  18.441  0.00  0.00    +0.000 HD
ENDROOT
BRANCH   1  15
ATOM     12  C   UNL     1       0.903  10.552  21.179  0.00  0.00    +0.000 A 
ATOM     13  C   UNL     1       0.919   9.394  21.940  0.00  0.00    +0.000 A 
ATOM     14  C   UNL     1       1.228   8.165  21.342  0.00  0.00    +0.000 A 
ATOM     15  C   UNL     1       1.490   8.043  19.967  0.00  0.00    +0.000 A 
ATOM     16  C   UNL     1       1.471   9.219  19.189  0.00  0.00    +0.000 A 
ATOM     17  C   UNL     1       1.755   9.281  17.712  0.00  0.00    +0.000 C 
ATOM     18  C   UNL     1       1.181  10.457  19.815  0.00  0.00    +0.000 A 
BRANCH  12  20
ATOM     19  C   UNL     1       1.058  12.893  20.831  0.00  0.00    +0.000 C 
ATOM     20  O   UNL     1       0.611  11.806  21.636  0.00  0.00    +0.000 OA
ENDBRANCH  12  20
ENDBRANCH   1  15
BRANCH   9  21
ATOM     21  C   UNL     1       4.923   4.826  17.624  0.00  0.00    +0.000 C 
BRANCH  21  22
ATOM     22  N   UNL     1       6.196   4.589  16.910  0.00  0.00    +0.000 NA
ATOM     23  C   UNL     1       6.376   5.488  15.769  0.00  0.00    +0.000 C 
ATOM     24  C   UNL     1       7.315   4.757  17.848  0.00  0.00    +0.000 C 
ENDBRANCH  21  22
ENDBRANCH   9  21
TORSDOF 4
ENDMDL
MODEL 8
REMARK VINA RESULT:      -6.2      2.018      7.817
REMARK  Name = 
REMARK  8 active torsions:
REMARK  status: ('A' for Active; 'I' for Inactive)
REMARK    1  A    between atoms: C_1  and  O_2
REMARK    2  A    between atoms: O_2  and  C_3
REMARK    3  A    between atoms: C_6  and  N_7
REMARK    4  A    between atoms: C_15  and  C_16
REMARK    5  A    between atoms: C_16  and  N_17
REMARK    6  A    between atoms: N_17  and  C_18
REMARK    7  A    between atoms: N_17  and  C_19
REMARK    8  A    between atoms: C_21  and  C_22
REMARK                            x       y       z     vdW  Elec       q    Type
REMARK                         _______ _______ _______ _____ _____    ______ ____
ROOT
ATOM      1  N   UNL     1       2.007   7.572  19.154  0.00  0.00    +0.000 N 
ATOM      2  C   UNL     1       1.630   7.907  20.442  0.00  0.00    +0.000 C 
ATOM      3  O   UNL     1       1.680   7.107  21.380  0.00  0.00    +0.000 OA
ATOM      4  N   UNL     1       1.153   9.206  20.663  0.00  0.00    +0.000 N 
ATOM      5  C   UNL     1       0.883   9.534  22.079  0.00  0.00    +0.000 C 
ATOM      6  C   UNL     1      -0.288  10.479  22.345  0.00  0.00    +0.000 C 
ATOM      7  O   UNL     1       0.024  11.784  21.877  0.00  0.00    +0.000 OA
ATOM      8  C   UNL     1      -0.477  12.070  20.577  0.00  0.00    +0.000 C 
ATOM      9  C   UNL     1      -0.075  11.086  19.465  0.00  0.00    +0.000 C 
ATOM     10  C   UNL     1       1.249  10.347  19.743  0.00  0.00    +0.000 C 
ATOM     11  H   UNL     1       2.301   8.318  18.552  0.00  0.00    +0.000 HD
ENDROOT
BRANCH   1  15
ATOM     12  C   UNL     1       3.000   3.605  17.897  0.00  0.00    +0.000 A 
ATOM     13  C   UNL     1       1.934   3.832  18.752  0.00  0.00    +0.000 A 
ATOM     14  C   UNL     1       1.612   5.138  19.141  0.00  0.00    +0.000 A 
ATOM     15  C   UNL     1       2.360   6.253  18.726  0.00  0.00    +0.000 A 
ATOM     16  C   UNL     1       3.448   6.024  17.858  0.00  0.00    +0.000 A 
ATOM     17  C   UNL     1       4.339   7.097  17.292  0.00  0.00    +0.000 C 
ATOM     18  C   UNL     1       3.744   4.698  17.455  0.00  0.00    +0.000 A 
BRANCH  12  20
ATOM     19  C   UNL     1       3.679   1.400  18.448  0.00  0.00    +0.000 C 
ATOM     20  O   UNL     1       3.423   2.384  17.451  0.00  0.00    +0.000 OA
ENDBRANCH  12  20
ENDBRANCH   1  15
BRANCH   9  21
ATOM     21  C   UNL     1      -1.203  10.101  19.070  0.00  0.00    +0.000 C 
BRANCH  21  22
ATOM     22  N   UNL     1      -1.784  10.296  17.725  0.00  0.00    +0.000 NA
ATOM     23  C   UNL     1      -3.094   9.659  17.581  0.00  0.00    +0.000 C 
ATOM     24  C   UNL     1      -1.906  11.736  17.455  0.00  0.00    +0.000 C 
ENDBRANCH  21  22
ENDBRANCH   9  21
TORSDOF 4
ENDMDL
MODEL 9
REMARK VINA RESULT:      -6.2      3.032      8.536
REMARK  Name = 
REMARK  8 active torsions:
REMARK  status: ('A' for Active; 'I' for Inactive)
REMARK    1  A    between atoms: C_1  and  O_2
REMARK    2  A    between atoms: O_2  and  C_3
REMARK    3  A    between atoms: C_6  and  N_7
REMARK    4  A    between atoms: C_15  and  C_16
REMARK    5  A    between atoms: C_16  and  N_17
REMARK    6  A    between atoms: N_17  and  C_18
REMARK    7  A    between atoms: N_17  and  C_19
REMARK    8  A    between atoms: C_21  and  C_22
REMARK                            x       y       z     vdW  Elec       q    Type
REMARK                         _______ _______ _______ _____ _____    ______ ____
ROOT
ATOM      1  N   UNL     1       0.926   9.786  18.974  0.00  0.00    +0.000 N 
ATOM      2  C   UNL     1       1.324  11.081  18.696  0.00  0.00    +0.000 C 
ATOM      3  O   UNL     1       2.412  11.346  18.177  0.00  0.00    +0.000 OA
ATOM      4  N   UNL     1       0.451  12.120  19.046  0.00  0.00    +0.000 N 
ATOM      5  C   UNL     1       0.884  13.464  18.612  0.00  0.00    +0.000 C 
ATOM      6  C   UNL     1       0.524  14.625  19.538  0.00  0.00    +0.000 C 
ATOM      7  O   UNL     1      -0.882  14.837  19.529  0.00  0.00    +0.000 OA
ATOM      8  C   UNL     1      -1.571  14.207  20.601  0.00  0.00    +0.000 C 
ATOM      9  C   UNL     1      -1.346  12.693  20.755  0.00  0.00    +0.000 C 
ATOM     10  C   UNL     1      -0.958  11.990  19.438  0.00  0.00    +0.000 C 
ATOM     11  H   UNL     1      -0.060   9.610  19.028  0.00  0.00    +0.000 HD
ENDROOT
BRANCH   1  15
ATOM     12  C   UNL     1       3.441   6.359  18.490  0.00  0.00    +0.000 A 
ATOM     13  C   UNL     1       3.311   7.292  17.474  0.00  0.00    +0.000 A 
ATOM     14  C   UNL     1       2.497   8.417  17.655  0.00  0.00    +0.000 A 
ATOM     15  C   UNL     1       1.757   8.630  18.831  0.00  0.00    +0.000 A 
ATOM     16  C   UNL     1       1.885   7.679  19.865  0.00  0.00    +0.000 A 
ATOM     17  C   UNL     1       1.192   7.758  21.199  0.00  0.00    +0.000 C 
ATOM     18  C   UNL     1       2.732   6.559  19.674  0.00  0.00    +0.000 A 
BRANCH  12  20
ATOM     19  C   UNL     1       4.155   4.491  17.214  0.00  0.00    +0.000 C 
ATOM     20  O   UNL     1       4.192   5.218  18.438  0.00  0.00    +0.000 OA
ENDBRANCH  12  20
ENDBRANCH   1  15
BRANCH   9  21
ATOM     21  C   UNL     1      -0.375  12.322  21.903  0.00  0.00    +0.000 C 
BRANCH  21  22
ATOM     22  N   UNL     1      -0.996  11.701  23.093  0.00  0.00    +0.000 NA
ATOM     23  C   UNL     1      -2.435  11.955  23.171  0.00  0.00    +0.000 C 
ATOM     24  C   UNL     1      -0.755  10.251  23.062  0.00  0.00    +0.000 C 
ENDBRANCH  21  22
ENDBRANCH   9  21
TORSDOF 4
ENDMDL
