MODEL 1
REMARK VINA RESULT:      -8.5      0.000      0.000
REMARK  Name = 
REMARK  9 active torsions:
REMARK  status: ('A' for Active; 'I' for Inactive)
REMARK    1  A    between atoms: C_2  and  C_3
REMARK    2  A    between atoms: C_2  and  O_10
REMARK    3  A    between atoms: C_3  and  C_4
REMARK    4  A    between atoms: O_10  and  C_11
REMARK    5  A    between atoms: C_11  and  C_12
REMARK    6  A    between atoms: C_12  and  C_13
REMARK    7  A    between atoms: C_13  and  O_14
REMARK    8  A    between atoms: C_17  and  C_18
REMARK    9  A    between atoms: C_21  and  C_22
REMARK                            x       y       z     vdW  Elec       q    Type
REMARK                         _______ _______ _______ _____ _____    ______ ____
ROOT
ATOM      1  C   UNL     1       3.661   5.705  18.303  0.00  0.00    +0.000 C 
ATOM      2  C   UNL     1       3.705   6.981  17.464  0.00  0.00    +0.000 C 
ATOM      3  C   UNL     1       2.696   7.845  18.134  0.00  0.00    +0.000 C 
ATOM      4  C   UNL     1       2.113   8.919  17.584  0.00  0.00    +0.000 C 
ATOM      5  C   UNL     1       2.438   7.292  19.483  0.00  0.00    +0.000 C 
ATOM      6  O   UNL     1       1.787   7.782  20.379  0.00  0.00    +0.000 OA
ATOM      7  O   UNL     1       3.079   6.094  19.566  0.00  0.00    +0.000 OA
ENDROOT
BRANCH   4   8
ATOM      8  C   UNL     1       1.126   9.781  18.231  0.00  0.00    +0.000 A 
ATOM      9  C   UNL     1      -0.235   9.555  18.031  0.00  0.00    +0.000 A 
ATOM     10  C   UNL     1      -1.180  10.317  18.724  0.00  0.00    +0.000 A 
ATOM     11  C   UNL     1      -0.796  11.307  19.648  0.00  0.00    +0.000 A 
ATOM     12  C   UNL     1       0.582  11.551  19.791  0.00  0.00    +0.000 A 
ATOM     13  C   UNL     1       1.533  10.802  19.087  0.00  0.00    +0.000 A 
BRANCH  11  14
ATOM     14  C   UNL     1      -1.802  12.023  20.466  0.00  0.00    +0.000 A 
ATOM     15  C   UNL     1      -1.541  12.343  21.814  0.00  0.00    +0.000 A 
ATOM     16  C   UNL     1      -2.468  13.031  22.598  0.00  0.00    +0.000 A 
ATOM     17  C   UNL     1      -3.680  13.432  22.047  0.00  0.00    +0.000 A 
ATOM     18  C   UNL     1      -3.961  13.142  20.716  0.00  0.00    +0.000 A 
ATOM     19  C   UNL     1      -3.035  12.441  19.936  0.00  0.00    +0.000 A 
ENDBRANCH  11  14
ENDBRANCH   4   8
BRANCH   1  20
ATOM     20  C   UNL     1       5.072   5.152  18.583  0.00  0.00    +0.000 C 
BRANCH  20  21
ATOM     21  O   UNL     1       5.990   5.595  17.554  0.00  0.00    +0.000 OA
BRANCH  21  23
ATOM     22  O   UNL     1       7.857   4.362  17.086  0.00  0.00    +0.000 OA
ATOM     23  C   UNL     1       6.687   4.647  16.872  0.00  0.00    +0.000 C 
BRANCH  23  24
ATOM     24  C   UNL     1       5.815   3.997  15.814  0.00  0.00    +0.000 C 
BRANCH  24  25
ATOM     25  C   UNL     1       6.339   4.193  14.412  0.00  0.00    +0.000 A 
ATOM     26  C   UNL     1       5.901   3.372  13.364  0.00  0.00    +0.000 A 
ATOM     27  C   UNL     1       6.423   3.523  12.077  0.00  0.00    +0.000 A 
ATOM     28  C   UNL     1       7.388   4.494  11.824  0.00  0.00    +0.000 A 
ATOM     29  C   UNL     1       7.821   5.327  12.854  0.00  0.00    +0.000 A 
ATOM     30  C   UNL     1       7.299   5.180  14.141  0.00  0.00    +0.000 A 
ENDBRANCH  24  25
ENDBRANCH  23  24
ENDBRANCH  21  23
ENDBRANCH  20  21
ENDBRANCH   1  20
BRANCH   1  31
ATOM     31  C   UNL     1       2.778   4.610  17.672  0.00  0.00    +0.000 C 
BRANCH  31  32
ATOM     32  O   UNL     1       3.286   3.304  17.938  0.00  0.00    +0.000 OA
ATOM     33  H   UNL     1       2.924   2.713  17.251  0.00  0.00    +0.000 HD
ENDBRANCH  31  32
ENDBRANCH   1  31
TORSDOF 9
ENDMDL
MODEL 2
REMARK VINA RESULT:      -8.5      0.387      1.257
REMARK  Name = 
REMARK  9 active torsions:
REMARK  status: ('A' for Active; 'I' for Inactive)
REMARK    1  A    between atoms: C_2  and  C_3
REMARK    2  A    between atoms: C_2  and  O_10
REMARK    3  A    between atoms: C_3  and  C_4
REMARK    4  A    between atoms: O_10  and  C_11
REMARK    5  A    between atoms: C_11  and  C_12
REMARK    6  A    between atoms: C_12  and  C_13
REMARK    7  A    between atoms: C_13  and  O_14
REMARK    8  A    between atoms: C_17  and  C_18
REMARK    9  A    between atoms: C_21  and  C_22
REMARK                            x       y       z     vdW  Elec       q    Type
REMARK                         _______ _______ _______ _____ _____    ______ ____
ROOT
ATOM      1  C   UNL     1       3.534   5.635  18.349  0.00  0.00    +0.000 C 
ATOM      2  C   UNL     1       3.606   6.918  17.523  0.00  0.00    +0.000 C 
ATOM      3  C   UNL     1       2.613   7.796  18.198  0.00  0.00    +0.000 C 
ATOM      4  C   UNL     1       2.054   8.887  17.656  0.00  0.00    +0.000 C 
ATOM      5  C   UNL     1       2.339   7.235  19.541  0.00  0.00    +0.000 C 
ATOM      6  O   UNL     1       1.696   7.730  20.439  0.00  0.00    +0.000 OA
ATOM      7  O   UNL     1       2.955   6.024  19.614  0.00  0.00    +0.000 OA
ENDROOT
BRANCH   4   8
ATOM      8  C   UNL     1       1.082   9.762  18.309  0.00  0.00    +0.000 A 
ATOM      9  C   UNL     1      -0.283   9.560  18.111  0.00  0.00    +0.000 A 
ATOM     10  C   UNL     1      -1.214  10.335  18.809  0.00  0.00    +0.000 A 
ATOM     11  C   UNL     1      -0.811  11.315  19.736  0.00  0.00    +0.000 A 
ATOM     12  C   UNL     1       0.572  11.536  19.876  0.00  0.00    +0.000 A 
ATOM     13  C   UNL     1       1.508  10.774  19.167  0.00  0.00    +0.000 A 
BRANCH  11  14
ATOM     14  C   UNL     1      -1.803  12.044  20.558  0.00  0.00    +0.000 A 
ATOM     15  C   UNL     1      -2.916  12.671  19.960  0.00  0.00    +0.000 A 
ATOM     16  C   UNL     1      -3.870  13.350  20.718  0.00  0.00    +0.000 A 
ATOM     17  C   UNL     1      -3.745  13.409  22.101  0.00  0.00    +0.000 A 
ATOM     18  C   UNL     1      -2.665  12.789  22.722  0.00  0.00    +0.000 A 
ATOM     19  C   UNL     1      -1.702  12.120  21.958  0.00  0.00    +0.000 A 
ENDBRANCH  11  14
ENDBRANCH   4   8
BRANCH   1  20
ATOM     20  C   UNL     1       4.932   5.051  18.628  0.00  0.00    +0.000 C 
BRANCH  20  21
ATOM     21  O   UNL     1       5.892   5.594  17.688  0.00  0.00    +0.000 OA
BRANCH  21  23
ATOM     22  O   UNL     1       7.802   4.477  17.114  0.00  0.00    +0.000 OA
ATOM     23  C   UNL     1       6.615   4.718  16.941  0.00  0.00    +0.000 C 
BRANCH  23  24
ATOM     24  C   UNL     1       5.749   4.088  15.866  0.00  0.00    +0.000 C 
BRANCH  24  25
ATOM     25  C   UNL     1       6.336   4.220  14.480  0.00  0.00    +0.000 A 
ATOM     26  C   UNL     1       7.324   5.177  14.211  0.00  0.00    +0.000 A 
ATOM     27  C   UNL     1       7.830   5.332  12.919  0.00  0.00    +0.000 A 
ATOM     28  C   UNL     1       7.354   4.533  11.882  0.00  0.00    +0.000 A 
ATOM     29  C   UNL     1       6.384   3.567  12.140  0.00  0.00    +0.000 A 
ATOM     30  C   UNL     1       5.877   3.409  13.432  0.00  0.00    +0.000 A 
ENDBRANCH  24  25
ENDBRANCH  23  24
ENDBRANCH  21  23
ENDBRANCH  20  21
ENDBRANCH   1  20
BRANCH   1  31
ATOM     31  C   UNL     1       2.630   4.565  17.706  0.00  0.00    +0.000 C 
BRANCH  31  32
ATOM     32  O   UNL     1       1.569   4.176  18.577  0.00  0.00    +0.000 OA
ATOM     33  H   UNL     1       1.966   4.020  19.454  0.00  0.00    +0.000 HD
ENDBRANCH  31  32
ENDBRANCH   1  31
TORSDOF 9
ENDMDL
MODEL 3
REMARK VINA RESULT:      -8.3      0.848      1.426
REMARK  Name = 
REMARK  9 active torsions:
REMARK  status: ('A' for Active; 'I' for Inactive)
REMARK    1  A    between atoms: C_2  and  C_3
REMARK    2  A    between atoms: C_2  and  O_10
REMARK    3  A    between atoms: C_3  and  C_4
REMARK    4  A    between atoms: O_10  and  C_11
REMARK    5  A    between atoms: C_11  and  C_12
REMARK    6  A    between atoms: C_12  and  C_13
REMARK    7  A    between atoms: C_13  and  O_14
REMARK    8  A    between atoms: C_17  and  C_18
REMARK    9  A    between atoms: C_21  and  C_22
REMARK                            x       y       z     vdW  Elec       q    Type
REMARK                         _______ _______ _______ _____ _____    ______ ____
ROOT
ATOM      1  C   UNL     1       3.419   5.613  18.683  0.00  0.00    +0.000 C 
ATOM      2  C   UNL     1       3.608   6.842  17.797  0.00  0.00    +0.000 C 
ATOM      3  C   UNL     1       2.592   7.788  18.331  0.00  0.00    +0.000 C 
ATOM      4  C   UNL     1       2.122   8.862  17.681  0.00  0.00    +0.000 C 
ATOM      5  C   UNL     1       2.182   7.316  19.673  0.00  0.00    +0.000 C 
ATOM      6  O   UNL     1       1.481   7.882  20.482  0.00  0.00    +0.000 OA
ATOM      7  O   UNL     1       2.746   6.093  19.868  0.00  0.00    +0.000 OA
ENDROOT
BRANCH   4   8
ATOM      8  C   UNL     1       1.128   9.804  18.196  0.00  0.00    +0.000 A 
ATOM      9  C   UNL     1      -0.229   9.583  17.963  0.00  0.00    +0.000 A 
ATOM     10  C   UNL     1      -1.183  10.429  18.534  0.00  0.00    +0.000 A 
ATOM     11  C   UNL     1      -0.815  11.502  19.367  0.00  0.00    +0.000 A 
ATOM     12  C   UNL     1       0.562  11.735  19.541  0.00  0.00    +0.000 A 
ATOM     13  C   UNL     1       1.524  10.901  18.958  0.00  0.00    +0.000 A 
BRANCH  11  14
ATOM     14  C   UNL     1      -1.836  12.317  20.064  0.00  0.00    +0.000 A 
ATOM     15  C   UNL     1      -3.190  12.266  19.673  0.00  0.00    +0.000 A 
ATOM     16  C   UNL     1      -4.170  13.013  20.326  0.00  0.00    +0.000 A 
ATOM     17  C   UNL     1      -3.824  13.823  21.402  0.00  0.00    +0.000 A 
ATOM     18  C   UNL     1      -2.498  13.885  21.819  0.00  0.00    +0.000 A 
ATOM     19  C   UNL     1      -1.515  13.144  21.154  0.00  0.00    +0.000 A 
ENDBRANCH  11  14
ENDBRANCH   4   8
BRANCH   1  20
ATOM     20  C   UNL     1       4.766   5.004  19.118  0.00  0.00    +0.000 C 
BRANCH  20  21
ATOM     21  O   UNL     1       5.852   5.883  18.738  0.00  0.00    +0.000 OA
BRANCH  21  23
ATOM     22  O   UNL     1       7.556   4.391  18.428  0.00  0.00    +0.000 OA
ATOM     23  C   UNL     1       6.893   5.346  18.047  0.00  0.00    +0.000 C 
BRANCH  23  24
ATOM     24  C   UNL     1       7.117   6.094  16.746  0.00  0.00    +0.000 C 
BRANCH  24  25
ATOM     25  C   UNL     1       6.694   5.305  15.529  0.00  0.00    +0.000 A 
ATOM     26  C   UNL     1       5.486   4.595  15.523  0.00  0.00    +0.000 A 
ATOM     27  C   UNL     1       5.119   3.826  14.416  0.00  0.00    +0.000 A 
ATOM     28  C   UNL     1       5.955   3.760  13.304  0.00  0.00    +0.000 A 
ATOM     29  C   UNL     1       7.151   4.475  13.291  0.00  0.00    +0.000 A 
ATOM     30  C   UNL     1       7.519   5.246  14.397  0.00  0.00    +0.000 A 
ENDBRANCH  24  25
ENDBRANCH  23  24
ENDBRANCH  21  23
ENDBRANCH  20  21
ENDBRANCH   1  20
BRANCH   1  31
ATOM     31  C   UNL     1       2.537   4.535  18.023  0.00  0.00    +0.000 C 
BRANCH  31  32
ATOM     32  O   UNL     1       1.634   3.945  18.957  0.00  0.00    +0.000 OA
ATOM     33  H   UNL     1       0.851   3.658  18.452  0.00  0.00    +0.000 HD
ENDBRANCH  31  32
ENDBRANCH   1  31
TORSDOF 9
ENDMDL
MODEL 4
REMARK VINA RESULT:      -8.1      1.514      1.991
REMARK  Name = 
REMARK  9 active torsions:
REMARK  status: ('A' for Active; 'I' for Inactive)
REMARK    1  A    between atoms: C_2  and  C_3
REMARK    2  A    between atoms: C_2  and  O_10
REMARK    3  A    between atoms: C_3  and  C_4
REMARK    4  A    between atoms: O_10  and  C_11
REMARK    5  A    between atoms: C_11  and  C_12
REMARK    6  A    between atoms: C_12  and  C_13
REMARK    7  A    between atoms: C_13  and  O_14
REMARK    8  A    between atoms: C_17  and  C_18
REMARK    9  A    between atoms: C_21  and  C_22
REMARK                            x       y       z     vdW  Elec       q    Type
REMARK                         _______ _______ _______ _____ _____    ______ ____
ROOT
ATOM      1  C   UNL     1       3.136   5.634  18.893  0.00  0.00    +0.000 C 
ATOM      2  C   UNL     1       3.322   6.745  17.862  0.00  0.00    +0.000 C 
ATOM      3  C   UNL     1       2.398   7.803  18.354  0.00  0.00    +0.000 C 
ATOM      4  C   UNL     1       1.936   8.825  17.620  0.00  0.00    +0.000 C 
ATOM      5  C   UNL     1       2.067   7.505  19.765  0.00  0.00    +0.000 C 
ATOM      6  O   UNL     1       1.458   8.197  20.551  0.00  0.00    +0.000 OA
ATOM      7  O   UNL     1       2.580   6.279  20.059  0.00  0.00    +0.000 OA
ENDROOT
BRANCH   4   8
ATOM      8  C   UNL     1       1.034   9.874  18.091  0.00  0.00    +0.000 A 
ATOM      9  C   UNL     1      -0.346   9.717  17.966  0.00  0.00    +0.000 A 
ATOM     10  C   UNL     1      -1.211  10.675  18.501  0.00  0.00    +0.000 A 
ATOM     11  C   UNL     1      -0.728  11.802  19.192  0.00  0.00    +0.000 A 
ATOM     12  C   UNL     1       0.669  11.965  19.256  0.00  0.00    +0.000 A 
ATOM     13  C   UNL     1       1.540  11.017  18.707  0.00  0.00    +0.000 A 
BRANCH  11  14
ATOM     14  C   UNL     1      -1.653  12.746  19.860  0.00  0.00    +0.000 A 
ATOM     15  C   UNL     1      -1.199  14.001  20.315  0.00  0.00    +0.000 A 
ATOM     16  C   UNL     1      -2.056  14.912  20.933  0.00  0.00    +0.000 A 
ATOM     17  C   UNL     1      -3.400  14.596  21.099  0.00  0.00    +0.000 A 
ATOM     18  C   UNL     1      -3.881  13.371  20.648  0.00  0.00    +0.000 A 
ATOM     19  C   UNL     1      -3.016  12.455  20.041  0.00  0.00    +0.000 A 
ENDBRANCH  11  14
ENDBRANCH   4   8
BRANCH   1  20
ATOM     20  C   UNL     1       4.479   4.997  19.300  0.00  0.00    +0.000 C 
BRANCH  20  21
ATOM     21  O   UNL     1       5.464   6.031  19.540  0.00  0.00    +0.000 OA
BRANCH  21  23
ATOM     22  O   UNL     1       7.438   5.025  20.105  0.00  0.00    +0.000 OA
ATOM     23  C   UNL     1       6.773   5.719  19.347  0.00  0.00    +0.000 C 
BRANCH  23  24
ATOM     24  C   UNL     1       7.293   6.348  18.068  0.00  0.00    +0.000 C 
BRANCH  24  25
ATOM     25  C   UNL     1       6.739   5.699  16.821  0.00  0.00    +0.000 A 
ATOM     26  C   UNL     1       5.855   6.396  15.986  0.00  0.00    +0.000 A 
ATOM     27  C   UNL     1       5.305   5.779  14.860  0.00  0.00    +0.000 A 
ATOM     28  C   UNL     1       5.632   4.460  14.557  0.00  0.00    +0.000 A 
ATOM     29  C   UNL     1       6.522   3.761  15.371  0.00  0.00    +0.000 A 
ATOM     30  C   UNL     1       7.075   4.377  16.496  0.00  0.00    +0.000 A 
ENDBRANCH  24  25
ENDBRANCH  23  24
ENDBRANCH  21  23
ENDBRANCH  20  21
ENDBRANCH   1  20
BRANCH   1  31
ATOM     31  C   UNL     1       2.153   4.544  18.421  0.00  0.00    +0.000 C 
BRANCH  31  32
ATOM     32  O   UNL     1       1.365   4.042  19.499  0.00  0.00    +0.000 OA
ATOM     33  H   UNL     1       1.379   3.068  19.431  0.00  0.00    +0.000 HD
ENDBRANCH  31  32
ENDBRANCH   1  31
TORSDOF 9
ENDMDL
MODEL 5
REMARK VINA RESULT:      -8.0      0.951      1.315
REMARK  Name = 
REMARK  9 active torsions:
REMARK  status: ('A' for Active; 'I' for Inactive)
REMARK    1  A    between atoms: C_2  and  C_3
REMARK    2  A    between atoms: C_2  and  O_10
REMARK    3  A    between atoms: C_3  and  C_4
REMARK    4  A    between atoms: O_10  and  C_11
REMARK    5  A    between atoms: C_11  and  C_12
REMARK    6  A    between atoms: C_12  and  C_13
REMARK    7  A    between atoms: C_13  and  O_14
REMARK    8  A    between atoms: C_17  and  C_18
REMARK    9  A    between atoms: C_21  and  C_22
REMARK                            x       y       z     vdW  Elec       q    Type
REMARK                         _______ _______ _______ _____ _____    ______ ____
ROOT
ATOM      1  C   UNL     1       3.078   5.613  18.710  0.00  0.00    +0.000 C 
ATOM      2  C   UNL     1       3.166   6.754  17.700  0.00  0.00    +0.000 C 
ATOM      3  C   UNL     1       2.337   7.815  18.333  0.00  0.00    +0.000 C 
ATOM      4  C   UNL     1       1.817   8.871  17.693  0.00  0.00    +0.000 C 
ATOM      5  C   UNL     1       2.170   7.476  19.765  0.00  0.00    +0.000 C 
ATOM      6  O   UNL     1       1.679   8.154  20.639  0.00  0.00    +0.000 OA
ATOM      7  O   UNL     1       2.683   6.230  19.955  0.00  0.00    +0.000 OA
ENDROOT
BRANCH   4   8
ATOM      8  C   UNL     1       1.005   9.924  18.303  0.00  0.00    +0.000 A 
ATOM      9  C   UNL     1      -0.381   9.788  18.366  0.00  0.00    +0.000 A 
ATOM     10  C   UNL     1      -1.148  10.747  19.033  0.00  0.00    +0.000 A 
ATOM     11  C   UNL     1      -0.556  11.853  19.671  0.00  0.00    +0.000 A 
ATOM     12  C   UNL     1       0.838  11.995  19.545  0.00  0.00    +0.000 A 
ATOM     13  C   UNL     1       1.610  11.046  18.864  0.00  0.00    +0.000 A 
BRANCH  11  14
ATOM     14  C   UNL     1      -1.365  12.796  20.476  0.00  0.00    +0.000 A 
ATOM     15  C   UNL     1      -2.105  12.345  21.589  0.00  0.00    +0.000 A 
ATOM     16  C   UNL     1      -2.860  13.219  22.371  0.00  0.00    +0.000 A 
ATOM     17  C   UNL     1      -2.884  14.576  22.068  0.00  0.00    +0.000 A 
ATOM     18  C   UNL     1      -2.154  15.054  20.985  0.00  0.00    +0.000 A 
ATOM     19  C   UNL     1      -1.408  14.173  20.195  0.00  0.00    +0.000 A 
ENDBRANCH  11  14
ENDBRANCH   4   8
BRANCH   1  20
ATOM     20  C   UNL     1       4.443   4.933  18.931  0.00  0.00    +0.000 C 
BRANCH  20  21
ATOM     21  O   UNL     1       4.978   4.474  17.666  0.00  0.00    +0.000 OA
BRANCH  21  23
ATOM     22  O   UNL     1       7.237   4.317  17.978  0.00  0.00    +0.000 OA
ATOM     23  C   UNL     1       6.273   4.773  17.378  0.00  0.00    +0.000 C 
BRANCH  23  24
ATOM     24  C   UNL     1       6.354   5.746  16.217  0.00  0.00    +0.000 C 
BRANCH  24  25
ATOM     25  C   UNL     1       6.466   5.059  14.876  0.00  0.00    +0.000 A 
ATOM     26  C   UNL     1       7.530   5.349  14.012  0.00  0.00    +0.000 A 
ATOM     27  C   UNL     1       7.606   4.751  12.752  0.00  0.00    +0.000 A 
ATOM     28  C   UNL     1       6.619   3.857  12.343  0.00  0.00    +0.000 A 
ATOM     29  C   UNL     1       5.564   3.548  13.200  0.00  0.00    +0.000 A 
ATOM     30  C   UNL     1       5.487   4.144  14.460  0.00  0.00    +0.000 A 
ENDBRANCH  24  25
ENDBRANCH  23  24
ENDBRANCH  21  23
ENDBRANCH  20  21
ENDBRANCH   1  20
BRANCH   1  31
ATOM     31  C   UNL     1       2.017   4.561  18.327  0.00  0.00    +0.000 C 
BRANCH  31  32
ATOM     32  O   UNL     1       2.407   3.812  17.177  0.00  0.00    +0.000 OA
ATOM     33  H   UNL     1       3.226   3.336  17.414  0.00  0.00    +0.000 HD
ENDBRANCH  31  32
ENDBRANCH   1  31
TORSDOF 9
ENDMDL
MODEL 6
REMARK VINA RESULT:      -8.0      0.921      1.504
REMARK  Name = 
REMARK  9 active torsions:
REMARK  status: ('A' for Active; 'I' for Inactive)
REMARK    1  A    between atoms: C_2  and  C_3
REMARK    2  A    between atoms: C_2  and  O_10
REMARK    3  A    between atoms: C_3  and  C_4
REMARK    4  A    between atoms: O_10  and  C_11
REMARK    5  A    between atoms: C_11  and  C_12
REMARK    6  A    between atoms: C_12  and  C_13
REMARK    7  A    between atoms: C_13  and  O_14
REMARK    8  A    between atoms: C_17  and  C_18
REMARK    9  A    between atoms: C_21  and  C_22
REMARK                            x       y       z     vdW  Elec       q    Type
REMARK                         _______ _______ _______ _____ _____    ______ ____
ROOT
ATOM      1  C   UNL     1       3.198   5.849  18.584  0.00  0.00    +0.000 C 
ATOM      2  C   UNL     1       3.243   7.217  17.906  0.00  0.00    +0.000 C 
ATOM      3  C   UNL     1       2.258   8.005  18.695  0.00  0.00    +0.000 C 
ATOM      4  C   UNL     1       1.680   9.144  18.290  0.00  0.00    +0.000 C 
ATOM      5  C   UNL     1       2.017   7.294  19.971  0.00  0.00    +0.000 C 
ATOM      6  O   UNL     1       1.389   7.679  20.932  0.00  0.00    +0.000 OA
ATOM      7  O   UNL     1       2.643   6.088  19.896  0.00  0.00    +0.000 OA
ENDROOT
BRANCH   4   8
ATOM      8  C   UNL     1       0.716   9.931  19.057  0.00  0.00    +0.000 A 
ATOM      9  C   UNL     1       1.136  10.659  20.169  0.00  0.00    +0.000 A 
ATOM     10  C   UNL     1       0.235  11.486  20.845  0.00  0.00    +0.000 A 
ATOM     11  C   UNL     1      -1.098  11.628  20.420  0.00  0.00    +0.000 A 
ATOM     12  C   UNL     1      -1.511  10.841  19.328  0.00  0.00    +0.000 A 
ATOM     13  C   UNL     1      -0.617   9.998  18.658  0.00  0.00    +0.000 A 
BRANCH  11  14
ATOM     14  C   UNL     1      -2.010  12.599  21.068  0.00  0.00    +0.000 A 
ATOM     15  C   UNL     1      -2.437  12.412  22.399  0.00  0.00    +0.000 A 
ATOM     16  C   UNL     1      -3.283  13.322  23.033  0.00  0.00    +0.000 A 
ATOM     17  C   UNL     1      -3.715  14.456  22.355  0.00  0.00    +0.000 A 
ATOM     18  C   UNL     1      -3.301  14.675  21.045  0.00  0.00    +0.000 A 
ATOM     19  C   UNL     1      -2.463  13.754  20.407  0.00  0.00    +0.000 A 
ENDBRANCH  11  14
ENDBRANCH   4   8
BRANCH   1  20
ATOM     20  C   UNL     1       4.606   5.251  18.767  0.00  0.00    +0.000 C 
BRANCH  20  21
ATOM     21  O   UNL     1       4.909   4.354  17.671  0.00  0.00    +0.000 OA
BRANCH  21  23
ATOM     22  O   UNL     1       7.135   4.311  17.151  0.00  0.00    +0.000 OA
ATOM     23  C   UNL     1       5.986   4.644  16.893  0.00  0.00    +0.000 C 
BRANCH  23  24
ATOM     24  C   UNL     1       5.567   5.434  15.667  0.00  0.00    +0.000 C 
BRANCH  24  25
ATOM     25  C   UNL     1       6.101   4.855  14.378  0.00  0.00    +0.000 A 
ATOM     26  C   UNL     1       7.312   5.310  13.839  0.00  0.00    +0.000 A 
ATOM     27  C   UNL     1       7.781   4.809  12.622  0.00  0.00    +0.000 A 
ATOM     28  C   UNL     1       7.044   3.849  11.932  0.00  0.00    +0.000 A 
ATOM     29  C   UNL     1       5.847   3.377  12.466  0.00  0.00    +0.000 A 
ATOM     30  C   UNL     1       5.377   3.875  13.683  0.00  0.00    +0.000 A 
ENDBRANCH  24  25
ENDBRANCH  23  24
ENDBRANCH  21  23
ENDBRANCH  20  21
ENDBRANCH   1  20
BRANCH   1  31
ATOM     31  C   UNL     1       2.288   4.849  17.843  0.00  0.00    +0.000 C 
BRANCH  31  32
ATOM     32  O   UNL     1       2.240   3.587  18.506  0.00  0.00    +0.000 OA
ATOM     33  H   UNL     1       1.777   3.729  19.353  0.00  0.00    +0.000 HD
ENDBRANCH  31  32
ENDBRANCH   1  31
TORSDOF 9
ENDMDL
MODEL 7
REMARK VINA RESULT:      -7.9      1.024      1.483
REMARK  Name = 
REMARK  9 active torsions:
REMARK  status: ('A' for Active; 'I' for Inactive)
REMARK    1  A    between atoms: C_2  and  C_3
REMARK    2  A    between atoms: C_2  and  O_10
REMARK    3  A    between atoms: C_3  and  C_4
REMARK    4  A    between atoms: O_10  and  C_11
REMARK    5  A    between atoms: C_11  and  C_12
REMARK    6  A    between atoms: C_12  and  C_13
REMARK    7  A    between atoms: C_13  and  O_14
REMARK    8  A    between atoms: C_17  and  C_18
REMARK    9  A    between atoms: C_21  and  C_22
REMARK                            x       y       z     vdW  Elec       q    Type
REMARK                         _______ _______ _______ _____ _____    ______ ____
ROOT
ATOM      1  C   UNL     1       2.939   6.284  18.456  0.00  0.00    +0.000 C 
ATOM      2  C   UNL     1       2.939   7.584  17.654  0.00  0.00    +0.000 C 
ATOM      3  C   UNL     1       2.090   8.480  18.486  0.00  0.00    +0.000 C 
ATOM      4  C   UNL     1       1.501   9.603  18.054  0.00  0.00    +0.000 C 
ATOM      5  C   UNL     1       1.994   7.894  19.842  0.00  0.00    +0.000 C 
ATOM      6  O   UNL     1       1.509   8.389  20.835  0.00  0.00    +0.000 OA
ATOM      7  O   UNL     1       2.567   6.661  19.800  0.00  0.00    +0.000 OA
ENDROOT
BRANCH   4   8
ATOM      8  C   UNL     1       0.669  10.495  18.860  0.00  0.00    +0.000 A 
ATOM      9  C   UNL     1      -0.711  10.305  18.914  0.00  0.00    +0.000 A 
ATOM     10  C   UNL     1      -1.494  11.097  19.758  0.00  0.00    +0.000 A 
ATOM     11  C   UNL     1      -0.924  12.082  20.585  0.00  0.00    +0.000 A 
ATOM     12  C   UNL     1       0.463  12.290  20.471  0.00  0.00    +0.000 A 
ATOM     13  C   UNL     1       1.251  11.512  19.615  0.00  0.00    +0.000 A 
BRANCH  11  14
ATOM     14  C   UNL     1      -1.745  12.830  21.563  0.00  0.00    +0.000 A 
ATOM     15  C   UNL     1      -3.122  13.041  21.340  0.00  0.00    +0.000 A 
ATOM     16  C   UNL     1      -3.917  13.730  22.255  0.00  0.00    +0.000 A 
ATOM     17  C   UNL     1      -3.358  14.216  23.432  0.00  0.00    +0.000 A 
ATOM     18  C   UNL     1      -2.006  14.013  23.688  0.00  0.00    +0.000 A 
ATOM     19  C   UNL     1      -1.208  13.333  22.761  0.00  0.00    +0.000 A 
ENDBRANCH  11  14
ENDBRANCH   4   8
BRANCH   1  20
ATOM     20  C   UNL     1       4.339   5.644  18.514  0.00  0.00    +0.000 C 
BRANCH  20  21
ATOM     21  O   UNL     1       4.911   5.583  17.185  0.00  0.00    +0.000 OA
BRANCH  21  23
ATOM     22  O   UNL     1       4.707   3.345  16.766  0.00  0.00    +0.000 OA
ATOM     23  C   UNL     1       5.361   4.379  16.742  0.00  0.00    +0.000 C 
BRANCH  23  24
ATOM     24  C   UNL     1       6.781   4.496  16.218  0.00  0.00    +0.000 C 
BRANCH  24  25
ATOM     25  C   UNL     1       6.859   4.479  14.710  0.00  0.00    +0.000 A 
ATOM     26  C   UNL     1       6.066   3.596  13.964  0.00  0.00    +0.000 A 
ATOM     27  C   UNL     1       6.175   3.547  12.572  0.00  0.00    +0.000 A 
ATOM     28  C   UNL     1       7.075   4.379  11.912  0.00  0.00    +0.000 A 
ATOM     29  C   UNL     1       7.857   5.273  12.641  0.00  0.00    +0.000 A 
ATOM     30  C   UNL     1       7.749   5.325  14.033  0.00  0.00    +0.000 A 
ENDBRANCH  24  25
ENDBRANCH  23  24
ENDBRANCH  21  23
ENDBRANCH  20  21
ENDBRANCH   1  20
BRANCH   1  31
ATOM     31  C   UNL     1       1.910   5.263  17.931  0.00  0.00    +0.000 C 
BRANCH  31  32
ATOM     32  O   UNL     1       2.240   3.932  18.324  0.00  0.00    +0.000 OA
ATOM     33  H   UNL     1       2.981   3.998  18.955  0.00  0.00    +0.000 HD
ENDBRANCH  31  32
ENDBRANCH   1  31
TORSDOF 9
ENDMDL
MODEL 8
REMARK VINA RESULT:      -7.8      2.199      3.079
REMARK  Name = 
REMARK  9 active torsions:
REMARK  status: ('A' for Active; 'I' for Inactive)
REMARK    1  A    between atoms: C_2  and  C_3
REMARK    2  A    between atoms: C_2  and  O_10
REMARK    3  A    between atoms: C_3  and  C_4
REMARK    4  A    between atoms: O_10  and  C_11
REMARK    5  A    between atoms: C_11  and  C_12
REMARK    6  A    between atoms: C_12  and  C_13
REMARK    7  A    between atoms: C_13  and  O_14
REMARK    8  A    between atoms: C_17  and  C_18
REMARK    9  A    between atoms: C_21  and  C_22
REMARK                            x       y       z     vdW  Elec       q    Type
REMARK                         _______ _______ _______ _____ _____    ______ ____
ROOT
ATOM      1  C   UNL     1       2.503   5.264  19.246  0.00  0.00    +0.000 C 
ATOM      2  C   UNL     1       2.904   6.189  18.099  0.00  0.00    +0.000 C 
ATOM      3  C   UNL     1       2.265   7.478  18.481  0.00  0.00    +0.000 C 
ATOM      4  C   UNL     1       2.026   8.498  17.645  0.00  0.00    +0.000 C 
ATOM      5  C   UNL     1       1.922   7.413  19.920  0.00  0.00    +0.000 C 
ATOM      6  O   UNL     1       1.516   8.305  20.631  0.00  0.00    +0.000 OA
ATOM      7  O   UNL     1       2.150   6.139  20.340  0.00  0.00    +0.000 OA
ENDROOT
BRANCH   4   8
ATOM      8  C   UNL     1       1.406   9.771  18.008  0.00  0.00    +0.000 A 
ATOM      9  C   UNL     1       0.019   9.866  18.117  0.00  0.00    +0.000 A 
ATOM     10  C   UNL     1      -0.569  11.056  18.556  0.00  0.00    +0.000 A 
ATOM     11  C   UNL     1       0.207  12.173  18.917  0.00  0.00    +0.000 A 
ATOM     12  C   UNL     1       1.600  12.069  18.745  0.00  0.00    +0.000 A 
ATOM     13  C   UNL     1       2.193  10.885  18.290  0.00  0.00    +0.000 A 
BRANCH  11  14
ATOM     14  C   UNL     1      -0.417  13.384  19.495  0.00  0.00    +0.000 A 
ATOM     15  C   UNL     1       0.142  14.660  19.274  0.00  0.00    +0.000 A 
ATOM     16  C   UNL     1      -0.438  15.816  19.796  0.00  0.00    +0.000 A 
ATOM     17  C   UNL     1      -1.607  15.729  20.545  0.00  0.00    +0.000 A 
ATOM     18  C   UNL     1      -2.190  14.486  20.769  0.00  0.00    +0.000 A 
ATOM     19  C   UNL     1      -1.598  13.327  20.255  0.00  0.00    +0.000 A 
ENDBRANCH  11  14
ENDBRANCH   4   8
BRANCH   1  20
ATOM     20  C   UNL     1       3.676   4.379  19.707  0.00  0.00    +0.000 C 
BRANCH  20  21
ATOM     21  O   UNL     1       4.808   4.555  18.821  0.00  0.00    +0.000 OA
BRANCH  21  23
ATOM     22  O   UNL     1       4.122   2.835  17.480  0.00  0.00    +0.000 OA
ATOM     23  C   UNL     1       4.870   3.776  17.707  0.00  0.00    +0.000 C 
BRANCH  23  24
ATOM     24  C   UNL     1       5.990   4.235  16.793  0.00  0.00    +0.000 C 
BRANCH  24  25
ATOM     25  C   UNL     1       6.766   5.406  17.348  0.00  0.00    +0.000 A 
ATOM     26  C   UNL     1       7.597   5.247  18.465  0.00  0.00    +0.000 A 
ATOM     27  C   UNL     1       8.276   6.341  19.007  0.00  0.00    +0.000 A 
ATOM     28  C   UNL     1       8.132   7.604  18.438  0.00  0.00    +0.000 A 
ATOM     29  C   UNL     1       7.322   7.771  17.316  0.00  0.00    +0.000 A 
ATOM     30  C   UNL     1       6.644   6.679  16.772  0.00  0.00    +0.000 A 
ENDBRANCH  24  25
ENDBRANCH  23  24
ENDBRANCH  21  23
ENDBRANCH  20  21
ENDBRANCH   1  20
BRANCH   1  31
ATOM     31  C   UNL     1       1.280   4.390  18.904  0.00  0.00    +0.000 C 
BRANCH  31  32
ATOM     32  O   UNL     1       1.277   4.000  17.532  0.00  0.00    +0.000 OA
ATOM     33  H   UNL     1       2.210   3.933  17.253  0.00  0.00    +0.000 HD
ENDBRANCH  31  32
ENDBRANCH   1  31
TORSDOF 9
ENDMDL
MODEL 9
REMARK VINA RESULT:      -7.8      0.944      1.673
REMARK  Name = 
REMARK  9 active torsions:
REMARK  status: ('A' for Active; 'I' for Inactive)
REMARK    1  A    between atoms: C_2  and  C_3
REMARK    2  A    between atoms: C_2  and  O_10
REMARK    3  A    between atoms: C_3  and  C_4
REMARK    4  A    between atoms: O_10  and  C_11
REMARK    5  A    between atoms: C_11  and  C_12
REMARK    6  A    between atoms: C_12  and  C_13
REMARK    7  A    between atoms: C_13  and  O_14
REMARK    8  A    between atoms: C_17  and  C_18
REMARK    9  A    between atoms: C_21  and  C_22
REMARK                            x       y       z     vdW  Elec       q    Type
REMARK                         _______ _______ _______ _____ _____    ______ ____
ROOT
ATOM      1  C   UNL     1       3.246   6.008  18.745  0.00  0.00    +0.000 C 
ATOM      2  C   UNL     1       3.263   7.185  17.772  0.00  0.00    +0.000 C 
ATOM      3  C   UNL     1       2.275   8.120  18.376  0.00  0.00    +0.000 C 
ATOM      4  C   UNL     1       1.675   9.130  17.731  0.00  0.00    +0.000 C 
ATOM      5  C   UNL     1       2.060   7.717  19.784  0.00  0.00    +0.000 C 
ATOM      6  O   UNL     1       1.438   8.303  20.642  0.00  0.00    +0.000 OA
ATOM      7  O   UNL     1       2.704   6.533  19.976  0.00  0.00    +0.000 OA
ENDROOT
BRANCH   4   8
ATOM      8  C   UNL     1       0.708  10.060  18.312  0.00  0.00    +0.000 A 
ATOM      9  C   UNL     1      -0.658   9.843  18.140  0.00  0.00    +0.000 A 
ATOM     10  C   UNL     1      -1.584  10.677  18.775  0.00  0.00    +0.000 A 
ATOM     11  C   UNL     1      -1.175  11.731  19.612  0.00  0.00    +0.000 A 
ATOM     12  C   UNL     1       0.209  11.961  19.724  0.00  0.00    +0.000 A 
ATOM     13  C   UNL     1       1.140  11.140  19.078  0.00  0.00    +0.000 A 
BRANCH  11  14
ATOM     14  C   UNL     1      -2.161  12.530  20.374  0.00  0.00    +0.000 A 
ATOM     15  C   UNL     1      -3.521  12.548  20.001  0.00  0.00    +0.000 A 
ATOM     16  C   UNL     1      -4.469  13.281  20.714  0.00  0.00    +0.000 A 
ATOM     17  C   UNL     1      -4.084  14.008  21.835  0.00  0.00    +0.000 A 
ATOM     18  C   UNL     1      -2.752  14.001  22.237  0.00  0.00    +0.000 A 
ATOM     19  C   UNL     1      -1.801  13.275  21.511  0.00  0.00    +0.000 A 
ENDBRANCH  11  14
ENDBRANCH   4   8
BRANCH   1  20
ATOM     20  C   UNL     1       4.666   5.485  19.039  0.00  0.00    +0.000 C 
BRANCH  20  21
ATOM     21  O   UNL     1       5.646   6.298  18.350  0.00  0.00    +0.000 OA
BRANCH  21  23
ATOM     22  O   UNL     1       7.908   6.467  18.631  0.00  0.00    +0.000 OA
ATOM     23  C   UNL     1       6.922   5.834  18.280  0.00  0.00    +0.000 C 
BRANCH  23  24
ATOM     24  C   UNL     1       6.952   4.429  17.708  0.00  0.00    +0.000 C 
BRANCH  24  25
ATOM     25  C   UNL     1       6.786   4.397  16.207  0.00  0.00    +0.000 A 
ATOM     26  C   UNL     1       7.602   5.182  15.382  0.00  0.00    +0.000 A 
ATOM     27  C   UNL     1       7.416   5.189  13.997  0.00  0.00    +0.000 A 
ATOM     28  C   UNL     1       6.413   4.411  13.424  0.00  0.00    +0.000 A 
ATOM     29  C   UNL     1       5.606   3.613  14.232  0.00  0.00    +0.000 A 
ATOM     30  C   UNL     1       5.791   3.604  15.617  0.00  0.00    +0.000 A 
ENDBRANCH  24  25
ENDBRANCH  23  24
ENDBRANCH  21  23
ENDBRANCH  20  21
ENDBRANCH   1  20
BRANCH   1  31
ATOM     31  C   UNL     1       2.344   4.854  18.265  0.00  0.00    +0.000 C 
BRANCH  31  32
ATOM     32  O   UNL     1       2.988   4.058  17.271  0.00  0.00    +0.000 OA
ATOM     33  H   UNL     1       2.605   4.314  16.411  0.00  0.00    +0.000 HD
ENDBRANCH  31  32
ENDBRANCH   1  31
TORSDOF 9
ENDMDL
