MODEL 1
REMARK VINA RESULT:      -7.8      0.000      0.000
REMARK  Name = 
REMARK  6 active torsions:
REMARK  status: ('A' for Active; 'I' for Inactive)
REMARK    1  A    between atoms: S_2  and  N_4
REMARK    2  A    between atoms: S_2  and  C_10
REMARK    3  A    between atoms: N_4  and  C_5
REMARK    4  A    between atoms: C_14  and  N_15
REMARK    5  A    between atoms: N_15  and  C_16
REMARK    6  A    between atoms: C_16  and  C_17
REMARK                            x       y       z     vdW  Elec       q    Type
REMARK                         _______ _______ _______ _____ _____    ______ ____
ROOT
ATOM      1  C   UNL     1       0.230  10.158  19.755  0.00  0.00    +0.000 A 
ATOM      2  C   UNL     1       1.089   9.703  18.755  0.00  0.00    +0.000 A 
ATOM      3  C   UNL     1       1.850   8.555  18.980  0.00  0.00    +0.000 A 
ATOM      4 CL   UNL     1       2.895   8.018  17.707  0.00  0.00    +0.000 Cl
ATOM      5  C   UNL     1       1.794   7.851  20.205  0.00  0.00    +0.000 A 
ATOM      6  C   UNL     1       0.928   8.344  21.192  0.00  0.00    +0.000 A 
ATOM      7  C   UNL     1       0.159   9.492  20.969  0.00  0.00    +0.000 A 
ATOM      8  F   UNL     1      -0.665   9.909  21.939  0.00  0.00    +0.000 F 
ENDROOT
BRANCH   1  10
ATOM      9  O   UNL     1      -0.690  12.389  20.688  0.00  0.00    +0.000 OA
ATOM     10  S   UNL     1      -0.744  11.598  19.477  0.00  0.00    +0.000 S 
ATOM     11  O   UNL     1      -2.011  11.163  18.929  0.00  0.00    +0.000 OA
BRANCH  10  12
ATOM     12  N   UNL     1       0.093  12.395  18.230  0.00  0.00    +0.000 N 
ATOM     13  H   UNL     1      -0.639  12.776  17.626  0.00  0.00    +0.000 HD
BRANCH  12  14
ATOM     14  C   UNL     1       1.003  13.382  18.606  0.00  0.00    +0.000 A 
ATOM     15  C   UNL     1       2.343  13.187  18.870  0.00  0.00    +0.000 A 
ATOM     16  S   UNL     1       3.072  14.675  19.314  0.00  0.00    +0.000 S 
ATOM     17  C   UNL     1       1.559  15.450  19.092  0.00  0.00    +0.000 A 
ATOM     18  N   UNL     1       0.576  14.688  18.661  0.00  0.00    +0.000 NA
ENDBRANCH  12  14
ENDBRANCH  10  12
ENDBRANCH   1  10
BRANCH   5  19
ATOM     19  N   UNL     1       2.475   6.638  20.338  0.00  0.00    +0.000 N 
ATOM     20  H   UNL     1       3.388   6.752  20.782  0.00  0.00    +0.000 HD
BRANCH  19  21
ATOM     21  C   UNL     1       1.820   5.392  20.721  0.00  0.00    +0.000 C 
BRANCH  21  22
ATOM     22  C   UNL     1       2.053   4.316  19.690  0.00  0.00    +0.000 A 
ATOM     23  C   UNL     1       2.796   4.543  18.519  0.00  0.00    +0.000 A 
ATOM     24  C   UNL     1       2.944   3.530  17.576  0.00  0.00    +0.000 A 
ATOM     25  F   UNL     1       3.660   3.763  16.468  0.00  0.00    +0.000 F 
ATOM     26  C   UNL     1       2.360   2.282  17.762  0.00  0.00    +0.000 A 
ATOM     27  C   UNL     1       1.610   2.043  18.912  0.00  0.00    +0.000 A 
ATOM     28  C   UNL     1       1.459   3.058  19.856  0.00  0.00    +0.000 A 
ATOM     29  F   UNL     1       0.723   2.812  20.950  0.00  0.00    +0.000 F 
ENDBRANCH  21  22
ENDBRANCH  19  21
ENDBRANCH   5  19
TORSDOF 6
ENDMDL
MODEL 2
REMARK VINA RESULT:      -7.8      4.639      8.124
REMARK  Name = 
REMARK  6 active torsions:
REMARK  status: ('A' for Active; 'I' for Inactive)
REMARK    1  A    between atoms: S_2  and  N_4
REMARK    2  A    between atoms: S_2  and  C_10
REMARK    3  A    between atoms: N_4  and  C_5
REMARK    4  A    between atoms: C_14  and  N_15
REMARK    5  A    between atoms: N_15  and  C_16
REMARK    6  A    between atoms: C_16  and  C_17
REMARK                            x       y       z     vdW  Elec       q    Type
REMARK                         _______ _______ _______ _____ _____    ______ ____
ROOT
ATOM      1  C   UNL     1       3.130   4.789  18.912  0.00  0.00    +0.000 A 
ATOM      2  C   UNL     1       3.019   5.925  18.110  0.00  0.00    +0.000 A 
ATOM      3  C   UNL     1       2.433   7.077  18.637  0.00  0.00    +0.000 A 
ATOM      4 CL   UNL     1       2.327   8.469  17.611  0.00  0.00    +0.000 Cl
ATOM      5  C   UNL     1       1.924   7.119  19.955  0.00  0.00    +0.000 A 
ATOM      6  C   UNL     1       2.041   5.954  20.728  0.00  0.00    +0.000 A 
ATOM      7  C   UNL     1       2.634   4.798  20.206  0.00  0.00    +0.000 A 
ATOM      8  F   UNL     1       2.736   3.720  20.993  0.00  0.00    +0.000 F 
ENDROOT
BRANCH   1  10
ATOM      9  O   UNL     1       3.840   3.446  16.817  0.00  0.00    +0.000 OA
ATOM     10  S   UNL     1       3.879   3.335  18.260  0.00  0.00    +0.000 S 
ATOM     11  O   UNL     1       3.282   2.203  18.935  0.00  0.00    +0.000 OA
BRANCH  10  12
ATOM     12  N   UNL     1       5.486   3.451  18.804  0.00  0.00    +0.000 N 
ATOM     13  H   UNL     1       5.917   2.563  18.535  0.00  0.00    +0.000 HD
BRANCH  12  14
ATOM     14  C   UNL     1       6.233   4.535  18.346  0.00  0.00    +0.000 A 
ATOM     15  C   UNL     1       6.723   5.564  19.125  0.00  0.00    +0.000 A 
ATOM     16  S   UNL     1       7.568   6.688  18.141  0.00  0.00    +0.000 S 
ATOM     17  C   UNL     1       7.235   5.701  16.779  0.00  0.00    +0.000 A 
ATOM     18  N   UNL     1       6.592   4.579  17.020  0.00  0.00    +0.000 NA
ENDBRANCH  12  14
ENDBRANCH  10  12
ENDBRANCH   1  10
BRANCH   5  19
ATOM     19  N   UNL     1       1.463   8.328  20.482  0.00  0.00    +0.000 N 
ATOM     20  H   UNL     1       1.298   9.029  19.757  0.00  0.00    +0.000 HD
BRANCH  19  21
ATOM     21  C   UNL     1       0.493   8.409  21.568  0.00  0.00    +0.000 C 
BRANCH  21  22
ATOM     22  C   UNL     1      -0.207   9.744  21.576  0.00  0.00    +0.000 A 
ATOM     23  C   UNL     1      -0.465  10.465  20.397  0.00  0.00    +0.000 A 
ATOM     24  C   UNL     1      -1.074  11.715  20.460  0.00  0.00    +0.000 A 
ATOM     25  F   UNL     1      -1.317  12.386  19.327  0.00  0.00    +0.000 F 
ATOM     26  C   UNL     1      -1.430  12.282  21.679  0.00  0.00    +0.000 A 
ATOM     27  C   UNL     1      -1.171  11.586  22.858  0.00  0.00    +0.000 A 
ATOM     28  C   UNL     1      -0.559  10.334  22.796  0.00  0.00    +0.000 A 
ATOM     29  F   UNL     1      -0.306   9.687  23.943  0.00  0.00    +0.000 F 
ENDBRANCH  21  22
ENDBRANCH  19  21
ENDBRANCH   5  19
TORSDOF 6
ENDMDL
MODEL 3
REMARK VINA RESULT:      -7.8      6.999     10.231
REMARK  Name = 
REMARK  6 active torsions:
REMARK  status: ('A' for Active; 'I' for Inactive)
REMARK    1  A    between atoms: S_2  and  N_4
REMARK    2  A    between atoms: S_2  and  C_10
REMARK    3  A    between atoms: N_4  and  C_5
REMARK    4  A    between atoms: C_14  and  N_15
REMARK    5  A    between atoms: N_15  and  C_16
REMARK    6  A    between atoms: C_16  and  C_17
REMARK                            x       y       z     vdW  Elec       q    Type
REMARK                         _______ _______ _______ _____ _____    ______ ____
ROOT
ATOM      1  C   UNL     1       5.893   5.271  17.448  0.00  0.00    +0.000 A 
ATOM      2  C   UNL     1       6.709   5.053  18.559  0.00  0.00    +0.000 A 
ATOM      3  C   UNL     1       7.620   6.038  18.940  0.00  0.00    +0.000 A 
ATOM      4 CL   UNL     1       8.604   5.731  20.332  0.00  0.00    +0.000 Cl
ATOM      5  C   UNL     1       7.758   7.246  18.217  0.00  0.00    +0.000 A 
ATOM      6  C   UNL     1       6.931   7.426  17.099  0.00  0.00    +0.000 A 
ATOM      7  C   UNL     1       6.012   6.442  16.716  0.00  0.00    +0.000 A 
ATOM      8  F   UNL     1       5.234   6.673  15.651  0.00  0.00    +0.000 F 
ENDROOT
BRANCH   1  10
ATOM      9  O   UNL     1       5.264   3.391  15.786  0.00  0.00    +0.000 OA
ATOM     10  S   UNL     1       4.732   4.038  16.966  0.00  0.00    +0.000 S 
ATOM     11  O   UNL     1       3.425   4.660  16.948  0.00  0.00    +0.000 OA
BRANCH  10  12
ATOM     12  N   UNL     1       4.753   2.955  18.277  0.00  0.00    +0.000 N 
ATOM     13  H   UNL     1       5.510   3.288  18.878  0.00  0.00    +0.000 HD
BRANCH  12  14
ATOM     14  C   UNL     1       3.567   2.805  18.995  0.00  0.00    +0.000 A 
ATOM     15  C   UNL     1       3.248   3.452  20.171  0.00  0.00    +0.000 A 
ATOM     16  S   UNL     1       1.699   2.951  20.711  0.00  0.00    +0.000 S 
ATOM     17  C   UNL     1       1.575   1.945  19.328  0.00  0.00    +0.000 A 
ATOM     18  N   UNL     1       2.578   2.002  18.478  0.00  0.00    +0.000 NA
ENDBRANCH  12  14
ENDBRANCH  10  12
ENDBRANCH   1  10
BRANCH   5  19
ATOM     19  N   UNL     1       8.590   8.255  18.708  0.00  0.00    +0.000 N 
ATOM     20  H   UNL     1       9.547   7.931  18.859  0.00  0.00    +0.000 HD
BRANCH  19  21
ATOM     21  C   UNL     1       8.536   9.635  18.238  0.00  0.00    +0.000 C 
BRANCH  21  22
ATOM     22  C   UNL     1       9.400  10.534  19.085  0.00  0.00    +0.000 A 
ATOM     23  C   UNL     1       9.100  10.819  20.428  0.00  0.00    +0.000 A 
ATOM     24  C   UNL     1       9.904  11.692  21.156  0.00  0.00    +0.000 A 
ATOM     25  F   UNL     1       9.605  11.949  22.436  0.00  0.00    +0.000 F 
ATOM     26  C   UNL     1      11.009  12.305  20.576  0.00  0.00    +0.000 A 
ATOM     27  C   UNL     1      11.315  12.043  19.242  0.00  0.00    +0.000 A 
ATOM     28  C   UNL     1      10.508  11.170  18.512  0.00  0.00    +0.000 A 
ATOM     29  F   UNL     1      10.813  10.942  17.226  0.00  0.00    +0.000 F 
ENDBRANCH  21  22
ENDBRANCH  19  21
ENDBRANCH   5  19
TORSDOF 6
ENDMDL
MODEL 4
REMARK VINA RESULT:      -7.7      4.578      8.033
REMARK  Name = 
REMARK  6 active torsions:
REMARK  status: ('A' for Active; 'I' for Inactive)
REMARK    1  A    between atoms: S_2  and  N_4
REMARK    2  A    between atoms: S_2  and  C_10
REMARK    3  A    between atoms: N_4  and  C_5
REMARK    4  A    between atoms: C_14  and  N_15
REMARK    5  A    between atoms: N_15  and  C_16
REMARK    6  A    between atoms: C_16  and  C_17
REMARK                            x       y       z     vdW  Elec       q    Type
REMARK                         _______ _______ _______ _____ _____    ______ ____
ROOT
ATOM      1  C   UNL     1       2.368   4.547  18.834  0.00  0.00    +0.000 A 
ATOM      2  C   UNL     1       2.428   5.726  18.091  0.00  0.00    +0.000 A 
ATOM      3  C   UNL     1       2.226   6.948  18.733  0.00  0.00    +0.000 A 
ATOM      4 CL   UNL     1       2.322   8.388  17.775  0.00  0.00    +0.000 Cl
ATOM      5  C   UNL     1       1.935   7.026  20.114  0.00  0.00    +0.000 A 
ATOM      6  C   UNL     1       1.870   5.819  20.828  0.00  0.00    +0.000 A 
ATOM      7  C   UNL     1       2.078   4.592  20.188  0.00  0.00    +0.000 A 
ATOM      8  F   UNL     1       2.022   3.472  20.921  0.00  0.00    +0.000 F 
ENDROOT
BRANCH   1  10
ATOM      9  O   UNL     1       2.424   3.212  16.618  0.00  0.00    +0.000 OA
ATOM     10  S   UNL     1       2.635   3.001  18.035  0.00  0.00    +0.000 S 
ATOM     11  O   UNL     1       1.875   2.005  18.759  0.00  0.00    +0.000 OA
BRANCH  10  12
ATOM     12  N   UNL     1       4.279   2.691  18.333  0.00  0.00    +0.000 N 
ATOM     13  H   UNL     1       4.514   1.911  17.714  0.00  0.00    +0.000 HD
BRANCH  12  14
ATOM     14  C   UNL     1       5.166   3.753  18.165  0.00  0.00    +0.000 A 
ATOM     15  C   UNL     1       5.568   4.286  16.958  0.00  0.00    +0.000 A 
ATOM     16  S   UNL     1       6.679   5.566  17.226  0.00  0.00    +0.000 S 
ATOM     17  C   UNL     1       6.509   5.320  18.914  0.00  0.00    +0.000 A 
ATOM     18  N   UNL     1       5.648   4.395  19.281  0.00  0.00    +0.000 NA
ENDBRANCH  12  14
ENDBRANCH  10  12
ENDBRANCH   1  10
BRANCH   5  19
ATOM     19  N   UNL     1       1.866   8.274  20.739  0.00  0.00    +0.000 N 
ATOM     20  H   UNL     1       1.962   9.045  20.076  0.00  0.00    +0.000 HD
BRANCH  19  21
ATOM     21  C   UNL     1       0.933   8.577  21.818  0.00  0.00    +0.000 C 
BRANCH  21  22
ATOM     22  C   UNL     1       0.069   9.764  21.473  0.00  0.00    +0.000 A 
ATOM     23  C   UNL     1      -0.052  10.251  20.160  0.00  0.00    +0.000 A 
ATOM     24  C   UNL     1      -0.827  11.377  19.900  0.00  0.00    +0.000 A 
ATOM     25  F   UNL     1      -0.935  11.825  18.642  0.00  0.00    +0.000 F 
ATOM     26  C   UNL     1      -1.487  12.049  20.923  0.00  0.00    +0.000 A 
ATOM     27  C   UNL     1      -1.369  11.587  22.233  0.00  0.00    +0.000 A 
ATOM     28  C   UNL     1      -0.591  10.460  22.494  0.00  0.00    +0.000 A 
ATOM     29  F   UNL     1      -0.479  10.039  23.763  0.00  0.00    +0.000 F 
ENDBRANCH  21  22
ENDBRANCH  19  21
ENDBRANCH   5  19
TORSDOF 6
ENDMDL
MODEL 5
REMARK VINA RESULT:      -7.7      1.817      2.847
REMARK  Name = 
REMARK  6 active torsions:
REMARK  status: ('A' for Active; 'I' for Inactive)
REMARK    1  A    between atoms: S_2  and  N_4
REMARK    2  A    between atoms: S_2  and  C_10
REMARK    3  A    between atoms: N_4  and  C_5
REMARK    4  A    between atoms: C_14  and  N_15
REMARK    5  A    between atoms: N_15  and  C_16
REMARK    6  A    between atoms: C_16  and  C_17
REMARK                            x       y       z     vdW  Elec       q    Type
REMARK                         _______ _______ _______ _____ _____    ______ ____
ROOT
ATOM      1  C   UNL     1       0.518  10.354  20.080  0.00  0.00    +0.000 A 
ATOM      2  C   UNL     1       1.187   9.821  18.978  0.00  0.00    +0.000 A 
ATOM      3  C   UNL     1       1.836   8.591  19.104  0.00  0.00    +0.000 A 
ATOM      4 CL   UNL     1       2.644   7.959  17.709  0.00  0.00    +0.000 Cl
ATOM      5  C   UNL     1       1.855   7.880  20.326  0.00  0.00    +0.000 A 
ATOM      6  C   UNL     1       1.181   8.453  21.416  0.00  0.00    +0.000 A 
ATOM      7  C   UNL     1       0.525   9.683  21.292  0.00  0.00    +0.000 A 
ATOM      8  F   UNL     1      -0.117  10.175  22.359  0.00  0.00    +0.000 F 
ENDROOT
BRANCH   1  10
ATOM      9  O   UNL     1       0.661  12.935  20.195  0.00  0.00    +0.000 OA
ATOM     10  S   UNL     1      -0.314  11.899  19.927  0.00  0.00    +0.000 S 
ATOM     11  O   UNL     1      -1.534  11.810  20.699  0.00  0.00    +0.000 OA
BRANCH  10  12
ATOM     12  N   UNL     1      -0.760  11.937  18.287  0.00  0.00    +0.000 N 
ATOM     13  H   UNL     1       0.021  11.497  17.794  0.00  0.00    +0.000 HD
BRANCH  12  14
ATOM     14  C   UNL     1      -1.973  11.339  17.945  0.00  0.00    +0.000 A 
ATOM     15  C   UNL     1      -3.217  11.929  18.036  0.00  0.00    +0.000 A 
ATOM     16  S   UNL     1      -4.425  10.822  17.528  0.00  0.00    +0.000 S 
ATOM     17  C   UNL     1      -3.195   9.671  17.208  0.00  0.00    +0.000 A 
ATOM     18  N   UNL     1      -1.958  10.077  17.401  0.00  0.00    +0.000 NA
ENDBRANCH  12  14
ENDBRANCH  10  12
ENDBRANCH   1  10
BRANCH   5  19
ATOM     19  N   UNL     1       2.405   6.596  20.372  0.00  0.00    +0.000 N 
ATOM     20  H   UNL     1       3.317   6.581  20.832  0.00  0.00    +0.000 HD
BRANCH  19  21
ATOM     21  C   UNL     1       1.620   5.399  20.650  0.00  0.00    +0.000 C 
BRANCH  21  22
ATOM     22  C   UNL     1       1.947   4.295  19.677  0.00  0.00    +0.000 A 
ATOM     23  C   UNL     1       2.637   4.530  18.475  0.00  0.00    +0.000 A 
ATOM     24  C   UNL     1       2.875   3.484  17.588  0.00  0.00    +0.000 A 
ATOM     25  F   UNL     1       3.538   3.726  16.450  0.00  0.00    +0.000 F 
ATOM     26  C   UNL     1       2.434   2.194  17.861  0.00  0.00    +0.000 A 
ATOM     27  C   UNL     1       1.738   1.945  19.043  0.00  0.00    +0.000 A 
ATOM     28  C   UNL     1       1.497   2.993  19.931  0.00  0.00    +0.000 A 
ATOM     29  F   UNL     1       0.814   2.735  21.056  0.00  0.00    +0.000 F 
ENDBRANCH  21  22
ENDBRANCH  19  21
ENDBRANCH   5  19
TORSDOF 6
ENDMDL
MODEL 6
REMARK VINA RESULT:      -7.6      2.642      3.270
REMARK  Name = 
REMARK  6 active torsions:
REMARK  status: ('A' for Active; 'I' for Inactive)
REMARK    1  A    between atoms: S_2  and  N_4
REMARK    2  A    between atoms: S_2  and  C_10
REMARK    3  A    between atoms: N_4  and  C_5
REMARK    4  A    between atoms: C_14  and  N_15
REMARK    5  A    between atoms: N_15  and  C_16
REMARK    6  A    between atoms: C_16  and  C_17
REMARK                            x       y       z     vdW  Elec       q    Type
REMARK                         _______ _______ _______ _____ _____    ______ ____
ROOT
ATOM      1  C   UNL     1       0.340  10.655  20.793  0.00  0.00    +0.000 A 
ATOM      2  C   UNL     1       0.810  10.290  19.532  0.00  0.00    +0.000 A 
ATOM      3  C   UNL     1       1.443   9.056  19.371  0.00  0.00    +0.000 A 
ATOM      4 CL   UNL     1       2.000   8.637  17.785  0.00  0.00    +0.000 Cl
ATOM      5  C   UNL     1       1.643   8.173  20.457  0.00  0.00    +0.000 A 
ATOM      6  C   UNL     1       1.168   8.579  21.713  0.00  0.00    +0.000 A 
ATOM      7  C   UNL     1       0.528   9.813  21.878  0.00  0.00    +0.000 A 
ATOM      8  F   UNL     1       0.079  10.142  23.096  0.00  0.00    +0.000 F 
ENDROOT
BRANCH   1  10
ATOM      9  O   UNL     1      -0.382  12.905  19.741  0.00  0.00    +0.000 OA
ATOM     10  S   UNL     1      -0.470  12.204  21.004  0.00  0.00    +0.000 S 
ATOM     11  O   UNL     1       0.043  12.797  22.221  0.00  0.00    +0.000 OA
BRANCH  10  12
ATOM     12  N   UNL     1      -2.083  11.759  21.306  0.00  0.00    +0.000 N 
ATOM     13  H   UNL     1      -2.034  10.775  21.583  0.00  0.00    +0.000 HD
BRANCH  12  14
ATOM     14  C   UNL     1      -2.784  12.513  22.245  0.00  0.00    +0.000 A 
ATOM     15  C   UNL     1      -3.240  13.803  22.067  0.00  0.00    +0.000 A 
ATOM     16  S   UNL     1      -4.033  14.344  23.489  0.00  0.00    +0.000 S 
ATOM     17  C   UNL     1      -3.728  12.816  24.204  0.00  0.00    +0.000 A 
ATOM     18  N   UNL     1      -3.130  11.927  23.440  0.00  0.00    +0.000 NA
ENDBRANCH  12  14
ENDBRANCH  10  12
ENDBRANCH   1  10
BRANCH   5  19
ATOM     19  N   UNL     1       2.165   6.897  20.225  0.00  0.00    +0.000 N 
ATOM     20  H   UNL     1       3.180   6.868  20.333  0.00  0.00    +0.000 HD
BRANCH  19  21
ATOM     21  C   UNL     1       1.518   5.674  20.686  0.00  0.00    +0.000 C 
BRANCH  21  22
ATOM     22  C   UNL     1       1.833   4.515  19.775  0.00  0.00    +0.000 A 
ATOM     23  C   UNL     1       2.462   4.686  18.529  0.00  0.00    +0.000 A 
ATOM     24  C   UNL     1       2.691   3.589  17.704  0.00  0.00    +0.000 A 
ATOM     25  F   UNL     1       3.296   3.769  16.522  0.00  0.00    +0.000 F 
ATOM     26  C   UNL     1       2.298   2.309  18.082  0.00  0.00    +0.000 A 
ATOM     27  C   UNL     1       1.663   2.123  19.308  0.00  0.00    +0.000 A 
ATOM     28  C   UNL     1       1.431   3.222  20.134  0.00  0.00    +0.000 A 
ATOM     29  F   UNL     1       0.806   3.024  21.304  0.00  0.00    +0.000 F 
ENDBRANCH  21  22
ENDBRANCH  19  21
ENDBRANCH   5  19
TORSDOF 6
ENDMDL
MODEL 7
REMARK VINA RESULT:      -7.6      1.252      1.458
REMARK  Name = 
REMARK  6 active torsions:
REMARK  status: ('A' for Active; 'I' for Inactive)
REMARK    1  A    between atoms: S_2  and  N_4
REMARK    2  A    between atoms: S_2  and  C_10
REMARK    3  A    between atoms: N_4  and  C_5
REMARK    4  A    between atoms: C_14  and  N_15
REMARK    5  A    between atoms: N_15  and  C_16
REMARK    6  A    between atoms: C_16  and  C_17
REMARK                            x       y       z     vdW  Elec       q    Type
REMARK                         _______ _______ _______ _____ _____    ______ ____
ROOT
ATOM      1  C   UNL     1       0.455  10.081  19.917  0.00  0.00    +0.000 A 
ATOM      2  C   UNL     1       1.266   9.639  18.871  0.00  0.00    +0.000 A 
ATOM      3  C   UNL     1       1.948   8.429  19.001  0.00  0.00    +0.000 A 
ATOM      4 CL   UNL     1       2.934   7.913  17.674  0.00  0.00    +0.000 Cl
ATOM      5  C   UNL     1       1.860   7.646  20.175  0.00  0.00    +0.000 A 
ATOM      6  C   UNL     1       1.045   8.127  21.211  0.00  0.00    +0.000 A 
ATOM      7  C   UNL     1       0.355   9.338  21.083  0.00  0.00    +0.000 A 
ATOM      8  F   UNL     1      -0.423   9.741  22.095  0.00  0.00    +0.000 F 
ENDROOT
BRANCH   1  10
ATOM      9  O   UNL     1      -0.089  12.405  20.915  0.00  0.00    +0.000 OA
ATOM     10  S   UNL     1      -0.420  11.601  19.757  0.00  0.00    +0.000 S 
ATOM     11  O   UNL     1      -1.795  11.277  19.445  0.00  0.00    +0.000 OA
BRANCH  10  12
ATOM     12  N   UNL     1       0.260  12.293  18.361  0.00  0.00    +0.000 N 
ATOM     13  H   UNL     1      -0.520  12.373  17.704  0.00  0.00    +0.000 HD
BRANCH  12  14
ATOM     14  C   UNL     1       0.920  13.511  18.514  0.00  0.00    +0.000 A 
ATOM     15  C   UNL     1       2.288  13.695  18.507  0.00  0.00    +0.000 A 
ATOM     16  S   UNL     1       2.655  15.353  18.747  0.00  0.00    +0.000 S 
ATOM     17  C   UNL     1       0.974  15.685  18.811  0.00  0.00    +0.000 A 
ATOM     18  N   UNL     1       0.173  14.661  18.612  0.00  0.00    +0.000 NA
ENDBRANCH  12  14
ENDBRANCH  10  12
ENDBRANCH   1  10
BRANCH   5  19
ATOM     19  N   UNL     1       2.457   6.382  20.211  0.00  0.00    +0.000 N 
ATOM     20  H   UNL     1       3.317   6.375  20.761  0.00  0.00    +0.000 HD
BRANCH  19  21
ATOM     21  C   UNL     1       1.698   5.144  20.345  0.00  0.00    +0.000 C 
BRANCH  21  22
ATOM     22  C   UNL     1       2.334   4.027  19.557  0.00  0.00    +0.000 A 
ATOM     23  C   UNL     1       3.285   3.157  20.118  0.00  0.00    +0.000 A 
ATOM     24  C   UNL     1       3.878   2.170  19.336  0.00  0.00    +0.000 A 
ATOM     25  F   UNL     1       4.779   1.347  19.888  0.00  0.00    +0.000 F 
ATOM     26  C   UNL     1       3.554   2.026  17.992  0.00  0.00    +0.000 A 
ATOM     27  C   UNL     1       2.621   2.887  17.416  0.00  0.00    +0.000 A 
ATOM     28  C   UNL     1       2.029   3.878  18.199  0.00  0.00    +0.000 A 
ATOM     29  F   UNL     1       1.144   4.705  17.623  0.00  0.00    +0.000 F 
ENDBRANCH  21  22
ENDBRANCH  19  21
ENDBRANCH   5  19
TORSDOF 6
ENDMDL
MODEL 8
REMARK VINA RESULT:      -7.6      7.150     10.109
REMARK  Name = 
REMARK  6 active torsions:
REMARK  status: ('A' for Active; 'I' for Inactive)
REMARK    1  A    between atoms: S_2  and  N_4
REMARK    2  A    between atoms: S_2  and  C_10
REMARK    3  A    between atoms: N_4  and  C_5
REMARK    4  A    between atoms: C_14  and  N_15
REMARK    5  A    between atoms: N_15  and  C_16
REMARK    6  A    between atoms: C_16  and  C_17
REMARK                            x       y       z     vdW  Elec       q    Type
REMARK                         _______ _______ _______ _____ _____    ______ ____
ROOT
ATOM      1  C   UNL     1       5.976   5.230  17.385  0.00  0.00    +0.000 A 
ATOM      2  C   UNL     1       6.781   5.054  18.510  0.00  0.00    +0.000 A 
ATOM      3  C   UNL     1       7.661   6.071  18.885  0.00  0.00    +0.000 A 
ATOM      4 CL   UNL     1       8.633   5.816  20.296  0.00  0.00    +0.000 Cl
ATOM      5  C   UNL     1       7.778   7.268  18.141  0.00  0.00    +0.000 A 
ATOM      6  C   UNL     1       6.961   7.405  17.008  0.00  0.00    +0.000 A 
ATOM      7  C   UNL     1       6.074   6.390  16.632  0.00  0.00    +0.000 A 
ATOM      8  F   UNL     1       5.305   6.580  15.552  0.00  0.00    +0.000 F 
ENDROOT
BRANCH   1  10
ATOM      9  O   UNL     1       5.457   3.252  15.800  0.00  0.00    +0.000 OA
ATOM     10  S   UNL     1       4.854   3.958  16.911  0.00  0.00    +0.000 S 
ATOM     11  O   UNL     1       3.545   4.561  16.786  0.00  0.00    +0.000 OA
BRANCH  10  12
ATOM     12  N   UNL     1       4.813   2.951  18.280  0.00  0.00    +0.000 N 
ATOM     13  H   UNL     1       5.648   3.203  18.814  0.00  0.00    +0.000 HD
BRANCH  12  14
ATOM     14  C   UNL     1       3.668   3.007  19.075  0.00  0.00    +0.000 A 
ATOM     15  C   UNL     1       3.367   3.998  19.987  0.00  0.00    +0.000 A 
ATOM     16  S   UNL     1       1.870   3.652  20.750  0.00  0.00    +0.000 S 
ATOM     17  C   UNL     1       1.740   2.238  19.789  0.00  0.00    +0.000 A 
ATOM     18  N   UNL     1       2.701   2.044  18.911  0.00  0.00    +0.000 NA
ENDBRANCH  12  14
ENDBRANCH  10  12
ENDBRANCH   1  10
BRANCH   5  19
ATOM     19  N   UNL     1       8.576   8.308  18.624  0.00  0.00    +0.000 N 
ATOM     20  H   UNL     1       9.572   8.096  18.558  0.00  0.00    +0.000 HD
BRANCH  19  21
ATOM     21  C   UNL     1       8.287   9.717  18.379  0.00  0.00    +0.000 C 
BRANCH  21  22
ATOM     22  C   UNL     1       9.455  10.588  18.767  0.00  0.00    +0.000 A 
ATOM     23  C   UNL     1      10.372  11.081  17.823  0.00  0.00    +0.000 A 
ATOM     24  C   UNL     1      11.460  11.845  18.237  0.00  0.00    +0.000 A 
ATOM     25  F   UNL     1      12.322  12.311  17.323  0.00  0.00    +0.000 F 
ATOM     26  C   UNL     1      11.670  12.128  19.581  0.00  0.00    +0.000 A 
ATOM     27  C   UNL     1      10.777  11.637  20.532  0.00  0.00    +0.000 A 
ATOM     28  C   UNL     1       9.689  10.871  20.118  0.00  0.00    +0.000 A 
ATOM     29  F   UNL     1       8.848  10.396  21.050  0.00  0.00    +0.000 F 
ENDBRANCH  21  22
ENDBRANCH  19  21
ENDBRANCH   5  19
TORSDOF 6
ENDMDL
MODEL 9
REMARK VINA RESULT:      -7.5      3.484      4.636
REMARK  Name = 
REMARK  6 active torsions:
REMARK  status: ('A' for Active; 'I' for Inactive)
REMARK    1  A    between atoms: S_2  and  N_4
REMARK    2  A    between atoms: S_2  and  C_10
REMARK    3  A    between atoms: N_4  and  C_5
REMARK    4  A    between atoms: C_14  and  N_15
REMARK    5  A    between atoms: N_15  and  C_16
REMARK    6  A    between atoms: C_16  and  C_17
REMARK                            x       y       z     vdW  Elec       q    Type
REMARK                         _______ _______ _______ _____ _____    ______ ____
ROOT
ATOM      1  C   UNL     1       1.503   9.001  19.517  0.00  0.00    +0.000 A 
ATOM      2  C   UNL     1       1.533   7.877  20.344  0.00  0.00    +0.000 A 
ATOM      3  C   UNL     1       2.090   6.692  19.863  0.00  0.00    +0.000 A 
ATOM      4 CL   UNL     1       2.119   5.325  20.928  0.00  0.00    +0.000 Cl
ATOM      5  C   UNL     1       2.605   6.588  18.551  0.00  0.00    +0.000 A 
ATOM      6  C   UNL     1       2.547   7.734  17.743  0.00  0.00    +0.000 A 
ATOM      7  C   UNL     1       1.993   8.926  18.223  0.00  0.00    +0.000 A 
ATOM      8  F   UNL     1       1.979   9.995  17.415  0.00  0.00    +0.000 F 
ENDROOT
BRANCH   1  10
ATOM      9  O   UNL     1       1.138  11.536  19.156  0.00  0.00    +0.000 OA
ATOM     10  S   UNL     1       0.812  10.505  20.118  0.00  0.00    +0.000 S 
ATOM     11  O   UNL     1       1.201  10.633  21.506  0.00  0.00    +0.000 OA
BRANCH  10  12
ATOM     12  N   UNL     1      -0.860  10.199  20.093  0.00  0.00    +0.000 N 
ATOM     13  H   UNL     1      -1.231  10.712  20.896  0.00  0.00    +0.000 HD
BRANCH  12  14
ATOM     14  C   UNL     1      -1.547  10.526  18.924  0.00  0.00    +0.000 A 
ATOM     15  C   UNL     1      -1.488   9.834  17.732  0.00  0.00    +0.000 A 
ATOM     16  S   UNL     1      -2.478  10.603  16.561  0.00  0.00    +0.000 S 
ATOM     17  C   UNL     1      -2.918  11.767  17.741  0.00  0.00    +0.000 A 
ATOM     18  N   UNL     1      -2.423  11.586  18.947  0.00  0.00    +0.000 NA
ENDBRANCH  12  14
ENDBRANCH  10  12
ENDBRANCH   1  10
BRANCH   5  19
ATOM     19  N   UNL     1       3.268   5.422  18.157  0.00  0.00    +0.000 N 
ATOM     20  H   UNL     1       2.636   4.625  18.075  0.00  0.00    +0.000 HD
BRANCH  19  21
ATOM     21  C   UNL     1       4.323   5.404  17.149  0.00  0.00    +0.000 C 
BRANCH  21  22
ATOM     22  C   UNL     1       5.628   5.901  17.718  0.00  0.00    +0.000 A 
ATOM     23  C   UNL     1       6.303   7.015  17.191  0.00  0.00    +0.000 A 
ATOM     24  C   UNL     1       7.528   7.408  17.722  0.00  0.00    +0.000 A 
ATOM     25  F   UNL     1       8.155   8.475  17.210  0.00  0.00    +0.000 F 
ATOM     26  C   UNL     1       8.115   6.709  18.771  0.00  0.00    +0.000 A 
ATOM     27  C   UNL     1       7.465   5.594  19.298  0.00  0.00    +0.000 A 
ATOM     28  C   UNL     1       6.238   5.199  18.765  0.00  0.00    +0.000 A 
ATOM     29  F   UNL     1       5.636   4.116  19.278  0.00  0.00    +0.000 F 
ENDBRANCH  21  22
ENDBRANCH  19  21
ENDBRANCH   5  19
TORSDOF 6
ENDMDL
