MODEL 1
REMARK VINA RESULT:      -8.0      0.000      0.000
REMARK  Name = 
REMARK  6 active torsions:
REMARK  status: ('A' for Active; 'I' for Inactive)
REMARK    1  A    between atoms: C_2  and  C_3
REMARK    2  A    between atoms: C_3  and  N_4
REMARK    3  A    between atoms: C_5  and  S_6
REMARK    4  A    between atoms: S_6  and  C_7
REMARK    5  A    between atoms: N_15  and  C_16
REMARK    6  A    between atoms: C_27  and  C_28
REMARK                            x       y       z     vdW  Elec       q    Type
REMARK                         _______ _______ _______ _____ _____    ______ ____
ROOT
ATOM      1  C   UNL     1       2.343   7.284  19.376  0.00  0.00    +0.000 A 
ATOM      2  C   UNL     1       2.625   7.588  18.056  0.00  0.00    +0.000 A 
ATOM      3  C   UNL     1       2.153   8.805  17.605  0.00  0.00    +0.000 A 
ATOM      4  N   UNL     1       1.444   9.654  18.365  0.00  0.00    +0.000 NA
ATOM      5  C   UNL     1       1.196   9.290  19.629  0.00  0.00    +0.000 A 
ATOM      6  N   UNL     1       0.415  10.106  20.406  0.00  0.00    +0.000 N 
ATOM      7  C   UNL     1       0.005  11.441  19.953  0.00  0.00    +0.000 C 
ATOM      8  C   UNL     1      -1.387  11.790  20.548  0.00  0.00    +0.000 C 
ATOM      9  N   UNL     1      -1.400  11.579  22.013  0.00  0.00    +0.000 N 
ATOM     10  C   UNL     1      -0.929  10.246  22.443  0.00  0.00    +0.000 C 
ATOM     11  C   UNL     1       0.463   9.943  21.859  0.00  0.00    +0.000 C 
ATOM     12  N   UNL     1       1.620   8.121  20.146  0.00  0.00    +0.000 NA
ENDROOT
BRANCH   9  13
ATOM     13  C   UNL     1      -1.803  12.549  22.906  0.00  0.00    +0.000 A 
ATOM     14  C   UNL     1      -3.051  12.508  23.535  0.00  0.00    +0.000 A 
ATOM     15  C   UNL     1      -3.413  13.513  24.424  0.00  0.00    +0.000 A 
ATOM     16  N   UNL     1      -2.632  14.565  24.731  0.00  0.00    +0.000 NA
ATOM     17  C   UNL     1      -1.432  14.602  24.121  0.00  0.00    +0.000 A 
ATOM     18  C   UNL     1      -0.987  13.638  23.229  0.00  0.00    +0.000 A 
ENDBRANCH   9  13
BRANCH   1  19
ATOM     19  S   UNL     1       2.720   5.659  20.087  0.00  0.00    +0.000 S 
BRANCH  19  21
ATOM     20  N   UNL     1       4.348   4.583  18.086  0.00  0.00    +0.000 N 
ATOM     21  C   UNL     1       4.215   5.225  19.304  0.00  0.00    +0.000 A 
ATOM     22  N   UNL     1       5.406   5.601  19.721  0.00  0.00    +0.000 NA
ATOM     23  N   UNL     1       6.335   5.223  18.783  0.00  0.00    +0.000 NA
ATOM     24  C   UNL     1       5.705   4.613  17.798  0.00  0.00    +0.000 A 
BRANCH  24  25
ATOM     25  C   UNL     1       6.377   4.088  16.609  0.00  0.00    +0.000 C 
ATOM     26  N   UNL     1       7.730   4.277  16.582  0.00  0.00    +0.000 N 
ATOM     27  O   UNL     1       5.828   3.539  15.669  0.00  0.00    +0.000 OA
ATOM     28  H   UNL     1       8.206   4.744  17.342  0.00  0.00    +0.000 HD
ATOM     29  H   UNL     1       8.244   3.947  15.788  0.00  0.00    +0.000 HD
ENDBRANCH  24  25
BRANCH  20  30
ATOM     30  C   UNL     1       3.356   4.032  17.172  0.00  0.00    +0.000 C 
BRANCH  30  32
ATOM     31  C   UNL     1       3.373   1.768  18.365  0.00  0.00    +0.000 C 
ATOM     32  C   UNL     1       2.846   2.651  17.507  0.00  0.00    +0.000 C 
ENDBRANCH  30  32
ENDBRANCH  20  30
ENDBRANCH  19  21
ENDBRANCH   1  19
TORSDOF 6
ENDMDL
MODEL 2
REMARK VINA RESULT:      -7.7      0.605      1.043
REMARK  Name = 
REMARK  6 active torsions:
REMARK  status: ('A' for Active; 'I' for Inactive)
REMARK    1  A    between atoms: C_2  and  C_3
REMARK    2  A    between atoms: C_3  and  N_4
REMARK    3  A    between atoms: C_5  and  S_6
REMARK    4  A    between atoms: S_6  and  C_7
REMARK    5  A    between atoms: N_15  and  C_16
REMARK    6  A    between atoms: C_27  and  C_28
REMARK                            x       y       z     vdW  Elec       q    Type
REMARK                         _______ _______ _______ _____ _____    ______ ____
ROOT
ATOM      1  C   UNL     1       2.506   7.166  19.325  0.00  0.00    +0.000 A 
ATOM      2  C   UNL     1       2.785   7.458  18.001  0.00  0.00    +0.000 A 
ATOM      3  C   UNL     1       2.295   8.661  17.533  0.00  0.00    +0.000 A 
ATOM      4  N   UNL     1       1.572   9.508  18.281  0.00  0.00    +0.000 NA
ATOM      5  C   UNL     1       1.329   9.158  19.549  0.00  0.00    +0.000 A 
ATOM      6  N   UNL     1       0.534   9.973  20.315  0.00  0.00    +0.000 N 
ATOM      7  C   UNL     1       0.105  11.295  19.844  0.00  0.00    +0.000 C 
ATOM      8  C   UNL     1      -1.294  11.631  20.432  0.00  0.00    +0.000 C 
ATOM      9  N   UNL     1      -1.305  11.438  21.900  0.00  0.00    +0.000 N 
ATOM     10  C   UNL     1      -0.815  10.119  22.348  0.00  0.00    +0.000 C 
ATOM     11  C   UNL     1       0.583   9.829  21.770  0.00  0.00    +0.000 C 
ATOM     12  N   UNL     1       1.769   8.002  20.083  0.00  0.00    +0.000 NA
ENDROOT
BRANCH   9  13
ATOM     13  C   UNL     1      -1.724  12.414  22.780  0.00  0.00    +0.000 A 
ATOM     14  C   UNL     1      -0.914  13.500  23.125  0.00  0.00    +0.000 A 
ATOM     15  C   UNL     1      -1.380  14.456  24.021  0.00  0.00    +0.000 A 
ATOM     16  N   UNL     1      -2.590  14.411  24.608  0.00  0.00    +0.000 NA
ATOM     17  C   UNL     1      -3.365  13.362  24.275  0.00  0.00    +0.000 A 
ATOM     18  C   UNL     1      -2.984  12.370  23.383  0.00  0.00    +0.000 A 
ENDBRANCH   9  13
BRANCH   1  19
ATOM     19  S   UNL     1       2.907   5.557  20.057  0.00  0.00    +0.000 S 
BRANCH  19  21
ATOM     20  N   UNL     1       4.573   4.584  18.035  0.00  0.00    +0.000 N 
ATOM     21  C   UNL     1       4.415   5.141  19.291  0.00  0.00    +0.000 A 
ATOM     22  N   UNL     1       5.601   5.456  19.770  0.00  0.00    +0.000 NA
ATOM     23  N   UNL     1       6.550   5.122  18.835  0.00  0.00    +0.000 NA
ATOM     24  C   UNL     1       5.938   4.599  17.791  0.00  0.00    +0.000 A 
BRANCH  24  25
ATOM     25  C   UNL     1       6.636   4.142  16.589  0.00  0.00    +0.000 C 
ATOM     26  N   UNL     1       6.005   3.145  15.901  0.00  0.00    +0.000 N 
ATOM     27  O   UNL     1       7.711   4.559  16.193  0.00  0.00    +0.000 OA
ATOM     28  H   UNL     1       5.121   2.771  16.219  0.00  0.00    +0.000 HD
ATOM     29  H   UNL     1       6.440   2.784  15.073  0.00  0.00    +0.000 HD
ENDBRANCH  24  25
BRANCH  20  30
ATOM     30  C   UNL     1       3.598   4.123  17.054  0.00  0.00    +0.000 C 
BRANCH  30  32
ATOM     31  C   UNL     1       3.133   2.006  18.415  0.00  0.00    +0.000 C 
ATOM     32  C   UNL     1       2.929   2.805  17.358  0.00  0.00    +0.000 C 
ENDBRANCH  30  32
ENDBRANCH  20  30
ENDBRANCH  19  21
ENDBRANCH   1  19
TORSDOF 6
ENDMDL
MODEL 3
REMARK VINA RESULT:      -7.5      4.148     10.350
REMARK  Name = 
REMARK  6 active torsions:
REMARK  status: ('A' for Active; 'I' for Inactive)
REMARK    1  A    between atoms: C_2  and  C_3
REMARK    2  A    between atoms: C_3  and  N_4
REMARK    3  A    between atoms: C_5  and  S_6
REMARK    4  A    between atoms: S_6  and  C_7
REMARK    5  A    between atoms: N_15  and  C_16
REMARK    6  A    between atoms: C_27  and  C_28
REMARK                            x       y       z     vdW  Elec       q    Type
REMARK                         _______ _______ _______ _____ _____    ______ ____
ROOT
ATOM      1  C   UNL     1      -0.751  11.445  20.910  0.00  0.00    +0.000 A 
ATOM      2  C   UNL     1      -1.054  11.190  22.236  0.00  0.00    +0.000 A 
ATOM      3  C   UNL     1      -0.488  10.052  22.776  0.00  0.00    +0.000 A 
ATOM      4  N   UNL     1       0.295   9.212  22.081  0.00  0.00    +0.000 NA
ATOM      5  C   UNL     1       0.537   9.512  20.799  0.00  0.00    +0.000 A 
ATOM      6  N   UNL     1       1.276   8.635  20.047  0.00  0.00    +0.000 N 
ATOM      7  C   UNL     1       1.957   7.485  20.653  0.00  0.00    +0.000 C 
ATOM      8  C   UNL     1       2.013   6.314  19.633  0.00  0.00    +0.000 C 
ATOM      9  N   UNL     1       2.560   6.773  18.337  0.00  0.00    +0.000 N 
ATOM     10  C   UNL     1       1.892   7.967  17.778  0.00  0.00    +0.000 C 
ATOM     11  C   UNL     1       1.878   9.115  18.803  0.00  0.00    +0.000 C 
ATOM     12  N   UNL     1       0.023  10.602  20.197  0.00  0.00    +0.000 NA
ENDROOT
BRANCH   9  13
ATOM     13  C   UNL     1       3.617   6.150  17.707  0.00  0.00    +0.000 A 
ATOM     14  C   UNL     1       3.709   4.758  17.611  0.00  0.00    +0.000 A 
ATOM     15  C   UNL     1       4.797   4.177  16.971  0.00  0.00    +0.000 A 
ATOM     16  N   UNL     1       5.809   4.874  16.423  0.00  0.00    +0.000 NA
ATOM     17  C   UNL     1       5.718   6.214  16.519  0.00  0.00    +0.000 A 
ATOM     18  C   UNL     1       4.664   6.876  17.132  0.00  0.00    +0.000 A 
ENDBRANCH   9  13
BRANCH   1  19
ATOM     19  S   UNL     1      -1.547  12.785  19.985  0.00  0.00    +0.000 S 
BRANCH  19  21
ATOM     20  N   UNL     1      -4.185  12.198  19.272  0.00  0.00    +0.000 N 
ATOM     21  C   UNL     1      -2.829  11.967  19.133  0.00  0.00    +0.000 A 
ATOM     22  N   UNL     1      -2.638  11.130  18.135  0.00  0.00    +0.000 NA
ATOM     23  N   UNL     1      -3.860  10.807  17.599  0.00  0.00    +0.000 NA
ATOM     24  C   UNL     1      -4.793  11.447  18.277  0.00  0.00    +0.000 A 
BRANCH  24  25
ATOM     25  C   UNL     1      -6.221  11.357  17.972  0.00  0.00    +0.000 C 
ATOM     26  N   UNL     1      -6.663  12.234  17.023  0.00  0.00    +0.000 N 
ATOM     27  O   UNL     1      -7.013  10.598  18.505  0.00  0.00    +0.000 OA
ATOM     28  H   UNL     1      -6.030  12.885  16.579  0.00  0.00    +0.000 HD
ATOM     29  H   UNL     1      -7.635  12.226  16.779  0.00  0.00    +0.000 HD
ENDBRANCH  24  25
BRANCH  20  30
ATOM     30  C   UNL     1      -4.929  13.076  20.166  0.00  0.00    +0.000 C 
BRANCH  30  32
ATOM     31  C   UNL     1      -4.353  13.072  22.661  0.00  0.00    +0.000 C 
ATOM     32  C   UNL     1      -5.037  12.618  21.601  0.00  0.00    +0.000 C 
ENDBRANCH  30  32
ENDBRANCH  20  30
ENDBRANCH  19  21
ENDBRANCH   1  19
TORSDOF 6
ENDMDL
MODEL 4
REMARK VINA RESULT:      -7.5      2.924      3.592
REMARK  Name = 
REMARK  6 active torsions:
REMARK  status: ('A' for Active; 'I' for Inactive)
REMARK    1  A    between atoms: C_2  and  C_3
REMARK    2  A    between atoms: C_3  and  N_4
REMARK    3  A    between atoms: C_5  and  S_6
REMARK    4  A    between atoms: S_6  and  C_7
REMARK    5  A    between atoms: N_15  and  C_16
REMARK    6  A    between atoms: C_27  and  C_28
REMARK                            x       y       z     vdW  Elec       q    Type
REMARK                         _______ _______ _______ _____ _____    ______ ____
ROOT
ATOM      1  C   UNL     1       2.047   7.730  19.270  0.00  0.00    +0.000 A 
ATOM      2  C   UNL     1       1.871   7.033  20.452  0.00  0.00    +0.000 A 
ATOM      3  C   UNL     1       1.279   7.736  21.483  0.00  0.00    +0.000 A 
ATOM      4  N   UNL     1       0.906   9.021  21.386  0.00  0.00    +0.000 NA
ATOM      5  C   UNL     1       1.117   9.639  20.218  0.00  0.00    +0.000 A 
ATOM      6  N   UNL     1       0.809  10.971  20.113  0.00  0.00    +0.000 N 
ATOM      7  C   UNL     1       0.088  11.681  21.177  0.00  0.00    +0.000 C 
ATOM      8  C   UNL     1       0.543  13.167  21.214  0.00  0.00    +0.000 C 
ATOM      9  N   UNL     1       0.460  13.774  19.867  0.00  0.00    +0.000 N 
ATOM     10  C   UNL     1       1.147  13.009  18.807  0.00  0.00    +0.000 C 
ATOM     11  C   UNL     1       0.655  11.550  18.779  0.00  0.00    +0.000 C 
ATOM     12  N   UNL     1       1.690   9.026  19.163  0.00  0.00    +0.000 NA
ENDROOT
BRANCH   9  13
ATOM     13  C   UNL     1      -0.215  14.951  19.617  0.00  0.00    +0.000 A 
ATOM     14  C   UNL     1      -1.250  15.403  20.440  0.00  0.00    +0.000 A 
ATOM     15  C   UNL     1      -1.904  16.593  20.143  0.00  0.00    +0.000 A 
ATOM     16  N   UNL     1      -1.612  17.367  19.082  0.00  0.00    +0.000 NA
ATOM     17  C   UNL     1      -0.617  16.927  18.290  0.00  0.00    +0.000 A 
ATOM     18  C   UNL     1       0.094  15.758  18.518  0.00  0.00    +0.000 A 
ENDBRANCH   9  13
BRANCH   1  19
ATOM     19  S   UNL     1       2.970   7.033  17.873  0.00  0.00    +0.000 S 
BRANCH  19  21
ATOM     20  N   UNL     1       3.360   4.436  18.830  0.00  0.00    +0.000 N 
ATOM     21  C   UNL     1       3.843   5.711  18.600  0.00  0.00    +0.000 A 
ATOM     22  N   UNL     1       5.129   5.737  18.878  0.00  0.00    +0.000 NA
ATOM     23  N   UNL     1       5.512   4.482  19.283  0.00  0.00    +0.000 NA
ATOM     24  C   UNL     1       4.454   3.696  19.255  0.00  0.00    +0.000 A 
BRANCH  24  25
ATOM     25  C   UNL     1       4.490   2.277  19.607  0.00  0.00    +0.000 C 
ATOM     26  N   UNL     1       4.035   1.431  18.636  0.00  0.00    +0.000 N 
ATOM     27  O   UNL     1       4.860   1.821  20.676  0.00  0.00    +0.000 OA
ATOM     28  H   UNL     1       3.707   1.785  17.747  0.00  0.00    +0.000 HD
ATOM     29  H   UNL     1       4.027   0.446  18.822  0.00  0.00    +0.000 HD
ENDBRANCH  24  25
BRANCH  20  30
ATOM     30  C   UNL     1       2.040   3.852  18.629  0.00  0.00    +0.000 C 
BRANCH  30  32
ATOM     31  C   UNL     1       1.158   2.996  20.874  0.00  0.00    +0.000 C 
ATOM     32  C   UNL     1       1.132   3.842  19.835  0.00  0.00    +0.000 C 
ENDBRANCH  30  32
ENDBRANCH  20  30
ENDBRANCH  19  21
ENDBRANCH   1  19
TORSDOF 6
ENDMDL
MODEL 5
REMARK VINA RESULT:      -7.5      1.242      2.358
REMARK  Name = 
REMARK  6 active torsions:
REMARK  status: ('A' for Active; 'I' for Inactive)
REMARK    1  A    between atoms: C_2  and  C_3
REMARK    2  A    between atoms: C_3  and  N_4
REMARK    3  A    between atoms: C_5  and  S_6
REMARK    4  A    between atoms: S_6  and  C_7
REMARK    5  A    between atoms: N_15  and  C_16
REMARK    6  A    between atoms: C_27  and  C_28
REMARK                            x       y       z     vdW  Elec       q    Type
REMARK                         _______ _______ _______ _____ _____    ______ ____
ROOT
ATOM      1  C   UNL     1       2.541   7.418  19.053  0.00  0.00    +0.000 A 
ATOM      2  C   UNL     1       2.758   7.749  17.727  0.00  0.00    +0.000 A 
ATOM      3  C   UNL     1       2.203   8.941  17.306  0.00  0.00    +0.000 A 
ATOM      4  N   UNL     1       1.475   9.741  18.099  0.00  0.00    +0.000 NA
ATOM      5  C   UNL     1       1.293   9.354  19.367  0.00  0.00    +0.000 A 
ATOM      6  N   UNL     1       0.495  10.118  20.179  0.00  0.00    +0.000 N 
ATOM      7  C   UNL     1      -0.005  11.431  19.754  0.00  0.00    +0.000 C 
ATOM      8  C   UNL     1      -1.393  11.696  20.401  0.00  0.00    +0.000 C 
ATOM      9  N   UNL     1      -1.341  11.472  21.864  0.00  0.00    +0.000 N 
ATOM     10  C   UNL     1      -0.782  10.164  22.263  0.00  0.00    +0.000 C 
ATOM     11  C   UNL     1       0.604   9.946  21.628  0.00  0.00    +0.000 C 
ATOM     12  N   UNL     1       1.800   8.206  19.857  0.00  0.00    +0.000 NA
ENDROOT
BRANCH   9  13
ATOM     13  C   UNL     1      -1.767  12.410  22.780  0.00  0.00    +0.000 A 
ATOM     14  C   UNL     1      -0.980  13.510  23.136  0.00  0.00    +0.000 A 
ATOM     15  C   UNL     1      -1.451  14.427  24.069  0.00  0.00    +0.000 A 
ATOM     16  N   UNL     1      -2.644  14.329  24.684  0.00  0.00    +0.000 NA
ATOM     17  C   UNL     1      -3.397  13.268  24.341  0.00  0.00    +0.000 A 
ATOM     18  C   UNL     1      -3.009  12.311  23.413  0.00  0.00    +0.000 A 
ENDBRANCH   9  13
BRANCH   1  19
ATOM     19  S   UNL     1       3.034   5.811  19.734  0.00  0.00    +0.000 S 
BRANCH  19  21
ATOM     20  N   UNL     1       5.227   5.358  18.060  0.00  0.00    +0.000 N 
ATOM     21  C   UNL     1       3.920   5.084  18.421  0.00  0.00    +0.000 A 
ATOM     22  N   UNL     1       3.486   4.065  17.710  0.00  0.00    +0.000 NA
ATOM     23  N   UNL     1       4.499   3.650  16.881  0.00  0.00    +0.000 NA
ATOM     24  C   UNL     1       5.548   4.422  17.088  0.00  0.00    +0.000 A 
BRANCH  24  25
ATOM     25  C   UNL     1       6.823   4.260  16.391  0.00  0.00    +0.000 C 
ATOM     26  N   UNL     1       6.728   4.169  15.031  0.00  0.00    +0.000 N 
ATOM     27  O   UNL     1       7.917   4.178  16.924  0.00  0.00    +0.000 OA
ATOM     28  H   UNL     1       5.831   4.217  14.567  0.00  0.00    +0.000 HD
ATOM     29  H   UNL     1       7.569   4.048  14.499  0.00  0.00    +0.000 HD
ENDBRANCH  24  25
BRANCH  20  30
ATOM     30  C   UNL     1       6.185   6.331  18.570  0.00  0.00    +0.000 C 
BRANCH  30  32
ATOM     31  C   UNL     1       7.805   7.988  17.484  0.00  0.00    +0.000 C 
ATOM     32  C   UNL     1       6.598   7.417  17.608  0.00  0.00    +0.000 C 
ENDBRANCH  30  32
ENDBRANCH  20  30
ENDBRANCH  19  21
ENDBRANCH   1  19
TORSDOF 6
ENDMDL
MODEL 6
REMARK VINA RESULT:      -7.4      4.046     10.128
REMARK  Name = 
REMARK  6 active torsions:
REMARK  status: ('A' for Active; 'I' for Inactive)
REMARK    1  A    between atoms: C_2  and  C_3
REMARK    2  A    between atoms: C_3  and  N_4
REMARK    3  A    between atoms: C_5  and  S_6
REMARK    4  A    between atoms: S_6  and  C_7
REMARK    5  A    between atoms: N_15  and  C_16
REMARK    6  A    between atoms: C_27  and  C_28
REMARK                            x       y       z     vdW  Elec       q    Type
REMARK                         _______ _______ _______ _____ _____    ______ ____
ROOT
ATOM      1  C   UNL     1      -0.806  11.633  20.901  0.00  0.00    +0.000 A 
ATOM      2  C   UNL     1      -1.176  11.369  22.208  0.00  0.00    +0.000 A 
ATOM      3  C   UNL     1      -0.661  10.212  22.757  0.00  0.00    +0.000 A 
ATOM      4  N   UNL     1       0.133   9.362  22.088  0.00  0.00    +0.000 NA
ATOM      5  C   UNL     1       0.441   9.672  20.823  0.00  0.00    +0.000 A 
ATOM      6  N   UNL     1       1.193   8.787  20.093  0.00  0.00    +0.000 N 
ATOM      7  C   UNL     1       1.819   7.614  20.714  0.00  0.00    +0.000 C 
ATOM      8  C   UNL     1       1.894   6.454  19.682  0.00  0.00    +0.000 C 
ATOM      9  N   UNL     1       2.511   6.917  18.418  0.00  0.00    +0.000 N 
ATOM     10  C   UNL     1       1.896   8.133  17.846  0.00  0.00    +0.000 C 
ATOM     11  C   UNL     1       1.862   9.269  18.885  0.00  0.00    +0.000 C 
ATOM     12  N   UNL     1      -0.020  10.781  20.212  0.00  0.00    +0.000 NA
ENDROOT
BRANCH   9  13
ATOM     13  C   UNL     1       3.581   6.277  17.829  0.00  0.00    +0.000 A 
ATOM     14  C   UNL     1       3.700   4.884  17.821  0.00  0.00    +0.000 A 
ATOM     15  C   UNL     1       4.800   4.285  17.218  0.00  0.00    +0.000 A 
ATOM     16  N   UNL     1       5.799   4.967  16.628  0.00  0.00    +0.000 NA
ATOM     17  C   UNL     1       5.681   6.308  16.640  0.00  0.00    +0.000 A 
ATOM     18  C   UNL     1       4.614   6.986  17.210  0.00  0.00    +0.000 A 
ENDBRANCH   9  13
BRANCH   1  19
ATOM     19  S   UNL     1      -1.528  13.004  19.958  0.00  0.00    +0.000 S 
BRANCH  19  21
ATOM     20  N   UNL     1      -4.002  12.031  19.095  0.00  0.00    +0.000 N 
ATOM     21  C   UNL     1      -3.238  12.683  20.046  0.00  0.00    +0.000 A 
ATOM     22  N   UNL     1      -3.978  12.896  21.114  0.00  0.00    +0.000 NA
ATOM     23  N   UNL     1      -5.230  12.381  20.886  0.00  0.00    +0.000 NA
ATOM     24  C   UNL     1      -5.250  11.859  19.675  0.00  0.00    +0.000 A 
BRANCH  24  25
ATOM     25  C   UNL     1      -6.420  11.200  19.097  0.00  0.00    +0.000 C 
ATOM     26  N   UNL     1      -7.383  12.046  18.624  0.00  0.00    +0.000 N 
ATOM     27  O   UNL     1      -6.597   9.995  19.034  0.00  0.00    +0.000 OA
ATOM     28  H   UNL     1      -7.267  13.049  18.680  0.00  0.00    +0.000 HD
ATOM     29  H   UNL     1      -8.213  11.653  18.225  0.00  0.00    +0.000 HD
ENDBRANCH  24  25
BRANCH  20  30
ATOM     30  C   UNL     1      -3.664  11.513  17.775  0.00  0.00    +0.000 C 
BRANCH  30  32
ATOM     31  C   UNL     1      -1.736   9.916  17.244  0.00  0.00    +0.000 C 
ATOM     32  C   UNL     1      -2.947  10.185  17.751  0.00  0.00    +0.000 C 
ENDBRANCH  30  32
ENDBRANCH  20  30
ENDBRANCH  19  21
ENDBRANCH   1  19
TORSDOF 6
ENDMDL
MODEL 7
REMARK VINA RESULT:      -7.4      4.099     10.760
REMARK  Name = 
REMARK  6 active torsions:
REMARK  status: ('A' for Active; 'I' for Inactive)
REMARK    1  A    between atoms: C_2  and  C_3
REMARK    2  A    between atoms: C_3  and  N_4
REMARK    3  A    between atoms: C_5  and  S_6
REMARK    4  A    between atoms: S_6  and  C_7
REMARK    5  A    between atoms: N_15  and  C_16
REMARK    6  A    between atoms: C_27  and  C_28
REMARK                            x       y       z     vdW  Elec       q    Type
REMARK                         _______ _______ _______ _____ _____    ______ ____
ROOT
ATOM      1  C   UNL     1      -0.366  11.291  21.120  0.00  0.00    +0.000 A 
ATOM      2  C   UNL     1      -0.752  10.929  22.398  0.00  0.00    +0.000 A 
ATOM      3  C   UNL     1      -0.308   9.697  22.835  0.00  0.00    +0.000 A 
ATOM      4  N   UNL     1       0.434   8.867  22.086  0.00  0.00    +0.000 NA
ATOM      5  C   UNL     1       0.761   9.275  20.854  0.00  0.00    +0.000 A 
ATOM      6  N   UNL     1       1.459   8.418  20.042  0.00  0.00    +0.000 N 
ATOM      7  C   UNL     1       2.013   7.156  20.548  0.00  0.00    +0.000 C 
ATOM      8  C   UNL     1       2.020   6.096  19.412  0.00  0.00    +0.000 C 
ATOM      9  N   UNL     1       2.664   6.636  18.194  0.00  0.00    +0.000 N 
ATOM     10  C   UNL     1       2.124   7.934  17.740  0.00  0.00    +0.000 C 
ATOM     11  C   UNL     1       2.157   8.969  18.880  0.00  0.00    +0.000 C 
ATOM     12  N   UNL     1       0.368  10.461  20.351  0.00  0.00    +0.000 NA
ENDROOT
BRANCH   9  13
ATOM     13  C   UNL     1       3.694   5.991  17.543  0.00  0.00    +0.000 A 
ATOM     14  C   UNL     1       3.805   4.597  17.528  0.00  0.00    +0.000 A 
ATOM     15  C   UNL     1       4.865   3.993  16.861  0.00  0.00    +0.000 A 
ATOM     16  N   UNL     1       5.831   4.670  16.213  0.00  0.00    +0.000 NA
ATOM     17  C   UNL     1       5.721   6.011  16.232  0.00  0.00    +0.000 A 
ATOM     18  C   UNL     1       4.693   6.695  16.864  0.00  0.00    +0.000 A 
ENDBRANCH   9  13
BRANCH   1  19
ATOM     19  S   UNL     1      -1.003  12.784  20.312  0.00  0.00    +0.000 S 
BRANCH  19  21
ATOM     20  N   UNL     1      -3.698  12.777  21.054  0.00  0.00    +0.000 N 
ATOM     21  C   UNL     1      -2.705  12.447  20.149  0.00  0.00    +0.000 A 
ATOM     22  N   UNL     1      -3.264  11.966  19.059  0.00  0.00    +0.000 NA
ATOM     23  N   UNL     1      -4.627  11.982  19.225  0.00  0.00    +0.000 NA
ATOM     24  C   UNL     1      -4.893  12.470  20.421  0.00  0.00    +0.000 A 
BRANCH  24  25
ATOM     25  C   UNL     1      -6.249  12.653  20.936  0.00  0.00    +0.000 C 
ATOM     26  N   UNL     1      -6.821  11.530  21.463  0.00  0.00    +0.000 N 
ATOM     27  O   UNL     1      -6.886  13.693  20.905  0.00  0.00    +0.000 OA
ATOM     28  H   UNL     1      -6.321  10.651  21.486  0.00  0.00    +0.000 HD
ATOM     29  H   UNL     1      -7.754  11.591  21.824  0.00  0.00    +0.000 HD
ENDBRANCH  24  25
BRANCH  20  30
ATOM     30  C   UNL     1      -3.636  13.394  22.372  0.00  0.00    +0.000 C 
BRANCH  30  32
ATOM     31  C   UNL     1      -4.417  12.533  24.653  0.00  0.00    +0.000 C 
ATOM     32  C   UNL     1      -3.665  12.446  23.547  0.00  0.00    +0.000 C 
ENDBRANCH  30  32
ENDBRANCH  20  30
ENDBRANCH  19  21
ENDBRANCH   1  19
TORSDOF 6
ENDMDL
MODEL 8
REMARK VINA RESULT:      -7.3      3.218      4.070
REMARK  Name = 
REMARK  6 active torsions:
REMARK  status: ('A' for Active; 'I' for Inactive)
REMARK    1  A    between atoms: C_2  and  C_3
REMARK    2  A    between atoms: C_3  and  N_4
REMARK    3  A    between atoms: C_5  and  S_6
REMARK    4  A    between atoms: S_6  and  C_7
REMARK    5  A    between atoms: N_15  and  C_16
REMARK    6  A    between atoms: C_27  and  C_28
REMARK                            x       y       z     vdW  Elec       q    Type
REMARK                         _______ _______ _______ _____ _____    ______ ____
ROOT
ATOM      1  C   UNL     1       2.194   7.730  18.962  0.00  0.00    +0.000 A 
ATOM      2  C   UNL     1       1.838   7.083  20.133  0.00  0.00    +0.000 A 
ATOM      3  C   UNL     1       1.271   7.877  21.110  0.00  0.00    +0.000 A 
ATOM      4  N   UNL     1       1.082   9.199  20.975  0.00  0.00    +0.000 NA
ATOM      5  C   UNL     1       1.461   9.762  19.822  0.00  0.00    +0.000 A 
ATOM      6  N   UNL     1       1.344  11.121  19.685  0.00  0.00    +0.000 N 
ATOM      7  C   UNL     1       0.648  11.939  20.686  0.00  0.00    +0.000 C 
ATOM      8  C   UNL     1       1.294  13.352  20.747  0.00  0.00    +0.000 C 
ATOM      9  N   UNL     1       1.395  13.941  19.393  0.00  0.00    +0.000 N 
ATOM     10  C   UNL     1       2.049  13.073  18.393  0.00  0.00    +0.000 C 
ATOM     11  C   UNL     1       1.368  11.693  18.339  0.00  0.00    +0.000 C 
ATOM     12  N   UNL     1       2.023   9.060  18.819  0.00  0.00    +0.000 NA
ENDROOT
BRANCH   9  13
ATOM     13  C   UNL     1       0.904  15.193  19.084  0.00  0.00    +0.000 A 
ATOM     14  C   UNL     1       1.722  16.205  18.572  0.00  0.00    +0.000 A 
ATOM     15  C   UNL     1       1.182  17.452  18.280  0.00  0.00    +0.000 A 
ATOM     16  N   UNL     1      -0.112  17.775  18.467  0.00  0.00    +0.000 NA
ATOM     17  C   UNL     1      -0.894  16.798  18.962  0.00  0.00    +0.000 A 
ATOM     18  C   UNL     1      -0.441  15.524  19.271  0.00  0.00    +0.000 A 
ENDBRANCH   9  13
BRANCH   1  19
ATOM     19  S   UNL     1       3.116   6.891  17.645  0.00  0.00    +0.000 S 
BRANCH  19  21
ATOM     20  N   UNL     1       3.447   4.327  18.706  0.00  0.00    +0.000 N 
ATOM     21  C   UNL     1       3.930   5.605  18.493  0.00  0.00    +0.000 A 
ATOM     22  N   UNL     1       5.181   5.663  18.901  0.00  0.00    +0.000 NA
ATOM     23  N   UNL     1       5.540   4.426  19.377  0.00  0.00    +0.000 NA
ATOM     24  C   UNL     1       4.503   3.619  19.261  0.00  0.00    +0.000 A 
BRANCH  24  25
ATOM     25  C   UNL     1       4.527   2.210  19.653  0.00  0.00    +0.000 C 
ATOM     26  N   UNL     1       4.138   1.335  18.679  0.00  0.00    +0.000 N 
ATOM     27  O   UNL     1       4.832   1.786  20.755  0.00  0.00    +0.000 OA
ATOM     28  H   UNL     1       3.864   1.663  17.763  0.00  0.00    +0.000 HD
ATOM     29  H   UNL     1       4.125   0.356  18.892  0.00  0.00    +0.000 HD
ENDBRANCH  24  25
BRANCH  20  30
ATOM     30  C   UNL     1       2.165   3.713  18.387  0.00  0.00    +0.000 C 
BRANCH  30  32
ATOM     31  C   UNL     1       1.240   3.369  20.748  0.00  0.00    +0.000 C 
ATOM     32  C   UNL     1       1.119   3.766  19.474  0.00  0.00    +0.000 C 
ENDBRANCH  30  32
ENDBRANCH  20  30
ENDBRANCH  19  21
ENDBRANCH   1  19
TORSDOF 6
ENDMDL
MODEL 9
REMARK VINA RESULT:      -7.3      2.894      3.902
REMARK  Name = 
REMARK  6 active torsions:
REMARK  status: ('A' for Active; 'I' for Inactive)
REMARK    1  A    between atoms: C_2  and  C_3
REMARK    2  A    between atoms: C_3  and  N_4
REMARK    3  A    between atoms: C_5  and  S_6
REMARK    4  A    between atoms: S_6  and  C_7
REMARK    5  A    between atoms: N_15  and  C_16
REMARK    6  A    between atoms: C_27  and  C_28
REMARK                            x       y       z     vdW  Elec       q    Type
REMARK                         _______ _______ _______ _____ _____    ______ ____
ROOT
ATOM      1  C   UNL     1       2.006   7.972  19.214  0.00  0.00    +0.000 A 
ATOM      2  C   UNL     1       1.785   7.227  20.360  0.00  0.00    +0.000 A 
ATOM      3  C   UNL     1       1.124   7.877  21.382  0.00  0.00    +0.000 A 
ATOM      4  N   UNL     1       0.725   9.156  21.313  0.00  0.00    +0.000 NA
ATOM      5  C   UNL     1       0.982   9.822  20.181  0.00  0.00    +0.000 A 
ATOM      6  N   UNL     1       0.648  11.150  20.109  0.00  0.00    +0.000 N 
ATOM      7  C   UNL     1      -0.144  11.803  21.158  0.00  0.00    +0.000 C 
ATOM      8  C   UNL     1       0.272  13.296  21.274  0.00  0.00    +0.000 C 
ATOM      9  N   UNL     1       0.245  13.953  19.947  0.00  0.00    +0.000 N 
ATOM     10  C   UNL     1       1.004  13.243  18.897  0.00  0.00    +0.000 C 
ATOM     11  C   UNL     1       0.549  11.776  18.790  0.00  0.00    +0.000 C 
ATOM     12  N   UNL     1       1.623   9.262  19.136  0.00  0.00    +0.000 NA
ENDROOT
BRANCH   9  13
ATOM     13  C   UNL     1      -0.444  15.122  19.705  0.00  0.00    +0.000 A 
ATOM     14  C   UNL     1      -1.519  15.530  20.501  0.00  0.00    +0.000 A 
ATOM     15  C   UNL     1      -2.185  16.715  20.213  0.00  0.00    +0.000 A 
ATOM     16  N   UNL     1      -1.869  17.526  19.186  0.00  0.00    +0.000 NA
ATOM     17  C   UNL     1      -0.836  17.129  18.421  0.00  0.00    +0.000 A 
ATOM     18  C   UNL     1      -0.110  15.967  18.642  0.00  0.00    +0.000 A 
ENDBRANCH   9  13
BRANCH   1  19
ATOM     19  S   UNL     1       3.016   7.348  17.844  0.00  0.00    +0.000 S 
BRANCH  19  21
ATOM     20  N   UNL     1       3.898   4.829  18.676  0.00  0.00    +0.000 N 
ATOM     21  C   UNL     1       2.945   5.620  18.059  0.00  0.00    +0.000 A 
ATOM     22  N   UNL     1       1.889   4.883  17.787  0.00  0.00    +0.000 NA
ATOM     23  N   UNL     1       2.126   3.604  18.229  0.00  0.00    +0.000 NA
ATOM     24  C   UNL     1       3.330   3.567  18.764  0.00  0.00    +0.000 A 
BRANCH  24  25
ATOM     25  C   UNL     1       3.915   2.364  19.358  0.00  0.00    +0.000 C 
ATOM     26  N   UNL     1       4.147   1.343  18.481  0.00  0.00    +0.000 N 
ATOM     27  O   UNL     1       4.173   2.212  20.540  0.00  0.00    +0.000 OA
ATOM     28  H   UNL     1       3.925   1.439  17.499  0.00  0.00    +0.000 HD
ATOM     29  H   UNL     1       4.538   0.490  18.831  0.00  0.00    +0.000 HD
ENDBRANCH  24  25
BRANCH  20  30
ATOM     30  C   UNL     1       5.207   5.150  19.230  0.00  0.00    +0.000 C 
BRANCH  30  32
ATOM     31  C   UNL     1       7.469   5.765  18.203  0.00  0.00    +0.000 C 
ATOM     32  C   UNL     1       6.378   4.992  18.291  0.00  0.00    +0.000 C 
ENDBRANCH  30  32
ENDBRANCH  20  30
ENDBRANCH  19  21
ENDBRANCH   1  19
TORSDOF 6
ENDMDL
