MODEL 1
REMARK VINA RESULT:      -8.0      0.000      0.000
REMARK  Name = 
REMARK  10 active torsions:
REMARK  status: ('A' for Active; 'I' for Inactive)
REMARK    1  A    between atoms: C_1  and  C_2
REMARK    2  A    between atoms: C_2  and  N_3
REMARK    3  A    between atoms: N_3  and  C_4
REMARK    4  A    between atoms: N_3  and  C_6
REMARK    5  A    between atoms: C_4  and  C_5
REMARK    6  A    between atoms: C_6  and  C_7
REMARK    7  A    between atoms: C_7  and  O_8
REMARK    8  A    between atoms: O_8  and  C_9
REMARK    9  A    between atoms: C_12  and  C_13
REMARK   10  A    between atoms: C_17  and  C_18
REMARK                            x       y       z     vdW  Elec       q    Type
REMARK                         _______ _______ _______ _____ _____    ______ ____
ROOT
ATOM      1  C   UNL     1       8.358   9.022  18.305  0.00  0.00    +0.000 A 
ATOM      2  N   UNL     1       8.274  10.101  17.482  0.00  0.00    +0.000 NA
ATOM      3  C   UNL     1       8.994  11.041  18.117  0.00  0.00    +0.000 A 
ATOM      4  C   UNL     1       9.240  12.345  17.710  0.00  0.00    +0.000 A 
ATOM      5  C   UNL     1      10.048  13.158  18.543  0.00  0.00    +0.000 A 
ATOM      6  C   UNL     1      10.567  12.619  19.755  0.00  0.00    +0.000 A 
ATOM      7  C   UNL     1      10.291  11.293  20.130  0.00  0.00    +0.000 A 
ATOM      8  C   UNL     1       9.497  10.541  19.275  0.00  0.00    +0.000 A 
ATOM      9  N   UNL     1       9.105   9.271  19.412  0.00  0.00    +0.000 N 
ATOM     10  H   UNL     1       9.347   8.639  20.205  0.00  0.00    +0.000 HD
ENDROOT
BRANCH   1  14
ATOM     11  C   UNL     1       6.509   5.237  17.440  0.00  0.00    +0.000 A 
ATOM     12  C   UNL     1       7.457   5.357  18.472  0.00  0.00    +0.000 A 
ATOM     13  C   UNL     1       8.051   6.581  18.748  0.00  0.00    +0.000 A 
ATOM     14  C   UNL     1       7.712   7.724  18.010  0.00  0.00    +0.000 A 
ATOM     15  C   UNL     1       6.754   7.614  16.987  0.00  0.00    +0.000 A 
ATOM     16  C   UNL     1       6.158   6.379  16.705  0.00  0.00    +0.000 A 
ATOM     17  F   UNL     1       5.243   6.291  15.706  0.00  0.00    +0.000 F 
BRANCH  11  18
ATOM     18  O   UNL     1       5.926   4.047  17.126  0.00  0.00    +0.000 OA
BRANCH  18  19
ATOM     19  C   UNL     1       4.580   3.848  16.864  0.00  0.00    +0.000 C 
BRANCH  19  20
ATOM     20  C   UNL     1       3.804   3.632  18.172  0.00  0.00    +0.000 C 
BRANCH  20  21
ATOM     21  N   UNL     1       2.737   4.642  18.399  0.00  0.00    +0.000 NA
BRANCH  21  23
ATOM     22  C   UNL     1       1.348   2.546  18.669  0.00  0.00    +0.000 C 
ATOM     23  C   UNL     1       1.588   4.001  19.090  0.00  0.00    +0.000 C 
ENDBRANCH  21  23
BRANCH  21  24
ATOM     24  C   UNL     1       3.204   5.910  19.018  0.00  0.00    +0.000 C 
ATOM     25  C   UNL     1       2.863   7.165  18.211  0.00  0.00    +0.000 C 
ENDBRANCH  21  24
ENDBRANCH  20  21
ENDBRANCH  19  20
ENDBRANCH  18  19
ENDBRANCH  11  18
ENDBRANCH   1  14
BRANCH   5  26
ATOM     26  C   UNL     1      10.363  14.556  18.161  0.00  0.00    +0.000 C 
ATOM     27  N   UNL     1      10.399  15.511  19.008  0.00  0.00    +0.000 NA
ATOM     28  C   UNL     1      10.742  16.753  18.362  0.00  0.00    +0.000 C 
ATOM     29  C   UNL     1      11.023  16.365  16.900  0.00  0.00    +0.000 C 
ATOM     30  N   UNL     1      10.678  14.976  16.860  0.00  0.00    +0.000 N 
ATOM     31  H   UNL     1      10.738  14.385  16.019  0.00  0.00    +0.000 HD
ENDBRANCH   5  26
TORSDOF 8
ENDMDL
MODEL 2
REMARK VINA RESULT:      -7.9      0.802      1.461
REMARK  Name = 
REMARK  10 active torsions:
REMARK  status: ('A' for Active; 'I' for Inactive)
REMARK    1  A    between atoms: C_1  and  C_2
REMARK    2  A    between atoms: C_2  and  N_3
REMARK    3  A    between atoms: N_3  and  C_4
REMARK    4  A    between atoms: N_3  and  C_6
REMARK    5  A    between atoms: C_4  and  C_5
REMARK    6  A    between atoms: C_6  and  C_7
REMARK    7  A    between atoms: C_7  and  O_8
REMARK    8  A    between atoms: O_8  and  C_9
REMARK    9  A    between atoms: C_12  and  C_13
REMARK   10  A    between atoms: C_17  and  C_18
REMARK                            x       y       z     vdW  Elec       q    Type
REMARK                         _______ _______ _______ _____ _____    ______ ____
ROOT
ATOM      1  C   UNL     1       8.394   9.097  18.325  0.00  0.00    +0.000 A 
ATOM      2  N   UNL     1       8.245  10.171  17.503  0.00  0.00    +0.000 NA
ATOM      3  C   UNL     1       9.015  11.113  18.072  0.00  0.00    +0.000 A 
ATOM      4  C   UNL     1       9.229  12.414  17.637  0.00  0.00    +0.000 A 
ATOM      5  C   UNL     1      10.101  13.232  18.397  0.00  0.00    +0.000 A 
ATOM      6  C   UNL     1      10.715  12.701  19.567  0.00  0.00    +0.000 A 
ATOM      7  C   UNL     1      10.469  11.378  19.973  0.00  0.00    +0.000 A 
ATOM      8  C   UNL     1       9.609  10.621  19.190  0.00  0.00    +0.000 A 
ATOM      9  N   UNL     1       9.227   9.352  19.366  0.00  0.00    +0.000 N 
ATOM     10  H   UNL     1       9.531   8.726  20.142  0.00  0.00    +0.000 HD
ENDROOT
BRANCH   1  14
ATOM     11  C   UNL     1       6.479   5.308  17.638  0.00  0.00    +0.000 A 
ATOM     12  C   UNL     1       7.482   5.443  18.615  0.00  0.00    +0.000 A 
ATOM     13  C   UNL     1       8.097   6.667  18.834  0.00  0.00    +0.000 A 
ATOM     14  C   UNL     1       7.726   7.798  18.092  0.00  0.00    +0.000 A 
ATOM     15  C   UNL     1       6.712   7.674  17.124  0.00  0.00    +0.000 A 
ATOM     16  C   UNL     1       6.095   6.438  16.900  0.00  0.00    +0.000 A 
ATOM     17  F   UNL     1       5.126   6.337  15.954  0.00  0.00    +0.000 F 
BRANCH  11  18
ATOM     18  O   UNL     1       5.872   4.117  17.381  0.00  0.00    +0.000 OA
BRANCH  18  19
ATOM     19  C   UNL     1       4.547   3.809  17.640  0.00  0.00    +0.000 C 
BRANCH  19  20
ATOM     20  C   UNL     1       4.256   3.905  19.146  0.00  0.00    +0.000 C 
BRANCH  20  21
ATOM     21  N   UNL     1       3.381   5.050  19.506  0.00  0.00    +0.000 NA
BRANCH  21  23
ATOM     22  C   UNL     1       2.679   7.088  18.184  0.00  0.00    +0.000 C 
ATOM     23  C   UNL     1       2.704   5.559  18.285  0.00  0.00    +0.000 C 
ENDBRANCH  21  23
BRANCH  21  24
ATOM     24  C   UNL     1       2.475   4.802  20.658  0.00  0.00    +0.000 C 
ATOM     25  C   UNL     1       2.111   3.329  20.863  0.00  0.00    +0.000 C 
ENDBRANCH  21  24
ENDBRANCH  20  21
ENDBRANCH  19  20
ENDBRANCH  18  19
ENDBRANCH  11  18
ENDBRANCH   1  14
BRANCH   5  26
ATOM     26  C   UNL     1      10.385  14.627  17.981  0.00  0.00    +0.000 C 
ATOM     27  N   UNL     1       9.546  15.577  18.136  0.00  0.00    +0.000 NA
ATOM     28  C   UNL     1      10.092  16.822  17.655  0.00  0.00    +0.000 C 
ATOM     29  C   UNL     1      11.533  16.480  17.241  0.00  0.00    +0.000 C 
ATOM     30  N   UNL     1      11.592  15.059  17.410  0.00  0.00    +0.000 N 
ATOM     31  H   UNL     1      12.422  14.483  17.213  0.00  0.00    +0.000 HD
ENDBRANCH   5  26
TORSDOF 8
ENDMDL
MODEL 3
REMARK VINA RESULT:      -7.7      0.830      1.580
REMARK  Name = 
REMARK  10 active torsions:
REMARK  status: ('A' for Active; 'I' for Inactive)
REMARK    1  A    between atoms: C_1  and  C_2
REMARK    2  A    between atoms: C_2  and  N_3
REMARK    3  A    between atoms: N_3  and  C_4
REMARK    4  A    between atoms: N_3  and  C_6
REMARK    5  A    between atoms: C_4  and  C_5
REMARK    6  A    between atoms: C_6  and  C_7
REMARK    7  A    between atoms: C_7  and  O_8
REMARK    8  A    between atoms: O_8  and  C_9
REMARK    9  A    between atoms: C_12  and  C_13
REMARK   10  A    between atoms: C_17  and  C_18
REMARK                            x       y       z     vdW  Elec       q    Type
REMARK                         _______ _______ _______ _____ _____    ______ ____
ROOT
ATOM      1  C   UNL     1       8.532   9.311  18.395  0.00  0.00    +0.000 A 
ATOM      2  N   UNL     1       8.448  10.359  17.533  0.00  0.00    +0.000 NA
ATOM      3  C   UNL     1       9.208  11.305  18.109  0.00  0.00    +0.000 A 
ATOM      4  C   UNL     1       9.471  12.586  17.644  0.00  0.00    +0.000 A 
ATOM      5  C   UNL     1      10.322  13.412  18.420  0.00  0.00    +0.000 A 
ATOM      6  C   UNL     1      10.864  12.909  19.637  0.00  0.00    +0.000 A 
ATOM      7  C   UNL     1      10.569  11.606  20.072  0.00  0.00    +0.000 A 
ATOM      8  C   UNL     1       9.733  10.839  19.271  0.00  0.00    +0.000 A 
ATOM      9  N   UNL     1       9.316   9.585  19.470  0.00  0.00    +0.000 N 
ATOM     10  H   UNL     1       9.567   8.979  20.280  0.00  0.00    +0.000 HD
ENDROOT
BRANCH   1  14
ATOM     11  C   UNL     1       6.572   5.541  17.732  0.00  0.00    +0.000 A 
ATOM     12  C   UNL     1       7.622   5.655  18.662  0.00  0.00    +0.000 A 
ATOM     13  C   UNL     1       8.251   6.873  18.873  0.00  0.00    +0.000 A 
ATOM     14  C   UNL     1       7.848   8.019  18.171  0.00  0.00    +0.000 A 
ATOM     15  C   UNL     1       6.790   7.915  17.251  0.00  0.00    +0.000 A 
ATOM     16  C   UNL     1       6.157   6.685  17.034  0.00  0.00    +0.000 A 
ATOM     17  F   UNL     1       5.144   6.604  16.134  0.00  0.00    +0.000 F 
BRANCH  11  18
ATOM     18  O   UNL     1       5.950   4.356  17.483  0.00  0.00    +0.000 OA
BRANCH  18  19
ATOM     19  C   UNL     1       5.155   3.655  18.374  0.00  0.00    +0.000 C 
BRANCH  19  20
ATOM     20  C   UNL     1       3.687   4.090  18.244  0.00  0.00    +0.000 C 
BRANCH  20  21
ATOM     21  N   UNL     1       2.870   3.775  19.445  0.00  0.00    +0.000 NA
BRANCH  21  23
ATOM     22  C   UNL     1       2.647   6.294  19.498  0.00  0.00    +0.000 C 
ATOM     23  C   UNL     1       1.994   4.933  19.763  0.00  0.00    +0.000 C 
ENDBRANCH  21  23
BRANCH  21  24
ATOM     24  C   UNL     1       2.172   2.464  19.395  0.00  0.00    +0.000 C 
ATOM     25  C   UNL     1       0.728   2.542  18.893  0.00  0.00    +0.000 C 
ENDBRANCH  21  24
ENDBRANCH  20  21
ENDBRANCH  19  20
ENDBRANCH  18  19
ENDBRANCH  11  18
ENDBRANCH   1  14
BRANCH   5  26
ATOM     26  C   UNL     1      10.656  14.786  17.974  0.00  0.00    +0.000 C 
ATOM     27  N   UNL     1      11.838  15.266  18.045  0.00  0.00    +0.000 NA
ATOM     28  C   UNL     1      11.874  16.612  17.531  0.00  0.00    +0.000 C 
ATOM     29  C   UNL     1      10.449  16.865  17.009  0.00  0.00    +0.000 C 
ATOM     30  N   UNL     1       9.741  15.686  17.407  0.00  0.00    +0.000 N 
ATOM     31  H   UNL     1       8.743  15.517  17.225  0.00  0.00    +0.000 HD
ENDBRANCH   5  26
TORSDOF 8
ENDMDL
MODEL 4
REMARK VINA RESULT:      -7.6      0.943      1.313
REMARK  Name = 
REMARK  10 active torsions:
REMARK  status: ('A' for Active; 'I' for Inactive)
REMARK    1  A    between atoms: C_1  and  C_2
REMARK    2  A    between atoms: C_2  and  N_3
REMARK    3  A    between atoms: N_3  and  C_4
REMARK    4  A    between atoms: N_3  and  C_6
REMARK    5  A    between atoms: C_4  and  C_5
REMARK    6  A    between atoms: C_6  and  C_7
REMARK    7  A    between atoms: C_7  and  O_8
REMARK    8  A    between atoms: O_8  and  C_9
REMARK    9  A    between atoms: C_12  and  C_13
REMARK   10  A    between atoms: C_17  and  C_18
REMARK                            x       y       z     vdW  Elec       q    Type
REMARK                         _______ _______ _______ _____ _____    ______ ____
ROOT
ATOM      1  C   UNL     1       8.521   9.332  18.384  0.00  0.00    +0.000 A 
ATOM      2  N   UNL     1       8.459  10.382  17.522  0.00  0.00    +0.000 NA
ATOM      3  C   UNL     1       9.240  11.311  18.097  0.00  0.00    +0.000 A 
ATOM      4  C   UNL     1       9.531  12.586  17.633  0.00  0.00    +0.000 A 
ATOM      5  C   UNL     1      10.400  13.393  18.408  0.00  0.00    +0.000 A 
ATOM      6  C   UNL     1      10.934  12.877  19.623  0.00  0.00    +0.000 A 
ATOM      7  C   UNL     1      10.612  11.580  20.058  0.00  0.00    +0.000 A 
ATOM      8  C   UNL     1       9.758  10.833  19.259  0.00  0.00    +0.000 A 
ATOM      9  N   UNL     1       9.314   9.588  19.457  0.00  0.00    +0.000 N 
ATOM     10  H   UNL     1       9.553   8.976  20.266  0.00  0.00    +0.000 HD
ENDROOT
BRANCH   1  14
ATOM     11  C   UNL     1       6.478   5.606  17.721  0.00  0.00    +0.000 A 
ATOM     12  C   UNL     1       7.558   5.687  18.619  0.00  0.00    +0.000 A 
ATOM     13  C   UNL     1       8.214   6.891  18.830  0.00  0.00    +0.000 A 
ATOM     14  C   UNL     1       7.809   8.055  18.160  0.00  0.00    +0.000 A 
ATOM     15  C   UNL     1       6.721   7.984  17.272  0.00  0.00    +0.000 A 
ATOM     16  C   UNL     1       6.061   6.769  17.056  0.00  0.00    +0.000 A 
ATOM     17  F   UNL     1       5.019   6.720  16.187  0.00  0.00    +0.000 F 
BRANCH  11  18
ATOM     18  O   UNL     1       5.828   4.437  17.472  0.00  0.00    +0.000 OA
BRANCH  18  19
ATOM     19  C   UNL     1       4.892   3.837  18.299  0.00  0.00    +0.000 C 
BRANCH  19  20
ATOM     20  C   UNL     1       3.971   4.895  18.926  0.00  0.00    +0.000 C 
BRANCH  20  21
ATOM     21  N   UNL     1       2.618   4.377  19.257  0.00  0.00    +0.000 NA
BRANCH  21  23
ATOM     22  C   UNL     1       1.179   2.419  18.557  0.00  0.00    +0.000 C 
ATOM     23  C   UNL     1       2.566   2.918  18.979  0.00  0.00    +0.000 C 
ENDBRANCH  21  23
BRANCH  21  24
ATOM     24  C   UNL     1       2.113   4.771  20.598  0.00  0.00    +0.000 C 
ATOM     25  C   UNL     1       2.297   3.700  21.676  0.00  0.00    +0.000 C 
ENDBRANCH  21  24
ENDBRANCH  20  21
ENDBRANCH  19  20
ENDBRANCH  18  19
ENDBRANCH  11  18
ENDBRANCH   1  14
BRANCH   5  26
ATOM     26  C   UNL     1      10.764  14.759  17.962  0.00  0.00    +0.000 C 
ATOM     27  N   UNL     1      11.971  15.115  17.743  0.00  0.00    +0.000 NA
ATOM     28  C   UNL     1      12.028  16.488  17.309  0.00  0.00    +0.000 C 
ATOM     29  C   UNL     1      10.556  16.920  17.197  0.00  0.00    +0.000 C 
ATOM     30  N   UNL     1       9.844  15.787  17.706  0.00  0.00    +0.000 N 
ATOM     31  H   UNL     1       8.819  15.730  17.786  0.00  0.00    +0.000 HD
ENDBRANCH   5  26
TORSDOF 8
ENDMDL
MODEL 5
REMARK VINA RESULT:      -7.6      1.076      1.513
REMARK  Name = 
REMARK  10 active torsions:
REMARK  status: ('A' for Active; 'I' for Inactive)
REMARK    1  A    between atoms: C_1  and  C_2
REMARK    2  A    between atoms: C_2  and  N_3
REMARK    3  A    between atoms: N_3  and  C_4
REMARK    4  A    between atoms: N_3  and  C_6
REMARK    5  A    between atoms: C_4  and  C_5
REMARK    6  A    between atoms: C_6  and  C_7
REMARK    7  A    between atoms: C_7  and  O_8
REMARK    8  A    between atoms: O_8  and  C_9
REMARK    9  A    between atoms: C_12  and  C_13
REMARK   10  A    between atoms: C_17  and  C_18
REMARK                            x       y       z     vdW  Elec       q    Type
REMARK                         _______ _______ _______ _____ _____    ______ ____
ROOT
ATOM      1  C   UNL     1       8.265   8.928  18.282  0.00  0.00    +0.000 A 
ATOM      2  N   UNL     1       8.182  10.027  17.484  0.00  0.00    +0.000 NA
ATOM      3  C   UNL     1       9.004  10.910  18.074  0.00  0.00    +0.000 A 
ATOM      4  C   UNL     1       9.295  12.205  17.668  0.00  0.00    +0.000 A 
ATOM      5  C   UNL     1      10.212  12.954  18.447  0.00  0.00    +0.000 A 
ATOM      6  C   UNL     1      10.790  12.362  19.606  0.00  0.00    +0.000 A 
ATOM      7  C   UNL     1      10.466  11.048  19.982  0.00  0.00    +0.000 A 
ATOM      8  C   UNL     1       9.565  10.359  19.182  0.00  0.00    +0.000 A 
ATOM      9  N   UNL     1       9.109   9.112  19.330  0.00  0.00    +0.000 N 
ATOM     10  H   UNL     1       9.374   8.452  20.092  0.00  0.00    +0.000 HD
ENDROOT
BRANCH   1  14
ATOM     11  C   UNL     1       6.133   5.274  17.509  0.00  0.00    +0.000 A 
ATOM     12  C   UNL     1       7.156   5.323  18.474  0.00  0.00    +0.000 A 
ATOM     13  C   UNL     1       7.841   6.504  18.720  0.00  0.00    +0.000 A 
ATOM     14  C   UNL     1       7.523   7.676  18.019  0.00  0.00    +0.000 A 
ATOM     15  C   UNL     1       6.491   7.639  17.064  0.00  0.00    +0.000 A 
ATOM     16  C   UNL     1       5.802   6.446  16.812  0.00  0.00    +0.000 A 
ATOM     17  F   UNL     1       4.817   6.429  15.879  0.00  0.00    +0.000 F 
BRANCH  11  18
ATOM     18  O   UNL     1       5.458   4.127  17.225  0.00  0.00    +0.000 OA
BRANCH  18  19
ATOM     19  C   UNL     1       4.107   3.907  17.440  0.00  0.00    +0.000 C 
BRANCH  19  20
ATOM     20  C   UNL     1       3.856   2.441  17.828  0.00  0.00    +0.000 C 
BRANCH  20  21
ATOM     21  N   UNL     1       2.820   2.279  18.881  0.00  0.00    +0.000 NA
BRANCH  21  23
ATOM     22  C   UNL     1       4.758   1.906  20.462  0.00  0.00    +0.000 C 
ATOM     23  C   UNL     1       3.411   2.593  20.209  0.00  0.00    +0.000 C 
ENDBRANCH  21  23
BRANCH  21  24
ATOM     24  C   UNL     1       1.534   2.967  18.598  0.00  0.00    +0.000 C 
ATOM     25  C   UNL     1       0.935   3.700  19.801  0.00  0.00    +0.000 C 
ENDBRANCH  21  24
ENDBRANCH  20  21
ENDBRANCH  19  20
ENDBRANCH  18  19
ENDBRANCH  11  18
ENDBRANCH   1  14
BRANCH   5  26
ATOM     26  C   UNL     1      10.578  14.338  18.062  0.00  0.00    +0.000 C 
ATOM     27  N   UNL     1      11.677  14.885  18.417  0.00  0.00    +0.000 NA
ATOM     28  C   UNL     1      11.773  16.224  17.891  0.00  0.00    +0.000 C 
ATOM     29  C   UNL     1      10.518  16.388  17.018  0.00  0.00    +0.000 C 
ATOM     30  N   UNL     1       9.793  15.177  17.257  0.00  0.00    +0.000 N 
ATOM     31  H   UNL     1       8.884  14.949  16.832  0.00  0.00    +0.000 HD
ENDBRANCH   5  26
TORSDOF 8
ENDMDL
MODEL 6
REMARK VINA RESULT:      -7.5      7.245     10.630
REMARK  Name = 
REMARK  10 active torsions:
REMARK  status: ('A' for Active; 'I' for Inactive)
REMARK    1  A    between atoms: C_1  and  C_2
REMARK    2  A    between atoms: C_2  and  N_3
REMARK    3  A    between atoms: N_3  and  C_4
REMARK    4  A    between atoms: N_3  and  C_6
REMARK    5  A    between atoms: C_4  and  C_5
REMARK    6  A    between atoms: C_6  and  C_7
REMARK    7  A    between atoms: C_7  and  O_8
REMARK    8  A    between atoms: O_8  and  C_9
REMARK    9  A    between atoms: C_12  and  C_13
REMARK   10  A    between atoms: C_17  and  C_18
REMARK                            x       y       z     vdW  Elec       q    Type
REMARK                         _______ _______ _______ _____ _____    ______ ____
ROOT
ATOM      1  C   UNL     1       1.391   8.175  20.529  0.00  0.00    +0.000 A 
ATOM      2  N   UNL     1       2.004   8.358  19.328  0.00  0.00    +0.000 NA
ATOM      3  C   UNL     1       2.595   7.176  19.091  0.00  0.00    +0.000 A 
ATOM      4  C   UNL     1       3.359   6.811  17.991  0.00  0.00    +0.000 A 
ATOM      5  C   UNL     1       3.875   5.492  17.949  0.00  0.00    +0.000 A 
ATOM      6  C   UNL     1       3.600   4.600  19.025  0.00  0.00    +0.000 A 
ATOM      7  C   UNL     1       2.823   5.012  20.121  0.00  0.00    +0.000 A 
ATOM      8  C   UNL     1       2.342   6.313  20.109  0.00  0.00    +0.000 A 
ATOM      9  N   UNL     1       1.586   6.926  21.025  0.00  0.00    +0.000 N 
ATOM     10  H   UNL     1       1.236   6.502  21.911  0.00  0.00    +0.000 HD
ENDROOT
BRANCH   1  14
ATOM     11  C   UNL     1      -0.946  11.206  22.491  0.00  0.00    +0.000 A 
ATOM     12  C   UNL     1      -0.544  10.046  23.179  0.00  0.00    +0.000 A 
ATOM     13  C   UNL     1       0.210   9.071  22.542  0.00  0.00    +0.000 A 
ATOM     14  C   UNL     1       0.596   9.225  21.202  0.00  0.00    +0.000 A 
ATOM     15  C   UNL     1       0.210  10.389  20.513  0.00  0.00    +0.000 A 
ATOM     16  C   UNL     1      -0.555  11.370  21.154  0.00  0.00    +0.000 A 
ATOM     17  F   UNL     1      -0.925  12.482  20.468  0.00  0.00    +0.000 F 
BRANCH  11  18
ATOM     18  O   UNL     1      -1.707  12.170  23.077  0.00  0.00    +0.000 OA
BRANCH  18  19
ATOM     19  C   UNL     1      -3.046  12.054  23.411  0.00  0.00    +0.000 C 
BRANCH  19  20
ATOM     20  C   UNL     1      -3.906  12.953  22.509  0.00  0.00    +0.000 C 
BRANCH  20  21
ATOM     21  N   UNL     1      -5.256  12.396  22.236  0.00  0.00    +0.000 NA
BRANCH  21  23
ATOM     22  C   UNL     1      -5.888  14.453  23.564  0.00  0.00    +0.000 C 
ATOM     23  C   UNL     1      -6.243  13.018  23.157  0.00  0.00    +0.000 C 
ENDBRANCH  21  23
BRANCH  21  24
ATOM     24  C   UNL     1      -5.654  12.404  20.804  0.00  0.00    +0.000 C 
ATOM     25  C   UNL     1      -4.481  12.522  19.829  0.00  0.00    +0.000 C 
ENDBRANCH  21  24
ENDBRANCH  20  21
ENDBRANCH  19  20
ENDBRANCH  18  19
ENDBRANCH  11  18
ENDBRANCH   1  14
BRANCH   5  26
ATOM     26  C   UNL     1       4.686   5.033  16.796  0.00  0.00    +0.000 C 
ATOM     27  N   UNL     1       5.030   5.809  15.842  0.00  0.00    +0.000 NA
ATOM     28  C   UNL     1       5.822   5.099  14.868  0.00  0.00    +0.000 C 
ATOM     29  C   UNL     1       6.002   3.694  15.465  0.00  0.00    +0.000 C 
ATOM     30  N   UNL     1       5.183   3.730  16.639  0.00  0.00    +0.000 N 
ATOM     31  H   UNL     1       5.060   2.940  17.288  0.00  0.00    +0.000 HD
ENDBRANCH   5  26
TORSDOF 8
ENDMDL
MODEL 7
REMARK VINA RESULT:      -7.5      1.193      1.809
REMARK  Name = 
REMARK  10 active torsions:
REMARK  status: ('A' for Active; 'I' for Inactive)
REMARK    1  A    between atoms: C_1  and  C_2
REMARK    2  A    between atoms: C_2  and  N_3
REMARK    3  A    between atoms: N_3  and  C_4
REMARK    4  A    between atoms: N_3  and  C_6
REMARK    5  A    between atoms: C_4  and  C_5
REMARK    6  A    between atoms: C_6  and  C_7
REMARK    7  A    between atoms: C_7  and  O_8
REMARK    8  A    between atoms: O_8  and  C_9
REMARK    9  A    between atoms: C_12  and  C_13
REMARK   10  A    between atoms: C_17  and  C_18
REMARK                            x       y       z     vdW  Elec       q    Type
REMARK                         _______ _______ _______ _____ _____    ______ ____
ROOT
ATOM      1  C   UNL     1       8.332   9.200  18.276  0.00  0.00    +0.000 A 
ATOM      2  N   UNL     1       8.220  10.313  17.501  0.00  0.00    +0.000 NA
ATOM      3  C   UNL     1       8.933  11.236  18.167  0.00  0.00    +0.000 A 
ATOM      4  C   UNL     1       9.153  12.560  17.814  0.00  0.00    +0.000 A 
ATOM      5  C   UNL     1       9.958  13.351  18.671  0.00  0.00    +0.000 A 
ATOM      6  C   UNL     1      10.502  12.769  19.851  0.00  0.00    +0.000 A 
ATOM      7  C   UNL     1      10.252  11.424  20.172  0.00  0.00    +0.000 A 
ATOM      8  C   UNL     1       9.460  10.696  19.296  0.00  0.00    +0.000 A 
ATOM      9  N   UNL     1       9.090   9.414  19.383  0.00  0.00    +0.000 N 
ATOM     10  H   UNL     1       9.352   8.753  20.145  0.00  0.00    +0.000 HD
ENDROOT
BRANCH   1  14
ATOM     11  C   UNL     1       6.479   5.445  17.296  0.00  0.00    +0.000 A 
ATOM     12  C   UNL     1       5.964   6.656  16.798  0.00  0.00    +0.000 A 
ATOM     13  C   UNL     1       6.565   7.865  17.117  0.00  0.00    +0.000 A 
ATOM     14  C   UNL     1       7.704   7.906  17.934  0.00  0.00    +0.000 A 
ATOM     15  C   UNL     1       8.233   6.698  18.423  0.00  0.00    +0.000 A 
ATOM     16  C   UNL     1       7.625   5.478  18.106  0.00  0.00    +0.000 A 
ATOM     17  F   UNL     1       8.145   4.324  18.596  0.00  0.00    +0.000 F 
BRANCH  11  18
ATOM     18  O   UNL     1       5.900   4.244  17.024  0.00  0.00    +0.000 OA
BRANCH  18  19
ATOM     19  C   UNL     1       4.668   3.814  17.490  0.00  0.00    +0.000 C 
BRANCH  19  20
ATOM     20  C   UNL     1       4.628   3.855  19.025  0.00  0.00    +0.000 C 
BRANCH  20  21
ATOM     21  N   UNL     1       3.275   4.136  19.572  0.00  0.00    +0.000 NA
BRANCH  21  23
ATOM     22  C   UNL     1       1.371   4.213  17.911  0.00  0.00    +0.000 C 
ATOM     23  C   UNL     1       2.513   4.966  18.603  0.00  0.00    +0.000 C 
ENDBRANCH  21  23
BRANCH  21  24
ATOM     24  C   UNL     1       2.547   2.941  20.072  0.00  0.00    +0.000 C 
ATOM     25  C   UNL     1       1.861   3.145  21.425  0.00  0.00    +0.000 C 
ENDBRANCH  21  24
ENDBRANCH  20  21
ENDBRANCH  19  20
ENDBRANCH  18  19
ENDBRANCH  11  18
ENDBRANCH   1  14
BRANCH   5  26
ATOM     26  C   UNL     1      10.245  14.768  18.345  0.00  0.00    +0.000 C 
ATOM     27  N   UNL     1      11.142  15.447  18.950  0.00  0.00    +0.000 NA
ATOM     28  C   UNL     1      11.211  16.787  18.420  0.00  0.00    +0.000 C 
ATOM     29  C   UNL     1      10.212  16.793  17.251  0.00  0.00    +0.000 C 
ATOM     30  N   UNL     1       9.599  15.502  17.338  0.00  0.00    +0.000 N 
ATOM     31  H   UNL     1       8.864  15.163  16.703  0.00  0.00    +0.000 HD
ENDBRANCH   5  26
TORSDOF 8
ENDMDL
MODEL 8
REMARK VINA RESULT:      -7.5      0.871      1.612
REMARK  Name = 
REMARK  10 active torsions:
REMARK  status: ('A' for Active; 'I' for Inactive)
REMARK    1  A    between atoms: C_1  and  C_2
REMARK    2  A    between atoms: C_2  and  N_3
REMARK    3  A    between atoms: N_3  and  C_4
REMARK    4  A    between atoms: N_3  and  C_6
REMARK    5  A    between atoms: C_4  and  C_5
REMARK    6  A    between atoms: C_6  and  C_7
REMARK    7  A    between atoms: C_7  and  O_8
REMARK    8  A    between atoms: O_8  and  C_9
REMARK    9  A    between atoms: C_12  and  C_13
REMARK   10  A    between atoms: C_17  and  C_18
REMARK                            x       y       z     vdW  Elec       q    Type
REMARK                         _______ _______ _______ _____ _____    ______ ____
ROOT
ATOM      1  C   UNL     1       8.576   9.311  18.433  0.00  0.00    +0.000 A 
ATOM      2  N   UNL     1       8.657  10.355  17.564  0.00  0.00    +0.000 NA
ATOM      3  C   UNL     1       9.364  11.275  18.238  0.00  0.00    +0.000 A 
ATOM      4  C   UNL     1       9.742  12.541  17.811  0.00  0.00    +0.000 A 
ATOM      5  C   UNL     1      10.507  13.339  18.698  0.00  0.00    +0.000 A 
ATOM      6  C   UNL     1      10.851  12.826  19.980  0.00  0.00    +0.000 A 
ATOM      7  C   UNL     1      10.446  11.539  20.374  0.00  0.00    +0.000 A 
ATOM      8  C   UNL     1       9.702  10.799  19.465  0.00  0.00    +0.000 A 
ATOM      9  N   UNL     1       9.211   9.564  19.606  0.00  0.00    +0.000 N 
ATOM     10  H   UNL     1       9.321   8.956  20.446  0.00  0.00    +0.000 HD
ENDROOT
BRANCH   1  14
ATOM     11  C   UNL     1       6.580   5.616  17.509  0.00  0.00    +0.000 A 
ATOM     12  C   UNL     1       7.552   5.677  18.524  0.00  0.00    +0.000 A 
ATOM     13  C   UNL     1       8.193   6.871  18.819  0.00  0.00    +0.000 A 
ATOM     14  C   UNL     1       7.880   8.045  18.118  0.00  0.00    +0.000 A 
ATOM     15  C   UNL     1       6.898   7.994  17.112  0.00  0.00    +0.000 A 
ATOM     16  C   UNL     1       6.254   6.789  16.811  0.00  0.00    +0.000 A 
ATOM     17  F   UNL     1       5.317   6.759  15.829  0.00  0.00    +0.000 F 
BRANCH  11  18
ATOM     18  O   UNL     1       5.949   4.456  17.177  0.00  0.00    +0.000 OA
BRANCH  18  19
ATOM     19  C   UNL     1       4.592   4.309  16.944  0.00  0.00    +0.000 C 
BRANCH  19  20
ATOM     20  C   UNL     1       3.785   4.717  18.186  0.00  0.00    +0.000 C 
BRANCH  20  21
ATOM     21  N   UNL     1       2.918   3.629  18.709  0.00  0.00    +0.000 NA
BRANCH  21  23
ATOM     22  C   UNL     1       1.051   3.861  20.399  0.00  0.00    +0.000 C 
ATOM     23  C   UNL     1       1.561   4.169  18.986  0.00  0.00    +0.000 C 
ENDBRANCH  21  23
BRANCH  21  24
ATOM     24  C   UNL     1       2.935   2.380  17.904  0.00  0.00    +0.000 C 
ATOM     25  C   UNL     1       3.676   1.217  18.567  0.00  0.00    +0.000 C 
ENDBRANCH  21  24
ENDBRANCH  20  21
ENDBRANCH  19  20
ENDBRANCH  18  19
ENDBRANCH  11  18
ENDBRANCH   1  14
BRANCH   5  26
ATOM     26  C   UNL     1      10.956  14.695  18.299  0.00  0.00    +0.000 C 
ATOM     27  N   UNL     1      10.544  15.274  17.237  0.00  0.00    +0.000 NA
ATOM     28  C   UNL     1      11.134  16.583  17.108  0.00  0.00    +0.000 C 
ATOM     29  C   UNL     1      11.954  16.766  18.396  0.00  0.00    +0.000 C 
ATOM     30  N   UNL     1      11.842  15.492  19.040  0.00  0.00    +0.000 N 
ATOM     31  H   UNL     1      12.283  15.252  19.938  0.00  0.00    +0.000 HD
ENDBRANCH   5  26
TORSDOF 8
ENDMDL
MODEL 9
REMARK VINA RESULT:      -7.5      1.048      1.423
REMARK  Name = 
REMARK  10 active torsions:
REMARK  status: ('A' for Active; 'I' for Inactive)
REMARK    1  A    between atoms: C_1  and  C_2
REMARK    2  A    between atoms: C_2  and  N_3
REMARK    3  A    between atoms: N_3  and  C_4
REMARK    4  A    between atoms: N_3  and  C_6
REMARK    5  A    between atoms: C_4  and  C_5
REMARK    6  A    between atoms: C_6  and  C_7
REMARK    7  A    between atoms: C_7  and  O_8
REMARK    8  A    between atoms: O_8  and  C_9
REMARK    9  A    between atoms: C_12  and  C_13
REMARK   10  A    between atoms: C_17  and  C_18
REMARK                            x       y       z     vdW  Elec       q    Type
REMARK                         _______ _______ _______ _____ _____    ______ ____
ROOT
ATOM      1  C   UNL     1       8.455   9.350  18.342  0.00  0.00    +0.000 A 
ATOM      2  N   UNL     1       8.307  10.463  17.574  0.00  0.00    +0.000 NA
ATOM      3  C   UNL     1       9.029  11.393  18.221  0.00  0.00    +0.000 A 
ATOM      4  C   UNL     1       9.223  12.720  17.866  0.00  0.00    +0.000 A 
ATOM      5  C   UNL     1      10.044  13.517  18.701  0.00  0.00    +0.000 A 
ATOM      6  C   UNL     1      10.629  12.939  19.863  0.00  0.00    +0.000 A 
ATOM      7  C   UNL     1      10.405  11.590  20.188  0.00  0.00    +0.000 A 
ATOM      8  C   UNL     1       9.595  10.855  19.333  0.00  0.00    +0.000 A 
ATOM      9  N   UNL     1       9.242   9.569  19.427  0.00  0.00    +0.000 N 
ATOM     10  H   UNL     1       9.535   8.910  20.179  0.00  0.00    +0.000 HD
ENDROOT
BRANCH   1  14
ATOM     11  C   UNL     1       6.615   5.578  17.402  0.00  0.00    +0.000 A 
ATOM     12  C   UNL     1       6.171   6.768  16.798  0.00  0.00    +0.000 A 
ATOM     13  C   UNL     1       6.768   7.983  17.103  0.00  0.00    +0.000 A 
ATOM     14  C   UNL     1       7.832   8.049  18.015  0.00  0.00    +0.000 A 
ATOM     15  C   UNL     1       8.291   6.861  18.611  0.00  0.00    +0.000 A 
ATOM     16  C   UNL     1       7.686   5.636  18.306  0.00  0.00    +0.000 A 
ATOM     17  F   UNL     1       8.138   4.502  18.901  0.00  0.00    +0.000 F 
BRANCH  11  18
ATOM     18  O   UNL     1       6.037   4.374  17.144  0.00  0.00    +0.000 OA
BRANCH  18  19
ATOM     19  C   UNL     1       4.800   4.179  16.551  0.00  0.00    +0.000 C 
BRANCH  19  20
ATOM     20  C   UNL     1       3.753   3.785  17.605  0.00  0.00    +0.000 C 
BRANCH  20  21
ATOM     21  N   UNL     1       2.593   4.712  17.658  0.00  0.00    +0.000 NA
BRANCH  21  23
ATOM     22  C   UNL     1       1.487   2.677  18.674  0.00  0.00    +0.000 C 
ATOM     23  C   UNL     1       1.339   3.926  17.798  0.00  0.00    +0.000 C 
ENDBRANCH  21  23
BRANCH  21  24
ATOM     24  C   UNL     1       2.735   5.829  18.628  0.00  0.00    +0.000 C 
ATOM     25  C   UNL     1       3.761   5.572  19.735  0.00  0.00    +0.000 C 
ENDBRANCH  21  24
ENDBRANCH  20  21
ENDBRANCH  19  20
ENDBRANCH  18  19
ENDBRANCH  11  18
ENDBRANCH   1  14
BRANCH   5  26
ATOM     26  C   UNL     1      10.305  14.939  18.371  0.00  0.00    +0.000 C 
ATOM     27  N   UNL     1      10.956  15.719  19.146  0.00  0.00    +0.000 NA
ATOM     28  C   UNL     1      11.069  17.035  18.568  0.00  0.00    +0.000 C 
ATOM     29  C   UNL     1      10.422  16.904  17.178  0.00  0.00    +0.000 C 
ATOM     30  N   UNL     1       9.902  15.570  17.184  0.00  0.00    +0.000 N 
ATOM     31  H   UNL     1       9.390  15.141  16.401  0.00  0.00    +0.000 HD
ENDBRANCH   5  26
TORSDOF 8
ENDMDL
