MODEL 1
REMARK VINA RESULT:      -7.7      0.000      0.000
REMARK  Name = 
REMARK  9 active torsions:
REMARK  status: ('A' for Active; 'I' for Inactive)
REMARK    1  A    between atoms: C_2  and  C_4
REMARK    2  A    between atoms: C_4  and  C_5
REMARK    3  A    between atoms: C_4  and  N_12
REMARK    4  A    between atoms: C_5  and  C_6
REMARK    5  A    between atoms: C_13  and  C_15
REMARK    6  A    between atoms: C_15  and  C_16
REMARK    7  A    between atoms: C_15  and  N_18
REMARK    8  A    between atoms: C_16  and  S_17
REMARK    9  A    between atoms: C_19  and  C_21
REMARK                            x       y       z     vdW  Elec       q    Type
REMARK                         _______ _______ _______ _____ _____    ______ ____
ROOT
ATOM      1  C   UNL     1       1.474   8.912  19.398  0.00  0.00    +0.000 C 
ENDROOT
BRANCH   1   3
ATOM      2  N   UNL     1       2.510   6.719  18.903  0.00  0.00    +0.000 N 
ATOM      3  C   UNL     1       2.214   7.979  18.417  0.00  0.00    +0.000 C 
ATOM      4  O   UNL     1       2.613   8.368  17.322  0.00  0.00    +0.000 OA
ATOM      5  H   UNL     1       1.936   6.401  19.674  0.00  0.00    +0.000 HD
BRANCH   2   6
ATOM      6  C   UNL     1       3.123   5.688  18.053  0.00  0.00    +0.000 C 
BRANCH   6   8
ATOM      7  N   UNL     1       2.720   3.409  18.944  0.00  0.00    +0.000 N 
ATOM      8  C   UNL     1       2.327   4.361  18.046  0.00  0.00    +0.000 C 
ATOM      9  O   UNL     1       1.307   4.183  17.386  0.00  0.00    +0.000 OA
ATOM     10  H   UNL     1       2.109   2.609  19.043  0.00  0.00    +0.000 HD
ATOM     11  H   UNL     1       3.256   3.667  19.765  0.00  0.00    +0.000 HD
ENDBRANCH   6   8
BRANCH   6  12
ATOM     12  C   UNL     1       4.612   5.446  18.384  0.00  0.00    +0.000 C 
BRANCH  12  13
ATOM     13  C   UNL     1       5.518   5.205  17.202  0.00  0.00    +0.000 A 
ATOM     14  C   UNL     1       5.109   5.476  15.892  0.00  0.00    +0.000 A 
ATOM     15  C   UNL     1       5.982   5.249  14.830  0.00  0.00    +0.000 A 
ATOM     16  C   UNL     1       7.237   4.742  15.111  0.00  0.00    +0.000 A 
ATOM     17  N   UNL     1       7.668   4.465  16.362  0.00  0.00    +0.000 NA
ATOM     18  C   UNL     1       6.810   4.719  17.372  0.00  0.00    +0.000 A 
ENDBRANCH  12  13
ENDBRANCH   6  12
ENDBRANCH   2   6
ENDBRANCH   1   3
BRANCH   1  19
ATOM     19  N   UNL     1       0.141   9.243  18.891  0.00  0.00    +0.000 N 
ATOM     20  C   UNL     1      -0.238  10.551  18.684  0.00  0.00    +0.000 C 
ATOM     21  O   UNL     1       0.473  11.511  18.945  0.00  0.00    +0.000 OA
ATOM     22  H   UNL     1      -0.527   8.486  18.793  0.00  0.00    +0.000 HD
BRANCH  20  23
ATOM     23  C   UNL     1      -1.602  10.743  18.122  0.00  0.00    +0.000 A 
ATOM     24  C   UNL     1      -1.933  10.111  16.913  0.00  0.00    +0.000 A 
ATOM     25  C   UNL     1      -3.205  10.249  16.341  0.00  0.00    +0.000 A 
ATOM     26  C   UNL     1      -4.116  11.035  17.051  0.00  0.00    +0.000 A 
ATOM     27  N   UNL     1      -5.417  11.397  16.832  0.00  0.00    +0.000 N 
ATOM     28  N   UNL     1      -5.895  12.171  17.821  0.00  0.00    +0.000 NA
ATOM     29  N   UNL     1      -4.920  12.336  18.703  0.00  0.00    +0.000 NA
ATOM     30  C   UNL     1      -3.822  11.655  18.257  0.00  0.00    +0.000 A 
ATOM     31  C   UNL     1      -2.549  11.513  18.818  0.00  0.00    +0.000 A 
ATOM     32  H   UNL     1      -6.027  11.162  16.061  0.00  0.00    +0.000 HD
ENDBRANCH  20  23
ENDBRANCH   1  19
BRANCH   1  33
ATOM     33  C   UNL     1       1.420   8.283  20.796  0.00  0.00    +0.000 C 
BRANCH  33  34
ATOM     34  S   UNL     1       0.978   9.469  22.117  0.00  0.00    +0.000 S 
ATOM     35  H   UNL     1       1.199   8.634  23.146  0.00  0.00    +0.000 HD
ENDBRANCH  33  34
ENDBRANCH   1  33
TORSDOF 9
ENDMDL
MODEL 2
REMARK VINA RESULT:      -7.7      1.544      1.728
REMARK  Name = 
REMARK  9 active torsions:
REMARK  status: ('A' for Active; 'I' for Inactive)
REMARK    1  A    between atoms: C_2  and  C_4
REMARK    2  A    between atoms: C_4  and  C_5
REMARK    3  A    between atoms: C_4  and  N_12
REMARK    4  A    between atoms: C_5  and  C_6
REMARK    5  A    between atoms: C_13  and  C_15
REMARK    6  A    between atoms: C_15  and  C_16
REMARK    7  A    between atoms: C_15  and  N_18
REMARK    8  A    between atoms: C_16  and  S_17
REMARK    9  A    between atoms: C_19  and  C_21
REMARK                            x       y       z     vdW  Elec       q    Type
REMARK                         _______ _______ _______ _____ _____    ______ ____
ROOT
ATOM      1  C   UNL     1       1.102   9.203  20.477  0.00  0.00    +0.000 C 
ENDROOT
BRANCH   1   3
ATOM      2  N   UNL     1       1.829   6.839  20.547  0.00  0.00    +0.000 N 
ATOM      3  C   UNL     1       1.710   7.975  19.769  0.00  0.00    +0.000 C 
ATOM      4  O   UNL     1       2.162   8.037  18.628  0.00  0.00    +0.000 OA
ATOM      5  H   UNL     1       1.214   6.791  21.350  0.00  0.00    +0.000 HD
BRANCH   2   6
ATOM      6  C   UNL     1       2.297   5.564  19.985  0.00  0.00    +0.000 C 
BRANCH   6   8
ATOM      7  N   UNL     1       0.672   3.709  20.251  0.00  0.00    +0.000 N 
ATOM      8  C   UNL     1       1.774   4.333  20.763  0.00  0.00    +0.000 C 
ATOM      9  O   UNL     1       2.366   3.827  21.713  0.00  0.00    +0.000 OA
ATOM     10  H   UNL     1       0.423   2.823  20.670  0.00  0.00    +0.000 HD
ATOM     11  H   UNL     1       0.421   3.829  19.276  0.00  0.00    +0.000 HD
ENDBRANCH   6   8
BRANCH   6  12
ATOM     12  C   UNL     1       3.831   5.510  19.818  0.00  0.00    +0.000 C 
BRANCH  12  13
ATOM     13  C   UNL     1       4.332   5.242  18.419  0.00  0.00    +0.000 A 
ATOM     14  C   UNL     1       4.801   6.271  17.595  0.00  0.00    +0.000 A 
ATOM     15  C   UNL     1       5.264   5.978  16.314  0.00  0.00    +0.000 A 
ATOM     16  C   UNL     1       5.232   4.662  15.891  0.00  0.00    +0.000 A 
ATOM     17  N   UNL     1       4.785   3.642  16.657  0.00  0.00    +0.000 NA
ATOM     18  C   UNL     1       4.366   3.952  17.901  0.00  0.00    +0.000 A 
ENDBRANCH  12  13
ENDBRANCH   6  12
ENDBRANCH   2   6
ENDBRANCH   1   3
BRANCH   1  19
ATOM     19  N   UNL     1      -0.191   9.553  19.887  0.00  0.00    +0.000 N 
ATOM     20  C   UNL     1      -0.293  10.525  18.917  0.00  0.00    +0.000 C 
ATOM     21  O   UNL     1       0.656  11.184  18.518  0.00  0.00    +0.000 OA
ATOM     22  H   UNL     1      -1.022   9.129  20.287  0.00  0.00    +0.000 HD
BRANCH  20  23
ATOM     23  C   UNL     1      -1.659  10.747  18.370  0.00  0.00    +0.000 A 
ATOM     24  C   UNL     1      -2.028  10.098  17.182  0.00  0.00    +0.000 A 
ATOM     25  C   UNL     1      -3.304  10.263  16.626  0.00  0.00    +0.000 A 
ATOM     26  C   UNL     1      -4.179  11.094  17.329  0.00  0.00    +0.000 A 
ATOM     27  N   UNL     1      -5.471  11.491  17.121  0.00  0.00    +0.000 N 
ATOM     28  N   UNL     1      -5.910  12.302  18.099  0.00  0.00    +0.000 NA
ATOM     29  N   UNL     1      -4.916  12.457  18.963  0.00  0.00    +0.000 NA
ATOM     30  C   UNL     1      -3.847  11.731  18.516  0.00  0.00    +0.000 A 
ATOM     31  C   UNL     1      -2.570  11.563  19.062  0.00  0.00    +0.000 A 
ATOM     32  H   UNL     1      -6.100  11.258  16.366  0.00  0.00    +0.000 HD
ENDBRANCH  20  23
ENDBRANCH   1  19
BRANCH   1  33
ATOM     33  C   UNL     1       0.999   8.953  21.987  0.00  0.00    +0.000 C 
BRANCH  33  34
ATOM     34  S   UNL     1      -0.417   9.802  22.776  0.00  0.00    +0.000 S 
ATOM     35  H   UNL     1      -1.151   9.937  21.659  0.00  0.00    +0.000 HD
ENDBRANCH  33  34
ENDBRANCH   1  33
TORSDOF 9
ENDMDL
MODEL 3
REMARK VINA RESULT:      -7.5      3.677      4.936
REMARK  Name = 
REMARK  9 active torsions:
REMARK  status: ('A' for Active; 'I' for Inactive)
REMARK    1  A    between atoms: C_2  and  C_4
REMARK    2  A    between atoms: C_4  and  C_5
REMARK    3  A    between atoms: C_4  and  N_12
REMARK    4  A    between atoms: C_5  and  C_6
REMARK    5  A    between atoms: C_13  and  C_15
REMARK    6  A    between atoms: C_15  and  C_16
REMARK    7  A    between atoms: C_15  and  N_18
REMARK    8  A    between atoms: C_16  and  S_17
REMARK    9  A    between atoms: C_19  and  C_21
REMARK                            x       y       z     vdW  Elec       q    Type
REMARK                         _______ _______ _______ _____ _____    ______ ____
ROOT
ATOM      1  C   UNL     1       3.307   4.541  19.092  0.00  0.00    +0.000 C 
ENDROOT
BRANCH   1   3
ATOM      2  N   UNL     1       5.498   5.451  18.388  0.00  0.00    +0.000 N 
ATOM      3  C   UNL     1       4.846   4.440  19.070  0.00  0.00    +0.000 C 
ATOM      4  O   UNL     1       5.442   3.468  19.526  0.00  0.00    +0.000 OA
ATOM      5  H   UNL     1       4.979   6.314  18.282  0.00  0.00    +0.000 HD
BRANCH   2   6
ATOM      6  C   UNL     1       6.965   5.544  18.365  0.00  0.00    +0.000 C 
BRANCH   6   8
ATOM      7  N   UNL     1       6.737   7.703  17.166  0.00  0.00    +0.000 N 
ATOM      8  C   UNL     1       7.474   6.971  18.055  0.00  0.00    +0.000 C 
ATOM      9  O   UNL     1       8.402   7.509  18.654  0.00  0.00    +0.000 OA
ATOM     10  H   UNL     1       6.981   8.681  17.080  0.00  0.00    +0.000 HD
ATOM     11  H   UNL     1       5.769   7.466  16.985  0.00  0.00    +0.000 HD
ENDBRANCH   6   8
BRANCH   6  12
ATOM     12  C   UNL     1       7.617   4.502  17.429  0.00  0.00    +0.000 C 
BRANCH  12  13
ATOM     13  C   UNL     1       7.065   4.441  16.026  0.00  0.00    +0.000 A 
ATOM     14  C   UNL     1       5.923   3.696  15.714  0.00  0.00    +0.000 A 
ATOM     15  C   UNL     1       5.441   3.676  14.408  0.00  0.00    +0.000 A 
ATOM     16  C   UNL     1       6.129   4.393  13.445  0.00  0.00    +0.000 A 
ATOM     17  N   UNL     1       7.237   5.122  13.706  0.00  0.00    +0.000 NA
ATOM     18  C   UNL     1       7.664   5.143  14.986  0.00  0.00    +0.000 A 
ENDBRANCH  12  13
ENDBRANCH   6  12
ENDBRANCH   2   6
ENDBRANCH   1   3
BRANCH   1  19
ATOM     19  N   UNL     1       2.875   5.917  18.838  0.00  0.00    +0.000 N 
ATOM     20  C   UNL     1       2.161   6.626  19.778  0.00  0.00    +0.000 C 
ATOM     21  O   UNL     1       1.804   6.158  20.850  0.00  0.00    +0.000 OA
ATOM     22  H   UNL     1       3.030   6.296  17.909  0.00  0.00    +0.000 HD
BRANCH  20  23
ATOM     23  C   UNL     1       1.828   8.028  19.410  0.00  0.00    +0.000 A 
ATOM     24  C   UNL     1       2.207   8.506  18.146  0.00  0.00    +0.000 A 
ATOM     25  C   UNL     1       1.912   9.815  17.741  0.00  0.00    +0.000 A 
ATOM     26  C   UNL     1       1.212  10.600  18.661  0.00  0.00    +0.000 A 
ATOM     27  N   UNL     1       0.749  11.886  18.640  0.00  0.00    +0.000 N 
ATOM     28  N   UNL     1       0.104  12.206  19.775  0.00  0.00    +0.000 NA
ATOM     29  N   UNL     1       0.136  11.141  20.564  0.00  0.00    +0.000 NA
ATOM     30  C   UNL     1       0.808  10.146  19.908  0.00  0.00    +0.000 A 
ATOM     31  C   UNL     1       1.110   8.839  20.304  0.00  0.00    +0.000 A 
ATOM     32  H   UNL     1       0.825  12.584  17.912  0.00  0.00    +0.000 HD
ENDBRANCH  20  23
ENDBRANCH   1  19
BRANCH   1  33
ATOM     33  C   UNL     1       2.691   3.550  18.096  0.00  0.00    +0.000 C 
BRANCH  33  34
ATOM     34  S   UNL     1       1.285   2.600  18.781  0.00  0.00    +0.000 S 
ATOM     35  H   UNL     1       1.183   3.291  19.928  0.00  0.00    +0.000 HD
ENDBRANCH  33  34
ENDBRANCH   1  33
TORSDOF 9
ENDMDL
MODEL 4
REMARK VINA RESULT:      -7.3      3.685      4.902
REMARK  Name = 
REMARK  9 active torsions:
REMARK  status: ('A' for Active; 'I' for Inactive)
REMARK    1  A    between atoms: C_2  and  C_4
REMARK    2  A    between atoms: C_4  and  C_5
REMARK    3  A    between atoms: C_4  and  N_12
REMARK    4  A    between atoms: C_5  and  C_6
REMARK    5  A    between atoms: C_13  and  C_15
REMARK    6  A    between atoms: C_15  and  C_16
REMARK    7  A    between atoms: C_15  and  N_18
REMARK    8  A    between atoms: C_16  and  S_17
REMARK    9  A    between atoms: C_19  and  C_21
REMARK                            x       y       z     vdW  Elec       q    Type
REMARK                         _______ _______ _______ _____ _____    ______ ____
ROOT
ATOM      1  C   UNL     1       3.364   4.679  19.321  0.00  0.00    +0.000 C 
ENDROOT
BRANCH   1   3
ATOM      2  N   UNL     1       5.528   5.592  18.540  0.00  0.00    +0.000 N 
ATOM      3  C   UNL     1       4.899   4.564  19.218  0.00  0.00    +0.000 C 
ATOM      4  O   UNL     1       5.507   3.571  19.610  0.00  0.00    +0.000 OA
ATOM      5  H   UNL     1       5.013   6.463  18.490  0.00  0.00    +0.000 HD
BRANCH   2   6
ATOM      6  C   UNL     1       6.992   5.672  18.446  0.00  0.00    +0.000 C 
BRANCH   6   8
ATOM      7  N   UNL     1       8.526   7.594  18.773  0.00  0.00    +0.000 N 
ATOM      8  C   UNL     1       7.494   7.078  18.040  0.00  0.00    +0.000 C 
ATOM      9  O   UNL     1       7.112   7.674  17.037  0.00  0.00    +0.000 OA
ATOM     10  H   UNL     1       8.951   8.439  18.415  0.00  0.00    +0.000 HD
ATOM     11  H   UNL     1       9.130   6.982  19.310  0.00  0.00    +0.000 HD
ENDBRANCH   6   8
BRANCH   6  12
ATOM     12  C   UNL     1       7.595   4.579  17.537  0.00  0.00    +0.000 C 
BRANCH  12  13
ATOM     13  C   UNL     1       6.979   4.448  16.166  0.00  0.00    +0.000 A 
ATOM     14  C   UNL     1       7.603   4.963  15.025  0.00  0.00    +0.000 A 
ATOM     15  C   UNL     1       7.005   4.812  13.777  0.00  0.00    +0.000 A 
ATOM     16  C   UNL     1       5.788   4.158  13.709  0.00  0.00    +0.000 A 
ATOM     17  N   UNL     1       5.153   3.649  14.788  0.00  0.00    +0.000 NA
ATOM     18  C   UNL     1       5.769   3.789  15.980  0.00  0.00    +0.000 A 
ENDBRANCH  12  13
ENDBRANCH   6  12
ENDBRANCH   2   6
ENDBRANCH   1   3
BRANCH   1  19
ATOM     19  N   UNL     1       2.926   6.043  19.020  0.00  0.00    +0.000 N 
ATOM     20  C   UNL     1       2.137   6.749  19.901  0.00  0.00    +0.000 C 
ATOM     21  O   UNL     1       1.716   6.287  20.951  0.00  0.00    +0.000 OA
ATOM     22  H   UNL     1       3.138   6.414  18.099  0.00  0.00    +0.000 HD
BRANCH  20  23
ATOM     23  C   UNL     1       1.804   8.140  19.492  0.00  0.00    +0.000 A 
ATOM     24  C   UNL     1       2.196   8.586  18.220  0.00  0.00    +0.000 A 
ATOM     25  C   UNL     1       1.902   9.884  17.778  0.00  0.00    +0.000 A 
ATOM     26  C   UNL     1       1.190  10.690  18.670  0.00  0.00    +0.000 A 
ATOM     27  N   UNL     1       0.723  11.974  18.610  0.00  0.00    +0.000 N 
ATOM     28  N   UNL     1       0.066  12.322  19.729  0.00  0.00    +0.000 NA
ATOM     29  N   UNL     1       0.092  11.278  20.545  0.00  0.00    +0.000 NA
ATOM     30  C   UNL     1       0.773  10.268  19.924  0.00  0.00    +0.000 A 
ATOM     31  C   UNL     1       1.074   8.973  20.357  0.00  0.00    +0.000 A 
ATOM     32  H   UNL     1       0.806  12.653  17.865  0.00  0.00    +0.000 HD
ENDBRANCH  20  23
ENDBRANCH   1  19
BRANCH   1  33
ATOM     33  C   UNL     1       2.688   3.643  18.414  0.00  0.00    +0.000 C 
BRANCH  33  34
ATOM     34  S   UNL     1       1.969   2.228  19.326  0.00  0.00    +0.000 S 
ATOM     35  H   UNL     1       0.690   2.630  19.238  0.00  0.00    +0.000 HD
ENDBRANCH  33  34
ENDBRANCH   1  33
TORSDOF 9
ENDMDL
MODEL 5
REMARK VINA RESULT:      -7.3      3.674      4.903
REMARK  Name = 
REMARK  9 active torsions:
REMARK  status: ('A' for Active; 'I' for Inactive)
REMARK    1  A    between atoms: C_2  and  C_4
REMARK    2  A    between atoms: C_4  and  C_5
REMARK    3  A    between atoms: C_4  and  N_12
REMARK    4  A    between atoms: C_5  and  C_6
REMARK    5  A    between atoms: C_13  and  C_15
REMARK    6  A    between atoms: C_15  and  C_16
REMARK    7  A    between atoms: C_15  and  N_18
REMARK    8  A    between atoms: C_16  and  S_17
REMARK    9  A    between atoms: C_19  and  C_21
REMARK                            x       y       z     vdW  Elec       q    Type
REMARK                         _______ _______ _______ _____ _____    ______ ____
ROOT
ATOM      1  C   UNL     1       2.778   5.478  18.576  0.00  0.00    +0.000 C 
ENDROOT
BRANCH   1   3
ATOM      2  N   UNL     1       4.866   4.609  17.572  0.00  0.00    +0.000 N 
ATOM      3  C   UNL     1       4.065   5.720  17.761  0.00  0.00    +0.000 C 
ATOM      4  O   UNL     1       4.411   6.844  17.406  0.00  0.00    +0.000 OA
ATOM      5  H   UNL     1       4.401   3.713  17.656  0.00  0.00    +0.000 HD
BRANCH   2   6
ATOM      6  C   UNL     1       6.073   4.662  16.734  0.00  0.00    +0.000 C 
BRANCH   6   8
ATOM      7  N   UNL     1       8.272   4.158  17.767  0.00  0.00    +0.000 N 
ATOM      8  C   UNL     1       7.330   5.116  17.514  0.00  0.00    +0.000 C 
ATOM      9  O   UNL     1       7.574   6.287  17.790  0.00  0.00    +0.000 OA
ATOM     10  H   UNL     1       9.153   4.484  18.139  0.00  0.00    +0.000 HD
ATOM     11  H   UNL     1       8.308   3.314  17.207  0.00  0.00    +0.000 HD
ENDBRANCH   6   8
BRANCH   6  12
ATOM     12  C   UNL     1       5.877   5.500  15.452  0.00  0.00    +0.000 C 
BRANCH  12  13
ATOM     13  C   UNL     1       6.197   4.801  14.153  0.00  0.00    +0.000 A 
ATOM     14  C   UNL     1       5.354   3.823  13.616  0.00  0.00    +0.000 A 
ATOM     15  C   UNL     1       5.682   3.210  12.408  0.00  0.00    +0.000 A 
ATOM     16  C   UNL     1       6.855   3.588  11.780  0.00  0.00    +0.000 A 
ATOM     17  N   UNL     1       7.695   4.527  12.268  0.00  0.00    +0.000 NA
ATOM     18  C   UNL     1       7.338   5.121  13.427  0.00  0.00    +0.000 A 
ENDBRANCH  12  13
ENDBRANCH   6  12
ENDBRANCH   2   6
ENDBRANCH   1   3
BRANCH   1  19
ATOM     19  N   UNL     1       2.188   6.749  19.000  0.00  0.00    +0.000 N 
ATOM     20  C   UNL     1       1.794   6.952  20.304  0.00  0.00    +0.000 C 
ATOM     21  O   UNL     1       1.863   6.095  21.173  0.00  0.00    +0.000 OA
ATOM     22  H   UNL     1       1.985   7.437  18.282  0.00  0.00    +0.000 HD
BRANCH  20  23
ATOM     23  C   UNL     1       1.255   8.305  20.609  0.00  0.00    +0.000 A 
ATOM     24  C   UNL     1       1.198   9.260  19.581  0.00  0.00    +0.000 A 
ATOM     25  C   UNL     1       0.691  10.547  19.809  0.00  0.00    +0.000 A 
ATOM     26  C   UNL     1       0.238  10.810  21.104  0.00  0.00    +0.000 A 
ATOM     27  N   UNL     1      -0.311  11.910  21.703  0.00  0.00    +0.000 N 
ATOM     28  N   UNL     1      -0.609  11.681  22.994  0.00  0.00    +0.000 NA
ATOM     29  N   UNL     1      -0.257  10.433  23.268  0.00  0.00    +0.000 NA
ATOM     30  C   UNL     1       0.265   9.878  22.132  0.00  0.00    +0.000 A 
ATOM     31  C   UNL     1       0.775   8.598  21.896  0.00  0.00    +0.000 A 
ATOM     32  H   UNL     1      -0.513  12.820  21.313  0.00  0.00    +0.000 HD
ENDBRANCH  20  23
ENDBRANCH   1  19
BRANCH   1  33
ATOM     33  C   UNL     1       1.790   4.622  17.773  0.00  0.00    +0.000 C 
BRANCH  33  34
ATOM     34  S   UNL     1       1.399   3.018  18.561  0.00  0.00    +0.000 S 
ATOM     35  H   UNL     1       2.671   2.624  18.734  0.00  0.00    +0.000 HD
ENDBRANCH  33  34
ENDBRANCH   1  33
TORSDOF 9
ENDMDL
MODEL 6
REMARK VINA RESULT:      -7.3      3.433      4.698
REMARK  Name = 
REMARK  9 active torsions:
REMARK  status: ('A' for Active; 'I' for Inactive)
REMARK    1  A    between atoms: C_2  and  C_4
REMARK    2  A    between atoms: C_4  and  C_5
REMARK    3  A    between atoms: C_4  and  N_12
REMARK    4  A    between atoms: C_5  and  C_6
REMARK    5  A    between atoms: C_13  and  C_15
REMARK    6  A    between atoms: C_15  and  C_16
REMARK    7  A    between atoms: C_15  and  N_18
REMARK    8  A    between atoms: C_16  and  S_17
REMARK    9  A    between atoms: C_19  and  C_21
REMARK                            x       y       z     vdW  Elec       q    Type
REMARK                         _______ _______ _______ _____ _____    ______ ____
ROOT
ATOM      1  C   UNL     1       3.394   4.911  19.714  0.00  0.00    +0.000 C 
ENDROOT
BRANCH   1   3
ATOM      2  N   UNL     1       4.666   5.243  17.617  0.00  0.00    +0.000 N 
ATOM      3  C   UNL     1       4.458   4.422  18.709  0.00  0.00    +0.000 C 
ATOM      4  O   UNL     1       4.999   3.325  18.815  0.00  0.00    +0.000 OA
ATOM      5  H   UNL     1       4.394   6.211  17.738  0.00  0.00    +0.000 HD
BRANCH   2   6
ATOM      6  C   UNL     1       5.715   4.961  16.627  0.00  0.00    +0.000 C 
BRANCH   6   8
ATOM      7  N   UNL     1       7.851   4.361  17.738  0.00  0.00    +0.000 N 
ATOM      8  C   UNL     1       7.130   5.346  17.123  0.00  0.00    +0.000 C 
ATOM      9  O   UNL     1       7.669   6.421  16.875  0.00  0.00    +0.000 OA
ATOM     10  H   UNL     1       8.823   4.567  17.923  0.00  0.00    +0.000 HD
ATOM     11  H   UNL     1       7.622   3.386  17.585  0.00  0.00    +0.000 HD
ENDBRANCH   6   8
BRANCH   6  12
ATOM     12  C   UNL     1       5.419   5.581  15.245  0.00  0.00    +0.000 C 
BRANCH  12  13
ATOM     13  C   UNL     1       5.947   4.819  14.054  0.00  0.00    +0.000 A 
ATOM     14  C   UNL     1       5.196   3.821  13.425  0.00  0.00    +0.000 A 
ATOM     15  C   UNL     1       5.717   3.149  12.322  0.00  0.00    +0.000 A 
ATOM     16  C   UNL     1       6.986   3.488  11.889  0.00  0.00    +0.000 A 
ATOM     17  N   UNL     1       7.744   4.444  12.471  0.00  0.00    +0.000 NA
ATOM     18  C   UNL     1       7.201   5.095  13.522  0.00  0.00    +0.000 A 
ENDBRANCH  12  13
ENDBRANCH   6  12
ENDBRANCH   2   6
ENDBRANCH   1   3
BRANCH   1  19
ATOM     19  N   UNL     1       2.873   6.221  19.319  0.00  0.00    +0.000 N 
ATOM     20  C   UNL     1       2.063   6.950  20.161  0.00  0.00    +0.000 C 
ATOM     21  O   UNL     1       1.691   6.551  21.254  0.00  0.00    +0.000 OA
ATOM     22  H   UNL     1       3.045   6.529  18.367  0.00  0.00    +0.000 HD
BRANCH  20  23
ATOM     23  C   UNL     1       1.644   8.285  19.653  0.00  0.00    +0.000 A 
ATOM     24  C   UNL     1       2.030   8.670  18.360  0.00  0.00    +0.000 A 
ATOM     25  C   UNL     1       1.655   9.912  17.827  0.00  0.00    +0.000 A 
ATOM     26  C   UNL     1       0.872  10.724  18.650  0.00  0.00    +0.000 A 
ATOM     27  N   UNL     1       0.320  11.966  18.496  0.00  0.00    +0.000 N 
ATOM     28  N   UNL     1      -0.382  12.340  19.578  0.00  0.00    +0.000 NA
ATOM     29  N   UNL     1      -0.300  11.358  20.465  0.00  0.00    +0.000 NA
ATOM     30  C   UNL     1       0.461  10.359  19.924  0.00  0.00    +0.000 A 
ATOM     31  C   UNL     1       0.842   9.120  20.448  0.00  0.00    +0.000 A 
ATOM     32  H   UNL     1       0.371  12.597  17.708  0.00  0.00    +0.000 HD
ENDBRANCH  20  23
ENDBRANCH   1  19
BRANCH   1  33
ATOM     33  C   UNL     1       2.280   3.868  19.862  0.00  0.00    +0.000 C 
BRANCH  33  34
ATOM     34  S   UNL     1       1.373   3.536  18.308  0.00  0.00    +0.000 S 
ATOM     35  H   UNL     1       0.216   4.102  18.687  0.00  0.00    +0.000 HD
ENDBRANCH  33  34
ENDBRANCH   1  33
TORSDOF 9
ENDMDL
MODEL 7
REMARK VINA RESULT:      -7.2      3.737      5.244
REMARK  Name = 
REMARK  9 active torsions:
REMARK  status: ('A' for Active; 'I' for Inactive)
REMARK    1  A    between atoms: C_2  and  C_4
REMARK    2  A    between atoms: C_4  and  C_5
REMARK    3  A    between atoms: C_4  and  N_12
REMARK    4  A    between atoms: C_5  and  C_6
REMARK    5  A    between atoms: C_13  and  C_15
REMARK    6  A    between atoms: C_15  and  C_16
REMARK    7  A    between atoms: C_15  and  N_18
REMARK    8  A    between atoms: C_16  and  S_17
REMARK    9  A    between atoms: C_19  and  C_21
REMARK                            x       y       z     vdW  Elec       q    Type
REMARK                         _______ _______ _______ _____ _____    ______ ____
ROOT
ATOM      1  C   UNL     1       3.735   4.317  19.926  0.00  0.00    +0.000 C 
ENDROOT
BRANCH   1   3
ATOM      2  N   UNL     1       5.367   5.564  18.544  0.00  0.00    +0.000 N 
ATOM      3  C   UNL     1       4.629   4.402  18.671  0.00  0.00    +0.000 C 
ATOM      4  O   UNL     1       4.598   3.547  17.790  0.00  0.00    +0.000 OA
ATOM      5  H   UNL     1       5.536   6.071  19.404  0.00  0.00    +0.000 HD
BRANCH   2   6
ATOM      6  C   UNL     1       6.337   5.747  17.455  0.00  0.00    +0.000 C 
BRANCH   6   8
ATOM      7  N   UNL     1       7.670   7.798  17.047  0.00  0.00    +0.000 N 
ATOM      8  C   UNL     1       7.498   6.695  17.835  0.00  0.00    +0.000 C 
ATOM      9  O   UNL     1       8.166   6.577  18.860  0.00  0.00    +0.000 OA
ATOM     10  H   UNL     1       8.326   8.491  17.383  0.00  0.00    +0.000 HD
ATOM     11  H   UNL     1       6.907   8.145  16.476  0.00  0.00    +0.000 HD
ENDBRANCH   6   8
BRANCH   6  12
ATOM     12  C   UNL     1       5.674   6.178  16.128  0.00  0.00    +0.000 C 
BRANCH  12  13
ATOM     13  C   UNL     1       5.990   5.321  14.926  0.00  0.00    +0.000 A 
ATOM     14  C   UNL     1       7.233   5.376  14.288  0.00  0.00    +0.000 A 
ATOM     15  C   UNL     1       7.486   4.560  13.188  0.00  0.00    +0.000 A 
ATOM     16  C   UNL     1       6.478   3.722  12.749  0.00  0.00    +0.000 A 
ATOM     17  N   UNL     1       5.263   3.643  13.336  0.00  0.00    +0.000 NA
ATOM     18  C   UNL     1       5.056   4.426  14.416  0.00  0.00    +0.000 A 
ENDBRANCH  12  13
ENDBRANCH   6  12
ENDBRANCH   2   6
ENDBRANCH   1   3
BRANCH   1  19
ATOM     19  N   UNL     1       3.166   5.628  20.244  0.00  0.00    +0.000 N 
ATOM     20  C   UNL     1       2.461   6.347  19.305  0.00  0.00    +0.000 C 
ATOM     21  O   UNL     1       2.301   5.977  18.151  0.00  0.00    +0.000 OA
ATOM     22  H   UNL     1       3.393   6.034  21.147  0.00  0.00    +0.000 HD
BRANCH  20  23
ATOM     23  C   UNL     1       1.898   7.641  19.776  0.00  0.00    +0.000 A 
ATOM     24  C   UNL     1       1.649   8.654  18.837  0.00  0.00    +0.000 A 
ATOM     25  C   UNL     1       1.110   9.890  19.222  0.00  0.00    +0.000 A 
ATOM     26  C   UNL     1       0.828  10.040  20.582  0.00  0.00    +0.000 A 
ATOM     27  N   UNL     1       0.308  11.063  21.327  0.00  0.00    +0.000 N 
ATOM     28  N   UNL     1       0.203  10.734  22.626  0.00  0.00    +0.000 NA
ATOM     29  N   UNL     1       0.656   9.495  22.760  0.00  0.00    +0.000 NA
ATOM     30  C   UNL     1       1.045   9.048  21.527  0.00  0.00    +0.000 A 
ATOM     31  C   UNL     1       1.586   7.820  21.133  0.00  0.00    +0.000 A 
ATOM     32  H   UNL     1       0.006  11.982  21.034  0.00  0.00    +0.000 HD
ENDBRANCH  20  23
ENDBRANCH   1  19
BRANCH   1  33
ATOM     33  C   UNL     1       2.652   3.247  19.740  0.00  0.00    +0.000 C 
BRANCH  33  34
ATOM     34  S   UNL     1       1.534   3.077  21.178  0.00  0.00    +0.000 S 
ATOM     35  H   UNL     1       1.024   4.318  21.117  0.00  0.00    +0.000 HD
ENDBRANCH  33  34
ENDBRANCH   1  33
TORSDOF 9
ENDMDL
MODEL 8
REMARK VINA RESULT:      -7.2      3.720      5.051
REMARK  Name = 
REMARK  9 active torsions:
REMARK  status: ('A' for Active; 'I' for Inactive)
REMARK    1  A    between atoms: C_2  and  C_4
REMARK    2  A    between atoms: C_4  and  C_5
REMARK    3  A    between atoms: C_4  and  N_12
REMARK    4  A    between atoms: C_5  and  C_6
REMARK    5  A    between atoms: C_13  and  C_15
REMARK    6  A    between atoms: C_15  and  C_16
REMARK    7  A    between atoms: C_15  and  N_18
REMARK    8  A    between atoms: C_16  and  S_17
REMARK    9  A    between atoms: C_19  and  C_21
REMARK                            x       y       z     vdW  Elec       q    Type
REMARK                         _______ _______ _______ _____ _____    ______ ____
ROOT
ATOM      1  C   UNL     1       3.054   4.208  18.875  0.00  0.00    +0.000 C 
ENDROOT
BRANCH   1   3
ATOM      2  N   UNL     1       4.939   4.649  17.332  0.00  0.00    +0.000 N 
ATOM      3  C   UNL     1       4.531   3.997  18.481  0.00  0.00    +0.000 C 
ATOM      4  O   UNL     1       5.260   3.212  19.082  0.00  0.00    +0.000 OA
ATOM      5  H   UNL     1       4.383   5.452  17.063  0.00  0.00    +0.000 HD
BRANCH   2   6
ATOM      6  C   UNL     1       6.339   4.624  16.886  0.00  0.00    +0.000 C 
BRANCH   6   8
ATOM      7  N   UNL     1       6.994   5.905  18.906  0.00  0.00    +0.000 N 
ATOM      8  C   UNL     1       7.341   4.918  18.028  0.00  0.00    +0.000 C 
ATOM      9  O   UNL     1       8.337   4.235  18.253  0.00  0.00    +0.000 OA
ATOM     10  H   UNL     1       7.571   5.993  19.732  0.00  0.00    +0.000 HD
ATOM     11  H   UNL     1       6.025   6.187  19.005  0.00  0.00    +0.000 HD
ENDBRANCH   6   8
BRANCH   6  12
ATOM     12  C   UNL     1       6.597   5.536  15.667  0.00  0.00    +0.000 C 
BRANCH  12  13
ATOM     13  C   UNL     1       6.600   4.852  14.322  0.00  0.00    +0.000 A 
ATOM     14  C   UNL     1       5.610   3.932  13.959  0.00  0.00    +0.000 A 
ATOM     15  C   UNL     1       5.646   3.332  12.703  0.00  0.00    +0.000 A 
ATOM     16  C   UNL     1       6.683   3.660  11.850  0.00  0.00    +0.000 A 
ATOM     17  N   UNL     1       7.659   4.541  12.164  0.00  0.00    +0.000 NA
ATOM     18  C   UNL     1       7.584   5.126  13.378  0.00  0.00    +0.000 A 
ENDBRANCH  12  13
ENDBRANCH   6  12
ENDBRANCH   2   6
ENDBRANCH   1   3
BRANCH   1  19
ATOM     19  N   UNL     1       2.656   5.601  18.663  0.00  0.00    +0.000 N 
ATOM     20  C   UNL     1       2.252   6.395  19.713  0.00  0.00    +0.000 C 
ATOM     21  O   UNL     1       2.153   5.995  20.864  0.00  0.00    +0.000 OA
ATOM     22  H   UNL     1       2.591   5.932  17.705  0.00  0.00    +0.000 HD
BRANCH  20  23
ATOM     23  C   UNL     1       1.921   7.802  19.364  0.00  0.00    +0.000 A 
ATOM     24  C   UNL     1       2.261   8.283  18.089  0.00  0.00    +0.000 A 
ATOM     25  C   UNL     1       1.965   9.598  17.703  0.00  0.00    +0.000 A 
ATOM     26  C   UNL     1       1.306  10.385  18.651  0.00  0.00    +0.000 A 
ATOM     27  N   UNL     1       0.856  11.676  18.653  0.00  0.00    +0.000 N 
ATOM     28  N   UNL     1       0.256  11.996  19.811  0.00  0.00    +0.000 NA
ATOM     29  N   UNL     1       0.304  10.926  20.593  0.00  0.00    +0.000 NA
ATOM     30  C   UNL     1       0.941   9.929  19.909  0.00  0.00    +0.000 A 
ATOM     31  C   UNL     1       1.243   8.616  20.287  0.00  0.00    +0.000 A 
ATOM     32  H   UNL     1       0.915  12.377  17.927  0.00  0.00    +0.000 HD
ENDBRANCH  20  23
ENDBRANCH   1  19
BRANCH   1  33
ATOM     33  C   UNL     1       2.153   3.228  18.114  0.00  0.00    +0.000 C 
BRANCH  33  34
ATOM     34  S   UNL     1       0.857   2.462  19.155  0.00  0.00    +0.000 S 
ATOM     35  H   UNL     1       1.627   2.279  20.240  0.00  0.00    +0.000 HD
ENDBRANCH  33  34
ENDBRANCH   1  33
TORSDOF 9
ENDMDL
MODEL 9
REMARK VINA RESULT:      -7.2      3.589      4.782
REMARK  Name = 
REMARK  9 active torsions:
REMARK  status: ('A' for Active; 'I' for Inactive)
REMARK    1  A    between atoms: C_2  and  C_4
REMARK    2  A    between atoms: C_4  and  C_5
REMARK    3  A    between atoms: C_4  and  N_12
REMARK    4  A    between atoms: C_5  and  C_6
REMARK    5  A    between atoms: C_13  and  C_15
REMARK    6  A    between atoms: C_15  and  C_16
REMARK    7  A    between atoms: C_15  and  N_18
REMARK    8  A    between atoms: C_16  and  S_17
REMARK    9  A    between atoms: C_19  and  C_21
REMARK                            x       y       z     vdW  Elec       q    Type
REMARK                         _______ _______ _______ _____ _____    ______ ____
ROOT
ATOM      1  C   UNL     1       3.388   4.940  19.910  0.00  0.00    +0.000 C 
ENDROOT
BRANCH   1   3
ATOM      2  N   UNL     1       5.313   5.554  18.481  0.00  0.00    +0.000 N 
ATOM      3  C   UNL     1       4.761   4.587  19.300  0.00  0.00    +0.000 C 
ATOM      4  O   UNL     1       5.271   3.479  19.441  0.00  0.00    +0.000 OA
ATOM      5  H   UNL     1       4.977   6.498  18.629  0.00  0.00    +0.000 HD
BRANCH   2   6
ATOM      6  C   UNL     1       6.659   5.403  17.909  0.00  0.00    +0.000 C 
BRANCH   6   8
ATOM      7  N   UNL     1       8.153   7.135  18.869  0.00  0.00    +0.000 N 
ATOM      8  C   UNL     1       7.781   5.821  18.889  0.00  0.00    +0.000 C 
ATOM      9  O   UNL     1       8.243   5.078  19.751  0.00  0.00    +0.000 OA
ATOM     10  H   UNL     1       8.773   7.437  19.608  0.00  0.00    +0.000 HD
ATOM     11  H   UNL     1       7.527   7.840  18.495  0.00  0.00    +0.000 HD
ENDBRANCH   6   8
BRANCH   6  12
ATOM     12  C   UNL     1       6.814   6.113  16.546  0.00  0.00    +0.000 C 
BRANCH  12  13
ATOM     13  C   UNL     1       6.552   5.263  15.327  0.00  0.00    +0.000 A 
ATOM     14  C   UNL     1       7.481   5.160  14.287  0.00  0.00    +0.000 A 
ATOM     15  C   UNL     1       7.205   4.355  13.185  0.00  0.00    +0.000 A 
ATOM     16  C   UNL     1       5.995   3.686  13.150  0.00  0.00    +0.000 A 
ATOM     17  N   UNL     1       5.070   3.762  14.133  0.00  0.00    +0.000 NA
ATOM     18  C   UNL     1       5.378   4.529  15.201  0.00  0.00    +0.000 A 
ENDBRANCH  12  13
ENDBRANCH   6  12
ENDBRANCH   2   6
ENDBRANCH   1   3
BRANCH   1  19
ATOM     19  N   UNL     1       2.950   6.265  19.466  0.00  0.00    +0.000 N 
ATOM     20  C   UNL     1       2.019   6.985  20.181  0.00  0.00    +0.000 C 
ATOM     21  O   UNL     1       1.468   6.565  21.188  0.00  0.00    +0.000 OA
ATOM     22  H   UNL     1       3.278   6.591  18.562  0.00  0.00    +0.000 HD
BRANCH  20  23
ATOM     23  C   UNL     1       1.699   8.334  19.643  0.00  0.00    +0.000 A 
ATOM     24  C   UNL     1       2.168   8.685  18.367  0.00  0.00    +0.000 A 
ATOM     25  C   UNL     1       1.890   9.939  17.806  0.00  0.00    +0.000 A 
ATOM     26  C   UNL     1       1.114  10.802  18.584  0.00  0.00    +0.000 A 
ATOM     27  N   UNL     1       0.640  12.071  18.394  0.00  0.00    +0.000 N 
ATOM     28  N   UNL     1      -0.091  12.495  19.438  0.00  0.00    +0.000 NA
ATOM     29  N   UNL     1      -0.107  11.519  20.335  0.00  0.00    +0.000 NA
ATOM     30  C   UNL     1       0.622  10.474  19.839  0.00  0.00    +0.000 A 
ATOM     31  C   UNL     1       0.907   9.221  20.391  0.00  0.00    +0.000 A 
ATOM     32  H   UNL     1       0.764  12.690  17.605  0.00  0.00    +0.000 HD
ENDBRANCH  20  23
ENDBRANCH   1  19
BRANCH   1  33
ATOM     33  C   UNL     1       2.360   3.851  19.579  0.00  0.00    +0.000 C 
BRANCH  33  34
ATOM     34  S   UNL     1       1.876   3.811  17.814  0.00  0.00    +0.000 S 
ATOM     35  H   UNL     1       2.864   2.997  17.408  0.00  0.00    +0.000 HD
ENDBRANCH  33  34
ENDBRANCH   1  33
TORSDOF 9
ENDMDL
