MODEL 1
REMARK VINA RESULT:      -7.6      0.000      0.000
REMARK  Name = 
REMARK  6 active torsions:
REMARK  status: ('A' for Active; 'I' for Inactive)
REMARK    1  A    between atoms: C_1  and  O_2
REMARK    2  A    between atoms: O_2  and  C_3
REMARK    3  A    between atoms: C_7  and  C_8
REMARK    4  A    between atoms: C_8  and  C_10
REMARK    5  A    between atoms: N_13  and  C_14
REMARK    6  A    between atoms: C_21  and  N_22
REMARK                            x       y       z     vdW  Elec       q    Type
REMARK                         _______ _______ _______ _____ _____    ______ ____
ROOT
ATOM      1  C   UNL     1       1.133   9.359  19.705  0.00  0.00    +0.000 A 
ATOM      2  S   UNL     1       1.065   8.405  21.138  0.00  0.00    +0.000 S 
ATOM      3  C   UNL     1       1.864   7.113  20.322  0.00  0.00    +0.000 A 
ATOM      4  N   UNL     1       2.099   5.942  20.957  0.00  0.00    +0.000 N 
ATOM      5  N   UNL     1       2.234   7.397  19.094  0.00  0.00    +0.000 NA
ATOM      6  C   UNL     1       1.883   8.673  18.773  0.00  0.00    +0.000 A 
ATOM      7  H   UNL     1       1.944   5.900  21.957  0.00  0.00    +0.000 HD
ENDROOT
BRANCH   4   8
ATOM      8  C   UNL     1       2.155   4.675  20.344  0.00  0.00    +0.000 A 
ATOM      9  C   UNL     1       0.969   3.945  20.185  0.00  0.00    +0.000 A 
ATOM     10  C   UNL     1       0.980   2.670  19.611  0.00  0.00    +0.000 A 
ATOM     11  C   UNL     1       2.179   2.113  19.172  0.00  0.00    +0.000 A 
ATOM     12  C   UNL     1       3.367   2.821  19.325  0.00  0.00    +0.000 A 
ATOM     13  C   UNL     1       3.355   4.085  19.922  0.00  0.00    +0.000 A 
ENDBRANCH   4   8
BRANCH   6  14
ATOM     14  N   UNL     1       2.295   9.100  17.569  0.00  0.00    +0.000 N 
ATOM     15  H   UNL     1       3.302   9.159  17.441  0.00  0.00    +0.000 HD
ATOM     16  H   UNL     1       1.790   9.805  17.043  0.00  0.00    +0.000 HD
ENDBRANCH   6  14
BRANCH   1  17
ATOM     17  C   UNL     1       0.479  10.654  19.675  0.00  0.00    +0.000 C 
ATOM     18  O   UNL     1       0.954  11.666  20.192  0.00  0.00    +0.000 OA
BRANCH  17  23
ATOM     19  C   UNL     1      -2.374  10.287  17.179  0.00  0.00    +0.000 A 
ATOM     20  C   UNL     1      -3.287  11.204  17.705  0.00  0.00    +0.000 A 
ATOM     21  C   UNL     1      -3.001  11.898  18.882  0.00  0.00    +0.000 A 
ATOM     22  C   UNL     1      -1.780  11.701  19.525  0.00  0.00    +0.000 A 
ATOM     23  C   UNL     1      -0.846  10.802  18.995  0.00  0.00    +0.000 A 
ATOM     24  C   UNL     1      -1.171  10.061  17.848  0.00  0.00    +0.000 A 
BRANCH  19  26
ATOM     25  C   UNL     1      -3.232  10.542  14.974  0.00  0.00    +0.000 C 
ATOM     26  O   UNL     1      -2.761   9.687  16.012  0.00  0.00    +0.000 OA
ENDBRANCH  19  26
ENDBRANCH  17  23
ENDBRANCH   1  17
TORSDOF 5
ENDMDL
MODEL 2
REMARK VINA RESULT:      -7.5      3.600      7.957
REMARK  Name = 
REMARK  6 active torsions:
REMARK  status: ('A' for Active; 'I' for Inactive)
REMARK    1  A    between atoms: C_1  and  O_2
REMARK    2  A    between atoms: O_2  and  C_3
REMARK    3  A    between atoms: C_7  and  C_8
REMARK    4  A    between atoms: C_8  and  C_10
REMARK    5  A    between atoms: N_13  and  C_14
REMARK    6  A    between atoms: C_21  and  N_22
REMARK                            x       y       z     vdW  Elec       q    Type
REMARK                         _______ _______ _______ _____ _____    ______ ____
ROOT
ATOM      1  C   UNL     1       2.593   7.130  19.145  0.00  0.00    +0.000 A 
ATOM      2  S   UNL     1       2.473   8.090  17.720  0.00  0.00    +0.000 S 
ATOM      3  C   UNL     1       1.283   9.080  18.481  0.00  0.00    +0.000 A 
ATOM      4  N   UNL     1       0.702  10.097  17.804  0.00  0.00    +0.000 N 
ATOM      5  N   UNL     1       1.050   8.774  19.737  0.00  0.00    +0.000 NA
ATOM      6  C   UNL     1       1.830   7.727  20.126  0.00  0.00    +0.000 A 
ATOM      7  H   UNL     1       1.094  10.361  16.909  0.00  0.00    +0.000 HD
ENDROOT
BRANCH   4   8
ATOM      8  C   UNL     1      -0.609  10.571  18.006  0.00  0.00    +0.000 A 
ATOM      9  C   UNL     1      -1.664   9.962  17.313  0.00  0.00    +0.000 A 
ATOM     10  C   UNL     1      -2.978  10.418  17.457  0.00  0.00    +0.000 A 
ATOM     11  C   UNL     1      -3.257  11.484  18.311  0.00  0.00    +0.000 A 
ATOM     12  C   UNL     1      -2.221  12.103  19.003  0.00  0.00    +0.000 A 
ATOM     13  C   UNL     1      -0.906  11.660  18.837  0.00  0.00    +0.000 A 
ENDBRANCH   4   8
BRANCH   6  14
ATOM     14  N   UNL     1       1.738   7.390  21.421  0.00  0.00    +0.000 N 
ATOM     15  H   UNL     1       1.149   7.988  21.995  0.00  0.00    +0.000 HD
ATOM     16  H   UNL     1       2.521   7.001  21.935  0.00  0.00    +0.000 HD
ENDBRANCH   6  14
BRANCH   1  17
ATOM     17  C   UNL     1       3.430   5.945  19.141  0.00  0.00    +0.000 C 
ATOM     18  O   UNL     1       3.377   5.074  20.010  0.00  0.00    +0.000 OA
BRANCH  17  23
ATOM     19  C   UNL     1       6.502   6.312  16.920  0.00  0.00    +0.000 A 
ATOM     20  C   UNL     1       6.189   5.402  15.907  0.00  0.00    +0.000 A 
ATOM     21  C   UNL     1       5.019   4.644  15.968  0.00  0.00    +0.000 A 
ATOM     22  C   UNL     1       4.135   4.815  17.032  0.00  0.00    +0.000 A 
ATOM     23  C   UNL     1       4.425   5.741  18.042  0.00  0.00    +0.000 A 
ATOM     24  C   UNL     1       5.636   6.450  18.005  0.00  0.00    +0.000 A 
BRANCH  19  26
ATOM     25  C   UNL     1       7.875   8.142  17.571  0.00  0.00    +0.000 C 
ATOM     26  O   UNL     1       7.665   7.008  16.736  0.00  0.00    +0.000 OA
ENDBRANCH  19  26
ENDBRANCH  17  23
ENDBRANCH   1  17
TORSDOF 5
ENDMDL
MODEL 3
REMARK VINA RESULT:      -7.4      3.591      7.993
REMARK  Name = 
REMARK  6 active torsions:
REMARK  status: ('A' for Active; 'I' for Inactive)
REMARK    1  A    between atoms: C_1  and  O_2
REMARK    2  A    between atoms: O_2  and  C_3
REMARK    3  A    between atoms: C_7  and  C_8
REMARK    4  A    between atoms: C_8  and  C_10
REMARK    5  A    between atoms: N_13  and  C_14
REMARK    6  A    between atoms: C_21  and  N_22
REMARK                            x       y       z     vdW  Elec       q    Type
REMARK                         _______ _______ _______ _____ _____    ______ ____
ROOT
ATOM      1  C   UNL     1       2.615   7.089  19.147  0.00  0.00    +0.000 A 
ATOM      2  S   UNL     1       2.538   8.079  17.738  0.00  0.00    +0.000 S 
ATOM      3  C   UNL     1       1.350   9.073  18.497  0.00  0.00    +0.000 A 
ATOM      4  N   UNL     1       0.799  10.113  17.829  0.00  0.00    +0.000 N 
ATOM      5  N   UNL     1       1.089   8.748  19.742  0.00  0.00    +0.000 NA
ATOM      6  C   UNL     1       1.843   7.680  20.125  0.00  0.00    +0.000 A 
ATOM      7  H   UNL     1       1.212  10.388  16.947  0.00  0.00    +0.000 HD
ENDROOT
BRANCH   4   8
ATOM      8  C   UNL     1      -0.508  10.605  18.016  0.00  0.00    +0.000 A 
ATOM      9  C   UNL     1      -0.704  11.704  18.863  0.00  0.00    +0.000 A 
ATOM     10  C   UNL     1      -1.987  12.207  19.104  0.00  0.00    +0.000 A 
ATOM     11  C   UNL     1      -3.092  11.625  18.486  0.00  0.00    +0.000 A 
ATOM     12  C   UNL     1      -2.916  10.531  17.645  0.00  0.00    +0.000 A 
ATOM     13  C   UNL     1      -1.635  10.015  17.427  0.00  0.00    +0.000 A 
ENDBRANCH   4   8
BRANCH   6  14
ATOM     14  N   UNL     1       1.722   7.319  21.411  0.00  0.00    +0.000 N 
ATOM     15  H   UNL     1       2.594   7.175  21.916  0.00  0.00    +0.000 HD
ATOM     16  H   UNL     1       0.977   6.712  21.735  0.00  0.00    +0.000 HD
ENDBRANCH   6  14
BRANCH   1  17
ATOM     17  C   UNL     1       3.432   5.890  19.135  0.00  0.00    +0.000 C 
ATOM     18  O   UNL     1       3.361   5.012  19.995  0.00  0.00    +0.000 OA
BRANCH  17  23
ATOM     19  C   UNL     1       6.479   6.281  16.884  0.00  0.00    +0.000 A 
ATOM     20  C   UNL     1       6.193   5.324  15.907  0.00  0.00    +0.000 A 
ATOM     21  C   UNL     1       5.050   4.529  16.002  0.00  0.00    +0.000 A 
ATOM     22  C   UNL     1       4.166   4.709  17.064  0.00  0.00    +0.000 A 
ATOM     23  C   UNL     1       4.428   5.681  18.038  0.00  0.00    +0.000 A 
ATOM     24  C   UNL     1       5.614   6.429  17.967  0.00  0.00    +0.000 A 
BRANCH  19  26
ATOM     25  C   UNL     1       7.888   8.066  17.582  0.00  0.00    +0.000 C 
ATOM     26  O   UNL     1       7.616   7.009  16.667  0.00  0.00    +0.000 OA
ENDBRANCH  19  26
ENDBRANCH  17  23
ENDBRANCH   1  17
TORSDOF 5
ENDMDL
MODEL 4
REMARK VINA RESULT:      -7.4      3.793      8.150
REMARK  Name = 
REMARK  6 active torsions:
REMARK  status: ('A' for Active; 'I' for Inactive)
REMARK    1  A    between atoms: C_1  and  O_2
REMARK    2  A    between atoms: O_2  and  C_3
REMARK    3  A    between atoms: C_7  and  C_8
REMARK    4  A    between atoms: C_8  and  C_10
REMARK    5  A    between atoms: N_13  and  C_14
REMARK    6  A    between atoms: C_21  and  N_22
REMARK                            x       y       z     vdW  Elec       q    Type
REMARK                         _______ _______ _______ _____ _____    ______ ____
ROOT
ATOM      1  C   UNL     1       2.837   6.411  18.609  0.00  0.00    +0.000 A 
ATOM      2  S   UNL     1       2.837   7.685  17.448  0.00  0.00    +0.000 S 
ATOM      3  C   UNL     1       1.878   8.653  18.505  0.00  0.00    +0.000 A 
ATOM      4  N   UNL     1       1.464   9.883  18.121  0.00  0.00    +0.000 N 
ATOM      5  N   UNL     1       1.644   8.106  19.676  0.00  0.00    +0.000 NA
ATOM      6  C   UNL     1       2.234   6.882  19.757  0.00  0.00    +0.000 A 
ATOM      7  H   UNL     1       1.861  10.280  17.279  0.00  0.00    +0.000 HD
ENDROOT
BRANCH   4   8
ATOM      8  C   UNL     1       0.270  10.509  18.529  0.00  0.00    +0.000 A 
ATOM      9  C   UNL     1      -0.926  10.176  17.879  0.00  0.00    +0.000 A 
ATOM     10  C   UNL     1      -2.131  10.795  18.228  0.00  0.00    +0.000 A 
ATOM     11  C   UNL     1      -2.158  11.747  19.245  0.00  0.00    +0.000 A 
ATOM     12  C   UNL     1      -0.979  12.093  19.898  0.00  0.00    +0.000 A 
ATOM     13  C   UNL     1       0.227  11.490  19.529  0.00  0.00    +0.000 A 
ENDBRANCH   4   8
BRANCH   6  14
ATOM     14  N   UNL     1       2.135   6.271  20.947  0.00  0.00    +0.000 N 
ATOM     15  H   UNL     1       1.238   6.358  21.418  0.00  0.00    +0.000 HD
ATOM     16  H   UNL     1       2.914   6.218  21.595  0.00  0.00    +0.000 HD
ENDBRANCH   6  14
BRANCH   1  17
ATOM     17  C   UNL     1       3.444   5.137  18.274  0.00  0.00    +0.000 C 
ATOM     18  O   UNL     1       3.018   4.054  18.678  0.00  0.00    +0.000 OA
BRANCH  17  23
ATOM     19  C   UNL     1       6.767   6.037  16.645  0.00  0.00    +0.000 A 
ATOM     20  C   UNL     1       6.840   5.048  15.661  0.00  0.00    +0.000 A 
ATOM     21  C   UNL     1       5.847   4.073  15.557  0.00  0.00    +0.000 A 
ATOM     22  C   UNL     1       4.754   4.099  16.421  0.00  0.00    +0.000 A 
ATOM     23  C   UNL     1       4.657   5.099  17.397  0.00  0.00    +0.000 A 
ATOM     24  C   UNL     1       5.694   6.035  17.535  0.00  0.00    +0.000 A 
BRANCH  19  26
ATOM     25  C   UNL     1       7.761   7.962  17.627  0.00  0.00    +0.000 C 
ATOM     26  O   UNL     1       7.789   6.945  16.630  0.00  0.00    +0.000 OA
ENDBRANCH  19  26
ENDBRANCH  17  23
ENDBRANCH   1  17
TORSDOF 5
ENDMDL
MODEL 5
REMARK VINA RESULT:      -7.4      3.794      8.203
REMARK  Name = 
REMARK  6 active torsions:
REMARK  status: ('A' for Active; 'I' for Inactive)
REMARK    1  A    between atoms: C_1  and  O_2
REMARK    2  A    between atoms: O_2  and  C_3
REMARK    3  A    between atoms: C_7  and  C_8
REMARK    4  A    between atoms: C_8  and  C_10
REMARK    5  A    between atoms: N_13  and  C_14
REMARK    6  A    between atoms: C_21  and  N_22
REMARK                            x       y       z     vdW  Elec       q    Type
REMARK                         _______ _______ _______ _____ _____    ______ ____
ROOT
ATOM      1  C   UNL     1       2.827   6.429  18.578  0.00  0.00    +0.000 A 
ATOM      2  S   UNL     1       2.847   7.700  17.415  0.00  0.00    +0.000 S 
ATOM      3  C   UNL     1       1.919   8.693  18.477  0.00  0.00    +0.000 A 
ATOM      4  N   UNL     1       1.532   9.931  18.094  0.00  0.00    +0.000 N 
ATOM      5  N   UNL     1       1.682   8.153  19.651  0.00  0.00    +0.000 NA
ATOM      6  C   UNL     1       2.244   6.915  19.729  0.00  0.00    +0.000 A 
ATOM      7  H   UNL     1       1.932  10.318  17.248  0.00  0.00    +0.000 HD
ENDROOT
BRANCH   4   8
ATOM      8  C   UNL     1       0.356  10.586  18.509  0.00  0.00    +0.000 A 
ATOM      9  C   UNL     1       0.451  11.614  19.456  0.00  0.00    +0.000 A 
ATOM     10  C   UNL     1      -0.693  12.271  19.922  0.00  0.00    +0.000 A 
ATOM     11  C   UNL     1      -1.949  11.917  19.434  0.00  0.00    +0.000 A 
ATOM     12  C   UNL     1      -2.062  10.895  18.496  0.00  0.00    +0.000 A 
ATOM     13  C   UNL     1      -0.919  10.225  18.052  0.00  0.00    +0.000 A 
ENDBRANCH   4   8
BRANCH   6  14
ATOM     14  N   UNL     1       2.140   6.309  20.921  0.00  0.00    +0.000 N 
ATOM     15  H   UNL     1       1.733   5.377  20.911  0.00  0.00    +0.000 HD
ATOM     16  H   UNL     1       1.929   6.820  21.772  0.00  0.00    +0.000 HD
ENDBRANCH   6  14
BRANCH   1  17
ATOM     17  C   UNL     1       3.401   5.140  18.240  0.00  0.00    +0.000 C 
ATOM     18  O   UNL     1       2.935   4.067  18.624  0.00  0.00    +0.000 OA
BRANCH  17  23
ATOM     19  C   UNL     1       6.748   5.993  16.635  0.00  0.00    +0.000 A 
ATOM     20  C   UNL     1       6.842   4.966  15.692  0.00  0.00    +0.000 A 
ATOM     21  C   UNL     1       5.856   3.983  15.609  0.00  0.00    +0.000 A 
ATOM     22  C   UNL     1       4.748   4.038  16.453  0.00  0.00    +0.000 A 
ATOM     23  C   UNL     1       4.629   5.075  17.387  0.00  0.00    +0.000 A 
ATOM     24  C   UNL     1       5.660   6.021  17.506  0.00  0.00    +0.000 A 
BRANCH  19  26
ATOM     25  C   UNL     1       7.788   7.882  17.638  0.00  0.00    +0.000 C 
ATOM     26  O   UNL     1       7.766   6.906  16.602  0.00  0.00    +0.000 OA
ENDBRANCH  19  26
ENDBRANCH  17  23
ENDBRANCH   1  17
TORSDOF 5
ENDMDL
MODEL 6
REMARK VINA RESULT:      -7.3      3.796      8.187
REMARK  Name = 
REMARK  6 active torsions:
REMARK  status: ('A' for Active; 'I' for Inactive)
REMARK    1  A    between atoms: C_1  and  O_2
REMARK    2  A    between atoms: O_2  and  C_3
REMARK    3  A    between atoms: C_7  and  C_8
REMARK    4  A    between atoms: C_8  and  C_10
REMARK    5  A    between atoms: N_13  and  C_14
REMARK    6  A    between atoms: C_21  and  N_22
REMARK                            x       y       z     vdW  Elec       q    Type
REMARK                         _______ _______ _______ _____ _____    ______ ____
ROOT
ATOM      1  C   UNL     1       2.642   6.994  18.616  0.00  0.00    +0.000 A 
ATOM      2  S   UNL     1       2.611   8.317  17.512  0.00  0.00    +0.000 S 
ATOM      3  C   UNL     1       1.636   9.218  18.614  0.00  0.00    +0.000 A 
ATOM      4  N   UNL     1       1.196  10.455  18.286  0.00  0.00    +0.000 N 
ATOM      5  N   UNL     1       1.418   8.615  19.760  0.00  0.00    +0.000 NA
ATOM      6  C   UNL     1       2.035   7.400  19.785  0.00  0.00    +0.000 A 
ATOM      7  H   UNL     1       1.581  10.897  17.461  0.00  0.00    +0.000 HD
ENDROOT
BRANCH   4   8
ATOM      8  C   UNL     1      -0.009  11.037  18.725  0.00  0.00    +0.000 A 
ATOM      9  C   UNL     1      -1.215  10.615  18.150  0.00  0.00    +0.000 A 
ATOM     10  C   UNL     1      -2.433  11.187  18.531  0.00  0.00    +0.000 A 
ATOM     11  C   UNL     1      -2.463  12.181  19.507  0.00  0.00    +0.000 A 
ATOM     12  C   UNL     1      -1.275  12.615  20.087  0.00  0.00    +0.000 A 
ATOM     13  C   UNL     1      -0.057  12.058  19.685  0.00  0.00    +0.000 A 
ENDBRANCH   4   8
BRANCH   6  14
ATOM     14  N   UNL     1       1.954   6.735  20.947  0.00  0.00    +0.000 N 
ATOM     15  H   UNL     1       1.518   7.239  21.717  0.00  0.00    +0.000 HD
ATOM     16  H   UNL     1       2.678   6.096  21.257  0.00  0.00    +0.000 HD
ENDBRANCH   6  14
BRANCH   1  17
ATOM     17  C   UNL     1       3.274   5.749  18.222  0.00  0.00    +0.000 C 
ATOM     18  O   UNL     1       2.649   4.712  17.996  0.00  0.00    +0.000 OA
BRANCH  17  23
ATOM     19  C   UNL     1       6.765   5.580  16.708  0.00  0.00    +0.000 A 
ATOM     20  C   UNL     1       7.534   5.443  17.867  0.00  0.00    +0.000 A 
ATOM     21  C   UNL     1       6.932   5.453  19.126  0.00  0.00    +0.000 A 
ATOM     22  C   UNL     1       5.547   5.569  19.233  0.00  0.00    +0.000 A 
ATOM     23  C   UNL     1       4.762   5.683  18.079  0.00  0.00    +0.000 A 
ATOM     24  C   UNL     1       5.384   5.739  16.821  0.00  0.00    +0.000 A 
BRANCH  19  26
ATOM     25  C   UNL     1       6.869   4.832  14.452  0.00  0.00    +0.000 C 
ATOM     26  O   UNL     1       7.469   5.535  15.537  0.00  0.00    +0.000 OA
ENDBRANCH  19  26
ENDBRANCH  17  23
ENDBRANCH   1  17
TORSDOF 5
ENDMDL
MODEL 7
REMARK VINA RESULT:      -7.3      3.775      8.218
REMARK  Name = 
REMARK  6 active torsions:
REMARK  status: ('A' for Active; 'I' for Inactive)
REMARK    1  A    between atoms: C_1  and  O_2
REMARK    2  A    between atoms: O_2  and  C_3
REMARK    3  A    between atoms: C_7  and  C_8
REMARK    4  A    between atoms: C_8  and  C_10
REMARK    5  A    between atoms: N_13  and  C_14
REMARK    6  A    between atoms: C_21  and  N_22
REMARK                            x       y       z     vdW  Elec       q    Type
REMARK                         _______ _______ _______ _____ _____    ______ ____
ROOT
ATOM      1  C   UNL     1       2.632   7.008  18.655  0.00  0.00    +0.000 A 
ATOM      2  S   UNL     1       2.603   8.312  17.528  0.00  0.00    +0.000 S 
ATOM      3  C   UNL     1       1.633   9.235  18.615  0.00  0.00    +0.000 A 
ATOM      4  N   UNL     1       1.196  10.467  18.266  0.00  0.00    +0.000 N 
ATOM      5  N   UNL     1       1.414   8.652  19.772  0.00  0.00    +0.000 NA
ATOM      6  C   UNL     1       2.027   7.437  19.817  0.00  0.00    +0.000 A 
ATOM      7  H   UNL     1       1.582  10.894  17.433  0.00  0.00    +0.000 HD
ENDROOT
BRANCH   4   8
ATOM      8  C   UNL     1      -0.007  11.061  18.695  0.00  0.00    +0.000 A 
ATOM      9  C   UNL     1       0.043  12.063  19.674  0.00  0.00    +0.000 A 
ATOM     10  C   UNL     1      -1.127  12.658  20.154  0.00  0.00    +0.000 A 
ATOM     11  C   UNL     1      -2.366  12.270  19.649  0.00  0.00    +0.000 A 
ATOM     12  C   UNL     1      -2.435  11.274  18.680  0.00  0.00    +0.000 A 
ATOM     13  C   UNL     1      -1.265  10.664  18.221  0.00  0.00    +0.000 A 
ENDBRANCH   4   8
BRANCH   6  14
ATOM     14  N   UNL     1       1.944   6.793  20.991  0.00  0.00    +0.000 N 
ATOM     15  H   UNL     1       2.504   7.177  21.748  0.00  0.00    +0.000 HD
ATOM     16  H   UNL     1       1.845   5.785  21.049  0.00  0.00    +0.000 HD
ENDBRANCH   6  14
BRANCH   1  17
ATOM     17  C   UNL     1       3.259   5.754  18.282  0.00  0.00    +0.000 C 
ATOM     18  O   UNL     1       2.632   4.712  18.089  0.00  0.00    +0.000 OA
BRANCH  17  23
ATOM     19  C   UNL     1       6.734   5.631  16.728  0.00  0.00    +0.000 A 
ATOM     20  C   UNL     1       7.513   5.437  17.872  0.00  0.00    +0.000 A 
ATOM     21  C   UNL     1       6.923   5.395  19.136  0.00  0.00    +0.000 A 
ATOM     22  C   UNL     1       5.540   5.515  19.262  0.00  0.00    +0.000 A 
ATOM     23  C   UNL     1       4.745   5.685  18.122  0.00  0.00    +0.000 A 
ATOM     24  C   UNL     1       5.355   5.793  16.862  0.00  0.00    +0.000 A 
BRANCH  19  26
ATOM     25  C   UNL     1       6.929   4.795  14.509  0.00  0.00    +0.000 C 
ATOM     26  O   UNL     1       7.426   5.633  15.549  0.00  0.00    +0.000 OA
ENDBRANCH  19  26
ENDBRANCH  17  23
ENDBRANCH   1  17
TORSDOF 5
ENDMDL
MODEL 8
REMARK VINA RESULT:      -7.3      4.067      8.243
REMARK  Name = 
REMARK  6 active torsions:
REMARK  status: ('A' for Active; 'I' for Inactive)
REMARK    1  A    between atoms: C_1  and  O_2
REMARK    2  A    between atoms: O_2  and  C_3
REMARK    3  A    between atoms: C_7  and  C_8
REMARK    4  A    between atoms: C_8  and  C_10
REMARK    5  A    between atoms: N_13  and  C_14
REMARK    6  A    between atoms: C_21  and  N_22
REMARK                            x       y       z     vdW  Elec       q    Type
REMARK                         _______ _______ _______ _____ _____    ______ ____
ROOT
ATOM      1  C   UNL     1       3.125   5.876  18.819  0.00  0.00    +0.000 A 
ATOM      2  S   UNL     1       3.266   7.170  17.690  0.00  0.00    +0.000 S 
ATOM      3  C   UNL     1       2.236   8.144  18.672  0.00  0.00    +0.000 A 
ATOM      4  N   UNL     1       1.891   9.392  18.277  0.00  0.00    +0.000 N 
ATOM      5  N   UNL     1       1.879   7.582  19.804  0.00  0.00    +0.000 NA
ATOM      6  C   UNL     1       2.429   6.341  19.914  0.00  0.00    +0.000 A 
ATOM      7  H   UNL     1       2.376   9.794  17.484  0.00  0.00    +0.000 HD
ENDROOT
BRANCH   4   8
ATOM      8  C   UNL     1       0.680  10.042  18.584  0.00  0.00    +0.000 A 
ATOM      9  C   UNL     1      -0.447   9.787  17.791  0.00  0.00    +0.000 A 
ATOM     10  C   UNL     1      -1.662  10.433  18.038  0.00  0.00    +0.000 A 
ATOM     11  C   UNL     1      -1.772  11.334  19.095  0.00  0.00    +0.000 A 
ATOM     12  C   UNL     1      -0.662  11.603  19.891  0.00  0.00    +0.000 A 
ATOM     13  C   UNL     1       0.557  10.974  19.625  0.00  0.00    +0.000 A 
ENDBRANCH   4   8
BRANCH   6  14
ATOM     14  N   UNL     1       2.203   5.711  21.077  0.00  0.00    +0.000 N 
ATOM     15  H   UNL     1       1.663   4.850  21.018  0.00  0.00    +0.000 HD
ATOM     16  H   UNL     1       2.045   6.214  21.944  0.00  0.00    +0.000 HD
ENDBRANCH   6  14
BRANCH   1  17
ATOM     17  C   UNL     1       3.729   4.592  18.515  0.00  0.00    +0.000 C 
ATOM     18  O   UNL     1       3.297   3.521  18.941  0.00  0.00    +0.000 OA
BRANCH  17  23
ATOM     19  C   UNL     1       6.018   4.063  15.517  0.00  0.00    +0.000 A 
ATOM     20  C   UNL     1       7.260   4.322  16.101  0.00  0.00    +0.000 A 
ATOM     21  C   UNL     1       7.350   4.709  17.439  0.00  0.00    +0.000 A 
ATOM     22  C   UNL     1       6.195   4.811  18.212  0.00  0.00    +0.000 A 
ATOM     23  C   UNL     1       4.946   4.531  17.645  0.00  0.00    +0.000 A 
ATOM     24  C   UNL     1       4.861   4.206  16.282  0.00  0.00    +0.000 A 
BRANCH  19  26
ATOM     25  C   UNL     1       6.937   4.398  13.348  0.00  0.00    +0.000 C 
ATOM     26  O   UNL     1       6.063   3.672  14.207  0.00  0.00    +0.000 OA
ENDBRANCH  19  26
ENDBRANCH  17  23
ENDBRANCH   1  17
TORSDOF 5
ENDMDL
MODEL 9
REMARK VINA RESULT:      -7.3      4.070      8.261
REMARK  Name = 
REMARK  6 active torsions:
REMARK  status: ('A' for Active; 'I' for Inactive)
REMARK    1  A    between atoms: C_1  and  O_2
REMARK    2  A    between atoms: O_2  and  C_3
REMARK    3  A    between atoms: C_7  and  C_8
REMARK    4  A    between atoms: C_8  and  C_10
REMARK    5  A    between atoms: N_13  and  C_14
REMARK    6  A    between atoms: C_21  and  N_22
REMARK                            x       y       z     vdW  Elec       q    Type
REMARK                         _______ _______ _______ _____ _____    ______ ____
ROOT
ATOM      1  C   UNL     1       3.102   5.959  18.763  0.00  0.00    +0.000 A 
ATOM      2  S   UNL     1       3.257   7.243  17.624  0.00  0.00    +0.000 S 
ATOM      3  C   UNL     1       2.209   8.223  18.580  0.00  0.00    +0.000 A 
ATOM      4  N   UNL     1       1.867   9.466  18.168  0.00  0.00    +0.000 N 
ATOM      5  N   UNL     1       1.835   7.670  19.712  0.00  0.00    +0.000 NA
ATOM      6  C   UNL     1       2.387   6.432  19.843  0.00  0.00    +0.000 A 
ATOM      7  H   UNL     1       2.363   9.862  17.379  0.00  0.00    +0.000 HD
ENDROOT
BRANCH   4   8
ATOM      8  C   UNL     1       0.649  10.115  18.450  0.00  0.00    +0.000 A 
ATOM      9  C   UNL     1       0.625  11.117  19.429  0.00  0.00    +0.000 A 
ATOM     10  C   UNL     1      -0.566  11.767  19.764  0.00  0.00    +0.000 A 
ATOM     11  C   UNL     1      -1.751  11.434  19.112  0.00  0.00    +0.000 A 
ATOM     12  C   UNL     1      -1.747  10.438  18.140  0.00  0.00    +0.000 A 
ATOM     13  C   UNL     1      -0.559   9.774  17.825  0.00  0.00    +0.000 A 
ENDBRANCH   4   8
BRANCH   6  14
ATOM     14  N   UNL     1       2.144   5.812  21.008  0.00  0.00    +0.000 N 
ATOM     15  H   UNL     1       1.492   6.281  21.633  0.00  0.00    +0.000 HD
ATOM     16  H   UNL     1       2.861   5.295  21.506  0.00  0.00    +0.000 HD
ENDBRANCH   6  14
BRANCH   1  17
ATOM     17  C   UNL     1       3.714   4.674  18.481  0.00  0.00    +0.000 C 
ATOM     18  O   UNL     1       3.293   3.608  18.931  0.00  0.00    +0.000 OA
BRANCH  17  23
ATOM     19  C   UNL     1       5.986   4.112  15.476  0.00  0.00    +0.000 A 
ATOM     20  C   UNL     1       7.231   4.382  16.050  0.00  0.00    +0.000 A 
ATOM     21  C   UNL     1       7.328   4.787  17.382  0.00  0.00    +0.000 A 
ATOM     22  C   UNL     1       6.178   4.895  18.161  0.00  0.00    +0.000 A 
ATOM     23  C   UNL     1       4.925   4.604  17.605  0.00  0.00    +0.000 A 
ATOM     24  C   UNL     1       4.833   4.262  16.247  0.00  0.00    +0.000 A 
BRANCH  19  26
ATOM     25  C   UNL     1       6.935   4.382  13.312  0.00  0.00    +0.000 C 
ATOM     26  O   UNL     1       6.024   3.704  14.171  0.00  0.00    +0.000 OA
ENDBRANCH  19  26
ENDBRANCH  17  23
ENDBRANCH   1  17
TORSDOF 5
ENDMDL
