MODEL 1
REMARK VINA RESULT:      -8.1      0.000      0.000
REMARK  Name = 
REMARK  7 active torsions:
REMARK  status: ('A' for Active; 'I' for Inactive)
REMARK    1  A    between atoms: C_1  and  O_2
REMARK    2  A    between atoms: O_2  and  C_3
REMARK    3  A    between atoms: C_6  and  C_7
REMARK    4  A    between atoms: C_10  and  C_11
REMARK    5  A    between atoms: C_14  and  C_15
REMARK    6  A    between atoms: C_17  and  C_18
REMARK    7  A    between atoms: N_31  and  C_32
REMARK                            x       y       z     vdW  Elec       q    Type
REMARK                         _______ _______ _______ _____ _____    ______ ____
ROOT
ATOM      1  C   UNL     1       0.544   9.705  20.477  0.00  0.00    +0.000 C 
ATOM      2  C   UNL     1      -0.590   9.940  19.431  0.00  0.00    +0.000 C 
ATOM      3  C   UNL     1      -1.360  11.233  19.731  0.00  0.00    +0.000 C 
ATOM      4  C   UNL     1      -0.817  11.911  21.008  0.00  0.00    +0.000 C 
ATOM      5  C   UNL     1       0.671  12.231  20.760  0.00  0.00    +0.000 C 
ATOM      6  C   UNL     1       1.450  10.959  20.398  0.00  0.00    +0.000 C 
ATOM      7  C   UNL     1      -0.924  10.900  22.169  0.00  0.00    +0.000 C 
ATOM      8  C   UNL     1      -0.150   9.617  21.857  0.00  0.00    +0.000 C 
ENDROOT
BRANCH   1  12
ATOM      9  C   UNL     1       2.519   6.838  19.228  0.00  0.00    +0.000 A 
ATOM     10  N   UNL     1       2.167   6.449  20.435  0.00  0.00    +0.000 NA
ATOM     11  N   UNL     1       1.398   7.417  21.013  0.00  0.00    +0.000 NA
ATOM     12  C   UNL     1       1.276   8.420  20.169  0.00  0.00    +0.000 A 
ATOM     13  N   UNL     1       1.981   8.101  19.025  0.00  0.00    +0.000 N 
ATOM     14  C   UNL     1       2.150   8.892  17.835  0.00  0.00    +0.000 C 
BRANCH   9  18
ATOM     15  C   UNL     1       4.956   4.619  16.456  0.00  0.00    +0.000 A 
ATOM     16  C   UNL     1       5.383   5.839  16.963  0.00  0.00    +0.000 A 
ATOM     17  C   UNL     1       4.598   6.523  17.892  0.00  0.00    +0.000 A 
ATOM     18  C   UNL     1       3.332   6.053  18.285  0.00  0.00    +0.000 A 
ATOM     19  C   UNL     1       2.911   4.819  17.759  0.00  0.00    +0.000 A 
ATOM     20 CL   UNL     1       1.384   4.098  18.144  0.00  0.00    +0.000 Cl
ATOM     21  C   UNL     1       3.721   4.112  16.856  0.00  0.00    +0.000 A 
BRANCH  15  23
ATOM     22  C   UNL     1       5.988   4.506  14.333  0.00  0.00    +0.000 C 
ATOM     23  O   UNL     1       5.651   3.859  15.557  0.00  0.00    +0.000 OA
ENDBRANCH  15  23
ENDBRANCH   9  18
ENDBRANCH   1  12
BRANCH   4  24
ATOM     24  C   UNL     1      -1.582  13.150  21.325  0.00  0.00    +0.000 A 
ATOM     25  N   UNL     1      -2.073  13.552  22.471  0.00  0.00    +0.000 NA
ATOM     26  C   UNL     1      -2.641  14.762  22.149  0.00  0.00    +0.000 A 
ATOM     27  N   UNL     1      -2.511  15.099  20.856  0.00  0.00    +0.000 NA
ATOM     28  O   UNL     1      -1.807  14.029  20.306  0.00  0.00    +0.000 OA
BRANCH  26  29
ATOM     29  C   UNL     1      -3.318  15.577  23.152  0.00  0.00    +0.000 A 
ATOM     30  C   UNL     1      -4.719  15.694  23.126  0.00  0.00    +0.000 A 
ATOM     31  C   UNL     1      -5.382  16.476  24.073  0.00  0.00    +0.000 A 
ATOM     32  C   UNL     1      -4.647  17.139  25.045  0.00  0.00    +0.000 A 
ATOM     33  F   UNL     1      -5.283  17.893  25.951  0.00  0.00    +0.000 F 
ATOM     34  C   UNL     1      -3.262  17.035  25.093  0.00  0.00    +0.000 A 
ATOM     35  C   UNL     1      -2.596  16.253  24.146  0.00  0.00    +0.000 A 
ENDBRANCH  26  29
ENDBRANCH   4  24
TORSDOF 5
ENDMDL
MODEL 2
REMARK VINA RESULT:      -8.1      0.194      1.332
REMARK  Name = 
REMARK  7 active torsions:
REMARK  status: ('A' for Active; 'I' for Inactive)
REMARK    1  A    between atoms: C_1  and  O_2
REMARK    2  A    between atoms: O_2  and  C_3
REMARK    3  A    between atoms: C_6  and  C_7
REMARK    4  A    between atoms: C_10  and  C_11
REMARK    5  A    between atoms: C_14  and  C_15
REMARK    6  A    between atoms: C_17  and  C_18
REMARK    7  A    between atoms: N_31  and  C_32
REMARK                            x       y       z     vdW  Elec       q    Type
REMARK                         _______ _______ _______ _____ _____    ______ ____
ROOT
ATOM      1  C   UNL     1       0.485   9.792  20.391  0.00  0.00    +0.000 C 
ATOM      2  C   UNL     1      -0.118   9.742  21.829  0.00  0.00    +0.000 C 
ATOM      3  C   UNL     1      -0.880  11.033  22.155  0.00  0.00    +0.000 C 
ATOM      4  C   UNL     1      -0.796  12.031  20.978  0.00  0.00    +0.000 C 
ATOM      5  C   UNL     1      -1.426  11.344  19.749  0.00  0.00    +0.000 C 
ATOM      6  C   UNL     1      -0.718  10.018  19.442  0.00  0.00    +0.000 C 
ATOM      7  C   UNL     1       0.694  12.305  20.688  0.00  0.00    +0.000 C 
ATOM      8  C   UNL     1       1.440  11.008  20.363  0.00  0.00    +0.000 C 
ENDROOT
BRANCH   1  12
ATOM      9  C   UNL     1       2.503   6.939  19.177  0.00  0.00    +0.000 A 
ATOM     10  N   UNL     1       2.187   6.577  20.402  0.00  0.00    +0.000 NA
ATOM     11  N   UNL     1       1.408   7.541  20.970  0.00  0.00    +0.000 NA
ATOM     12  C   UNL     1       1.242   8.517  20.101  0.00  0.00    +0.000 A 
ATOM     13  N   UNL     1       1.930   8.183  18.951  0.00  0.00    +0.000 N 
ATOM     14  C   UNL     1       2.053   8.944  17.737  0.00  0.00    +0.000 C 
BRANCH   9  18
ATOM     15  C   UNL     1       4.934   4.704  16.412  0.00  0.00    +0.000 A 
ATOM     16  C   UNL     1       5.338   5.950  16.871  0.00  0.00    +0.000 A 
ATOM     17  C   UNL     1       4.556   6.641  17.799  0.00  0.00    +0.000 A 
ATOM     18  C   UNL     1       3.315   6.148  18.237  0.00  0.00    +0.000 A 
ATOM     19  C   UNL     1       2.916   4.887  17.760  0.00  0.00    +0.000 A 
ATOM     20 CL   UNL     1       1.420   4.137  18.205  0.00  0.00    +0.000 Cl
ATOM     21  C   UNL     1       3.723   4.175  16.859  0.00  0.00    +0.000 A 
BRANCH  15  23
ATOM     22  C   UNL     1       6.203   4.636  14.420  0.00  0.00    +0.000 C 
ATOM     23  O   UNL     1       5.627   3.936  15.519  0.00  0.00    +0.000 OA
ENDBRANCH  15  23
ENDBRANCH   9  18
ENDBRANCH   1  12
BRANCH   4  24
ATOM     24  C   UNL     1      -1.506  13.301  21.299  0.00  0.00    +0.000 A 
ATOM     25  N   UNL     1      -2.122  13.652  22.401  0.00  0.00    +0.000 NA
ATOM     26  C   UNL     1      -2.550  14.927  22.114  0.00  0.00    +0.000 A 
ATOM     27  N   UNL     1      -2.216  15.352  20.885  0.00  0.00    +0.000 NA
ATOM     28  O   UNL     1      -1.522  14.273  20.342  0.00  0.00    +0.000 OA
BRANCH  26  29
ATOM     29  C   UNL     1      -3.300  15.716  23.086  0.00  0.00    +0.000 A 
ATOM     30  C   UNL     1      -2.678  16.130  24.277  0.00  0.00    +0.000 A 
ATOM     31  C   UNL     1      -3.383  16.878  25.221  0.00  0.00    +0.000 A 
ATOM     32  C   UNL     1      -4.708  17.212  24.976  0.00  0.00    +0.000 A 
ATOM     33  F   UNL     1      -5.386  17.925  25.884  0.00  0.00    +0.000 F 
ATOM     34  C   UNL     1      -5.342  16.817  23.805  0.00  0.00    +0.000 A 
ATOM     35  C   UNL     1      -4.639  16.068  22.858  0.00  0.00    +0.000 A 
ENDBRANCH  26  29
ENDBRANCH   4  24
TORSDOF 5
ENDMDL
MODEL 3
REMARK VINA RESULT:      -8.0      0.372      1.368
REMARK  Name = 
REMARK  7 active torsions:
REMARK  status: ('A' for Active; 'I' for Inactive)
REMARK    1  A    between atoms: C_1  and  O_2
REMARK    2  A    between atoms: O_2  and  C_3
REMARK    3  A    between atoms: C_6  and  C_7
REMARK    4  A    between atoms: C_10  and  C_11
REMARK    5  A    between atoms: C_14  and  C_15
REMARK    6  A    between atoms: C_17  and  C_18
REMARK    7  A    between atoms: N_31  and  C_32
REMARK                            x       y       z     vdW  Elec       q    Type
REMARK                         _______ _______ _______ _____ _____    ______ ____
ROOT
ATOM      1  C   UNL     1       0.375   9.913  20.643  0.00  0.00    +0.000 C 
ATOM      2  C   UNL     1       1.334  11.143  20.607  0.00  0.00    +0.000 C 
ATOM      3  C   UNL     1       0.585  12.438  20.947  0.00  0.00    +0.000 C 
ATOM      4  C   UNL     1      -0.915  12.157  21.187  0.00  0.00    +0.000 C 
ATOM      5  C   UNL     1      -1.013  11.168  22.366  0.00  0.00    +0.000 C 
ATOM      6  C   UNL     1      -0.219   9.888  22.073  0.00  0.00    +0.000 C 
ATOM      7  C   UNL     1      -1.485  11.484  19.921  0.00  0.00    +0.000 C 
ATOM      8  C   UNL     1      -0.730  10.193  19.596  0.00  0.00    +0.000 C 
ENDROOT
BRANCH   1  12
ATOM      9  C   UNL     1       2.383   7.121  19.280  0.00  0.00    +0.000 A 
ATOM     10  N   UNL     1       2.095   6.710  20.497  0.00  0.00    +0.000 NA
ATOM     11  N   UNL     1       1.322   7.648  21.118  0.00  0.00    +0.000 NA
ATOM     12  C   UNL     1       1.132   8.654  20.290  0.00  0.00    +0.000 A 
ATOM     13  N   UNL     1       1.797   8.368  19.114  0.00  0.00    +0.000 N 
ATOM     14  C   UNL     1       1.890   9.175  17.926  0.00  0.00    +0.000 C 
BRANCH   9  18
ATOM     15  C   UNL     1       4.758   5.009  16.373  0.00  0.00    +0.000 A 
ATOM     16  C   UNL     1       5.077   6.307  16.748  0.00  0.00    +0.000 A 
ATOM     17  C   UNL     1       4.320   6.960  17.722  0.00  0.00    +0.000 A 
ATOM     18  C   UNL     1       3.179   6.371  18.295  0.00  0.00    +0.000 A 
ATOM     19  C   UNL     1       2.865   5.058  17.901  0.00  0.00    +0.000 A 
ATOM     20 CL   UNL     1       1.498   4.188  18.514  0.00  0.00    +0.000 Cl
ATOM     21  C   UNL     1       3.652   4.388  16.952  0.00  0.00    +0.000 A 
BRANCH  15  23
ATOM     22  C   UNL     1       6.389   4.992  14.663  0.00  0.00    +0.000 C 
ATOM     23  O   UNL     1       5.438   4.273  15.444  0.00  0.00    +0.000 OA
ENDBRANCH  15  23
ENDBRANCH   9  18
ENDBRANCH   1  12
BRANCH   4  24
ATOM     24  C   UNL     1      -1.656  13.415  21.486  0.00  0.00    +0.000 A 
ATOM     25  N   UNL     1      -2.202  13.811  22.609  0.00  0.00    +0.000 NA
ATOM     26  C   UNL     1      -2.710  15.046  22.280  0.00  0.00    +0.000 A 
ATOM     27  N   UNL     1      -2.491  15.404  21.005  0.00  0.00    +0.000 NA
ATOM     28  O   UNL     1      -1.791  14.322  20.475  0.00  0.00    +0.000 OA
BRANCH  26  29
ATOM     29  C   UNL     1      -3.419  15.863  23.259  0.00  0.00    +0.000 A 
ATOM     30  C   UNL     1      -2.691  16.662  24.159  0.00  0.00    +0.000 A 
ATOM     31  C   UNL     1      -3.353  17.443  25.107  0.00  0.00    +0.000 A 
ATOM     32  C   UNL     1      -4.740  17.428  25.154  0.00  0.00    +0.000 A 
ATOM     33  F   UNL     1      -5.376  18.175  26.067  0.00  0.00    +0.000 F 
ATOM     34  C   UNL     1      -5.480  16.650  24.273  0.00  0.00    +0.000 A 
ATOM     35  C   UNL     1      -4.820  15.867  23.323  0.00  0.00    +0.000 A 
ENDBRANCH  26  29
ENDBRANCH   4  24
TORSDOF 5
ENDMDL
MODEL 4
REMARK VINA RESULT:      -7.8      0.865      1.479
REMARK  Name = 
REMARK  7 active torsions:
REMARK  status: ('A' for Active; 'I' for Inactive)
REMARK    1  A    between atoms: C_1  and  O_2
REMARK    2  A    between atoms: O_2  and  C_3
REMARK    3  A    between atoms: C_6  and  C_7
REMARK    4  A    between atoms: C_10  and  C_11
REMARK    5  A    between atoms: C_14  and  C_15
REMARK    6  A    between atoms: C_17  and  C_18
REMARK    7  A    between atoms: N_31  and  C_32
REMARK                            x       y       z     vdW  Elec       q    Type
REMARK                         _______ _______ _______ _____ _____    ______ ____
ROOT
ATOM      1  C   UNL     1       0.496   9.795  20.476  0.00  0.00    +0.000 C 
ATOM      2  C   UNL     1      -0.121   9.715  21.907  0.00  0.00    +0.000 C 
ATOM      3  C   UNL     1      -0.878  11.003  22.256  0.00  0.00    +0.000 C 
ATOM      4  C   UNL     1      -0.777  12.028  21.105  0.00  0.00    +0.000 C 
ATOM      5  C   UNL     1      -1.399  11.375  19.854  0.00  0.00    +0.000 C 
ATOM      6  C   UNL     1      -0.696  10.052  19.522  0.00  0.00    +0.000 C 
ATOM      7  C   UNL     1       0.718  12.299  20.836  0.00  0.00    +0.000 C 
ATOM      8  C   UNL     1       1.459  11.006  20.487  0.00  0.00    +0.000 C 
ENDROOT
BRANCH   1  12
ATOM      9  C   UNL     1       2.498   6.955  19.208  0.00  0.00    +0.000 A 
ATOM     10  N   UNL     1       2.191   6.576  20.430  0.00  0.00    +0.000 NA
ATOM     11  N   UNL     1       1.418   7.535  21.017  0.00  0.00    +0.000 NA
ATOM     12  C   UNL     1       1.248   8.523  20.163  0.00  0.00    +0.000 A 
ATOM     13  N   UNL     1       1.926   8.204  19.004  0.00  0.00    +0.000 N 
ATOM     14  C   UNL     1       2.042   8.981  17.799  0.00  0.00    +0.000 C 
BRANCH   9  18
ATOM     15  C   UNL     1       4.901   4.754  16.392  0.00  0.00    +0.000 A 
ATOM     16  C   UNL     1       5.295   6.008  16.839  0.00  0.00    +0.000 A 
ATOM     17  C   UNL     1       4.524   6.688  17.783  0.00  0.00    +0.000 A 
ATOM     18  C   UNL     1       3.301   6.176  18.251  0.00  0.00    +0.000 A 
ATOM     19  C   UNL     1       2.912   4.907  17.786  0.00  0.00    +0.000 A 
ATOM     20 CL   UNL     1       1.440   4.133  18.267  0.00  0.00    +0.000 Cl
ATOM     21  C   UNL     1       3.710   4.206  16.868  0.00  0.00    +0.000 A 
BRANCH  15  23
ATOM     22  C   UNL     1       6.406   4.718  14.571  0.00  0.00    +0.000 C 
ATOM     23  O   UNL     1       5.586   3.995  15.485  0.00  0.00    +0.000 OA
ENDBRANCH  15  23
ENDBRANCH   9  18
ENDBRANCH   1  12
BRANCH   4  24
ATOM     24  C   UNL     1      -1.481  13.294  21.450  0.00  0.00    +0.000 A 
ATOM     25  N   UNL     1      -2.715  13.475  21.853  0.00  0.00    +0.000 NA
ATOM     26  C   UNL     1      -2.777  14.837  22.035  0.00  0.00    +0.000 A 
ATOM     27  N   UNL     1      -1.631  15.478  21.754  0.00  0.00    +0.000 NA
ATOM     28  O   UNL     1      -0.768  14.455  21.365  0.00  0.00    +0.000 OA
BRANCH  26  29
ATOM     29  C   UNL     1      -3.999  15.490  22.491  0.00  0.00    +0.000 A 
ATOM     30  C   UNL     1      -4.982  15.862  21.557  0.00  0.00    +0.000 A 
ATOM     31  C   UNL     1      -6.154  16.494  21.975  0.00  0.00    +0.000 A 
ATOM     32  C   UNL     1      -6.344  16.754  23.325  0.00  0.00    +0.000 A 
ATOM     33  F   UNL     1      -7.466  17.365  23.726  0.00  0.00    +0.000 F 
ATOM     34  C   UNL     1      -5.389  16.392  24.266  0.00  0.00    +0.000 A 
ATOM     35  C   UNL     1      -4.215  15.759  23.851  0.00  0.00    +0.000 A 
ENDBRANCH  26  29
ENDBRANCH   4  24
TORSDOF 5
ENDMDL
MODEL 5
REMARK VINA RESULT:      -7.8      0.967      1.154
REMARK  Name = 
REMARK  7 active torsions:
REMARK  status: ('A' for Active; 'I' for Inactive)
REMARK    1  A    between atoms: C_1  and  O_2
REMARK    2  A    between atoms: O_2  and  C_3
REMARK    3  A    between atoms: C_6  and  C_7
REMARK    4  A    between atoms: C_10  and  C_11
REMARK    5  A    between atoms: C_14  and  C_15
REMARK    6  A    between atoms: C_17  and  C_18
REMARK    7  A    between atoms: N_31  and  C_32
REMARK                            x       y       z     vdW  Elec       q    Type
REMARK                         _______ _______ _______ _____ _____    ______ ____
ROOT
ATOM      1  C   UNL     1       0.535   9.839  20.203  0.00  0.00    +0.000 C 
ATOM      2  C   UNL     1      -0.698   9.915  19.249  0.00  0.00    +0.000 C 
ATOM      3  C   UNL     1      -1.490  11.211  19.470  0.00  0.00    +0.000 C 
ATOM      4  C   UNL     1      -0.861  12.051  20.604  0.00  0.00    +0.000 C 
ATOM      5  C   UNL     1       0.584  12.383  20.181  0.00  0.00    +0.000 C 
ATOM      6  C   UNL     1       1.378  11.102  19.895  0.00  0.00    +0.000 C 
ATOM      7  C   UNL     1      -0.822  11.181  21.878  0.00  0.00    +0.000 C 
ATOM      8  C   UNL     1      -0.027   9.894  21.643  0.00  0.00    +0.000 C 
ENDROOT
BRANCH   1  12
ATOM      9  C   UNL     1       2.555   6.930  19.136  0.00  0.00    +0.000 A 
ATOM     10  N   UNL     1       2.211   6.615  20.367  0.00  0.00    +0.000 NA
ATOM     11  N   UNL     1       1.428   7.605  20.883  0.00  0.00    +0.000 NA
ATOM     12  C   UNL     1       1.287   8.549  19.976  0.00  0.00    +0.000 A 
ATOM     13  N   UNL     1       1.996   8.169  18.853  0.00  0.00    +0.000 N 
ATOM     14  C   UNL     1       2.150   8.884  17.614  0.00  0.00    +0.000 C 
BRANCH   9  18
ATOM     15  C   UNL     1       5.027   4.576  16.510  0.00  0.00    +0.000 A 
ATOM     16  C   UNL     1       5.458   5.809  16.980  0.00  0.00    +0.000 A 
ATOM     17  C   UNL     1       4.660   6.539  17.863  0.00  0.00    +0.000 A 
ATOM     18  C   UNL     1       3.379   6.099  18.243  0.00  0.00    +0.000 A 
ATOM     19  C   UNL     1       2.955   4.851  17.755  0.00  0.00    +0.000 A 
ATOM     20 CL   UNL     1       1.410   4.164  18.132  0.00  0.00    +0.000 Cl
ATOM     21  C   UNL     1       3.776   4.099  16.900  0.00  0.00    +0.000 A 
BRANCH  15  23
ATOM     22  C   UNL     1       5.944   4.298  14.350  0.00  0.00    +0.000 C 
ATOM     23  O   UNL     1       5.732   3.773  15.657  0.00  0.00    +0.000 OA
ENDBRANCH  15  23
ENDBRANCH   9  18
ENDBRANCH   1  12
BRANCH   4  24
ATOM     24  C   UNL     1      -1.643  13.295  20.847  0.00  0.00    +0.000 A 
ATOM     25  N   UNL     1      -2.767  13.455  21.503  0.00  0.00    +0.000 NA
ATOM     26  C   UNL     1      -2.981  14.810  21.411  0.00  0.00    +0.000 A 
ATOM     27  N   UNL     1      -2.032  15.467  20.725  0.00  0.00    +0.000 NA
ATOM     28  O   UNL     1      -1.142  14.463  20.350  0.00  0.00    +0.000 OA
BRANCH  26  29
ATOM     29  C   UNL     1      -4.149  15.440  22.016  0.00  0.00    +0.000 A 
ATOM     30  C   UNL     1      -5.028  16.194  21.218  0.00  0.00    +0.000 A 
ATOM     31  C   UNL     1      -6.146  16.809  21.783  0.00  0.00    +0.000 A 
ATOM     32  C   UNL     1      -6.386  16.671  23.143  0.00  0.00    +0.000 A 
ATOM     33  F   UNL     1      -7.457  17.266  23.686  0.00  0.00    +0.000 F 
ATOM     34  C   UNL     1      -5.534  15.928  23.950  0.00  0.00    +0.000 A 
ATOM     35  C   UNL     1      -4.415  15.310  23.388  0.00  0.00    +0.000 A 
ENDBRANCH  26  29
ENDBRANCH   4  24
TORSDOF 5
ENDMDL
MODEL 6
REMARK VINA RESULT:      -7.8      0.401      1.121
REMARK  Name = 
REMARK  7 active torsions:
REMARK  status: ('A' for Active; 'I' for Inactive)
REMARK    1  A    between atoms: C_1  and  O_2
REMARK    2  A    between atoms: O_2  and  C_3
REMARK    3  A    between atoms: C_6  and  C_7
REMARK    4  A    between atoms: C_10  and  C_11
REMARK    5  A    between atoms: C_14  and  C_15
REMARK    6  A    between atoms: C_17  and  C_18
REMARK    7  A    between atoms: N_31  and  C_32
REMARK                            x       y       z     vdW  Elec       q    Type
REMARK                         _______ _______ _______ _____ _____    ______ ____
ROOT
ATOM      1  C   UNL     1       0.653   9.414  20.436  0.00  0.00    +0.000 C 
ATOM      2  C   UNL     1       1.579  10.670  20.475  0.00  0.00    +0.000 C 
ATOM      3  C   UNL     1       0.780  11.936  20.809  0.00  0.00    +0.000 C 
ATOM      4  C   UNL     1      -0.721  11.611  20.970  0.00  0.00    +0.000 C 
ATOM      5  C   UNL     1      -0.849  10.591  22.120  0.00  0.00    +0.000 C 
ATOM      6  C   UNL     1      -0.007   9.340  21.836  0.00  0.00    +0.000 C 
ATOM      7  C   UNL     1      -1.212  10.954  19.663  0.00  0.00    +0.000 C 
ATOM      8  C   UNL     1      -0.408   9.691  19.345  0.00  0.00    +0.000 C 
ENDROOT
BRANCH   1  12
ATOM      9  C   UNL     1       2.820   6.720  19.122  0.00  0.00    +0.000 A 
ATOM     10  N   UNL     1       2.436   6.246  20.289  0.00  0.00    +0.000 NA
ATOM     11  N   UNL     1       1.595   7.141  20.883  0.00  0.00    +0.000 NA
ATOM     12  C   UNL     1       1.460   8.185  20.091  0.00  0.00    +0.000 A 
ATOM     13  N   UNL     1       2.229   7.966  18.965  0.00  0.00    +0.000 N 
ATOM     14  C   UNL     1       2.410   8.831  17.830  0.00  0.00    +0.000 C 
BRANCH   9  18
ATOM     15  C   UNL     1       5.485   4.779  16.351  0.00  0.00    +0.000 A 
ATOM     16  C   UNL     1       5.855   5.953  16.994  0.00  0.00    +0.000 A 
ATOM     17  C   UNL     1       4.994   6.544  17.919  0.00  0.00    +0.000 A 
ATOM     18  C   UNL     1       3.711   6.029  18.176  0.00  0.00    +0.000 A 
ATOM     19  C   UNL     1       3.348   4.843  17.513  0.00  0.00    +0.000 A 
ATOM     20 CL   UNL     1       1.809   4.077  17.720  0.00  0.00    +0.000 Cl
ATOM     21  C   UNL     1       4.232   4.227  16.613  0.00  0.00    +0.000 A 
BRANCH  15  23
ATOM     22  C   UNL     1       5.752   4.084  14.108  0.00  0.00    +0.000 C 
ATOM     23  O   UNL     1       6.254   4.109  15.441  0.00  0.00    +0.000 OA
ENDBRANCH  15  23
ENDBRANCH   9  18
ENDBRANCH   1  12
BRANCH   4  24
ATOM     24  C   UNL     1      -1.510  12.841  21.262  0.00  0.00    +0.000 A 
ATOM     25  N   UNL     1      -1.987  13.270  22.404  0.00  0.00    +0.000 NA
ATOM     26  C   UNL     1      -2.591  14.455  22.053  0.00  0.00    +0.000 A 
ATOM     27  N   UNL     1      -2.496  14.750  20.747  0.00  0.00    +0.000 NA
ATOM     28  O   UNL     1      -1.777  13.680  20.219  0.00  0.00    +0.000 OA
BRANCH  26  29
ATOM     29  C   UNL     1      -3.268  15.287  23.042  0.00  0.00    +0.000 A 
ATOM     30  C   UNL     1      -4.597  15.690  22.823  0.00  0.00    +0.000 A 
ATOM     31  C   UNL     1      -5.256  16.493  23.755  0.00  0.00    +0.000 A 
ATOM     32  C   UNL     1      -4.590  16.891  24.905  0.00  0.00    +0.000 A 
ATOM     33  F   UNL     1      -5.221  17.666  25.797  0.00  0.00    +0.000 F 
ATOM     34  C   UNL     1      -3.278  16.502  25.145  0.00  0.00    +0.000 A 
ATOM     35  C   UNL     1      -2.615  15.698  24.214  0.00  0.00    +0.000 A 
ENDBRANCH  26  29
ENDBRANCH   4  24
TORSDOF 5
ENDMDL
MODEL 7
REMARK VINA RESULT:      -7.7      1.141      1.567
REMARK  Name = 
REMARK  7 active torsions:
REMARK  status: ('A' for Active; 'I' for Inactive)
REMARK    1  A    between atoms: C_1  and  O_2
REMARK    2  A    between atoms: O_2  and  C_3
REMARK    3  A    between atoms: C_6  and  C_7
REMARK    4  A    between atoms: C_10  and  C_11
REMARK    5  A    between atoms: C_14  and  C_15
REMARK    6  A    between atoms: C_17  and  C_18
REMARK    7  A    between atoms: N_31  and  C_32
REMARK                            x       y       z     vdW  Elec       q    Type
REMARK                         _______ _______ _______ _____ _____    ______ ____
ROOT
ATOM      1  C   UNL     1       0.432   9.873  20.457  0.00  0.00    +0.000 C 
ATOM      2  C   UNL     1       1.383  11.108  20.373  0.00  0.00    +0.000 C 
ATOM      3  C   UNL     1       0.628  12.408  20.680  0.00  0.00    +0.000 C 
ATOM      4  C   UNL     1      -0.867  12.126  20.943  0.00  0.00    +0.000 C 
ATOM      5  C   UNL     1      -0.948  11.173  22.153  0.00  0.00    +0.000 C 
ATOM      6  C   UNL     1      -0.148   9.890  21.893  0.00  0.00    +0.000 C 
ATOM      7  C   UNL     1      -1.444  11.409  19.704  0.00  0.00    +0.000 C 
ATOM      8  C   UNL     1      -0.683  10.113  19.413  0.00  0.00    +0.000 C 
ENDROOT
BRANCH   1  12
ATOM      9  C   UNL     1       2.467   7.062  19.176  0.00  0.00    +0.000 A 
ATOM     10  N   UNL     1       2.147   6.665  20.390  0.00  0.00    +0.000 NA
ATOM     11  N   UNL     1       1.361   7.611  20.980  0.00  0.00    +0.000 NA
ATOM     12  C   UNL     1       1.195   8.609  20.137  0.00  0.00    +0.000 A 
ATOM     13  N   UNL     1       1.890   8.309  18.982  0.00  0.00    +0.000 N 
ATOM     14  C   UNL     1       2.016   9.103  17.788  0.00  0.00    +0.000 C 
BRANCH   9  18
ATOM     15  C   UNL     1       4.916   4.912  16.360  0.00  0.00    +0.000 A 
ATOM     16  C   UNL     1       5.280   6.177  16.802  0.00  0.00    +0.000 A 
ATOM     17  C   UNL     1       4.495   6.840  17.746  0.00  0.00    +0.000 A 
ATOM     18  C   UNL     1       3.286   6.299  18.220  0.00  0.00    +0.000 A 
ATOM     19  C   UNL     1       2.927   5.020  17.759  0.00  0.00    +0.000 A 
ATOM     20 CL   UNL     1       1.476   4.211  18.246  0.00  0.00    +0.000 Cl
ATOM     21  C   UNL     1       3.740   4.337  16.840  0.00  0.00    +0.000 A 
BRANCH  15  23
ATOM     22  C   UNL     1       6.758   4.804  14.884  0.00  0.00    +0.000 C 
ATOM     23  O   UNL     1       5.617   4.168  15.452  0.00  0.00    +0.000 OA
ENDBRANCH  15  23
ENDBRANCH   9  18
ENDBRANCH   1  12
BRANCH   4  24
ATOM     24  C   UNL     1      -1.614  13.387  21.208  0.00  0.00    +0.000 A 
ATOM     25  N   UNL     1      -2.810  13.553  21.718  0.00  0.00    +0.000 NA
ATOM     26  C   UNL     1      -2.941  14.922  21.741  0.00  0.00    +0.000 A 
ATOM     27  N   UNL     1      -1.874  15.581  21.263  0.00  0.00    +0.000 NA
ATOM     28  O   UNL     1      -0.990  14.564  20.909  0.00  0.00    +0.000 OA
BRANCH  26  29
ATOM     29  C   UNL     1      -4.151  15.562  22.246  0.00  0.00    +0.000 A 
ATOM     30  C   UNL     1      -5.082  14.811  22.985  0.00  0.00    +0.000 A 
ATOM     31  C   UNL     1      -6.248  15.406  23.468  0.00  0.00    +0.000 A 
ATOM     32  C   UNL     1      -6.484  16.749  23.215  0.00  0.00    +0.000 A 
ATOM     33  F   UNL     1      -7.606  17.319  23.674  0.00  0.00    +0.000 F 
ATOM     34  C   UNL     1      -5.577  17.512  22.490  0.00  0.00    +0.000 A 
ATOM     35  C   UNL     1      -4.409  16.920  22.005  0.00  0.00    +0.000 A 
ENDBRANCH  26  29
ENDBRANCH   4  24
TORSDOF 5
ENDMDL
MODEL 8
REMARK VINA RESULT:      -7.6      1.699      2.362
REMARK  Name = 
REMARK  7 active torsions:
REMARK  status: ('A' for Active; 'I' for Inactive)
REMARK    1  A    between atoms: C_1  and  O_2
REMARK    2  A    between atoms: O_2  and  C_3
REMARK    3  A    between atoms: C_6  and  C_7
REMARK    4  A    between atoms: C_10  and  C_11
REMARK    5  A    between atoms: C_14  and  C_15
REMARK    6  A    between atoms: C_17  and  C_18
REMARK    7  A    between atoms: N_31  and  C_32
REMARK                            x       y       z     vdW  Elec       q    Type
REMARK                         _______ _______ _______ _____ _____    ______ ____
ROOT
ATOM      1  C   UNL     1       0.836  10.528  19.854  0.00  0.00    +0.000 C 
ATOM      2  C   UNL     1      -0.633  10.786  19.396  0.00  0.00    +0.000 C 
ATOM      3  C   UNL     1      -1.315  11.833  20.287  0.00  0.00    +0.000 C 
ATOM      4  C   UNL     1      -0.362  12.300  21.410  0.00  0.00    +0.000 C 
ATOM      5  C   UNL     1       0.879  12.915  20.733  0.00  0.00    +0.000 C 
ATOM      6  C   UNL     1       1.542  11.905  19.788  0.00  0.00    +0.000 C 
ATOM      7  C   UNL     1       0.073  11.058  22.217  0.00  0.00    +0.000 C 
ATOM      8  C   UNL     1       0.753  10.026  21.315  0.00  0.00    +0.000 C 
ENDROOT
BRANCH   1  12
ATOM      9  C   UNL     1       2.282   7.592  18.130  0.00  0.00    +0.000 A 
ATOM     10  N   UNL     1       2.325   8.527  17.205  0.00  0.00    +0.000 NA
ATOM     11  N   UNL     1       1.838   9.693  17.721  0.00  0.00    +0.000 NA
ATOM     12  C   UNL     1       1.479   9.485  18.971  0.00  0.00    +0.000 A 
ATOM     13  N   UNL     1       1.732   8.161  19.271  0.00  0.00    +0.000 N 
ATOM     14  C   UNL     1       1.491   7.468  20.508  0.00  0.00    +0.000 C 
BRANCH   9  18
ATOM     15  C   UNL     1       3.546   3.501  17.666  0.00  0.00    +0.000 A 
ATOM     16  C   UNL     1       2.220   3.811  17.935  0.00  0.00    +0.000 A 
ATOM     17  C   UNL     1       1.822   5.145  18.041  0.00  0.00    +0.000 A 
ATOM     18  C   UNL     1       2.743   6.204  17.960  0.00  0.00    +0.000 A 
ATOM     19  C   UNL     1       4.084   5.874  17.693  0.00  0.00    +0.000 A 
ATOM     20 CL   UNL     1       5.341   7.057  17.558  0.00  0.00    +0.000 Cl
ATOM     21  C   UNL     1       4.475   4.534  17.545  0.00  0.00    +0.000 A 
BRANCH  15  23
ATOM     22  C   UNL     1       3.750   1.338  18.596  0.00  0.00    +0.000 C 
ATOM     23  O   UNL     1       4.041   2.234  17.527  0.00  0.00    +0.000 OA
ENDBRANCH  15  23
ENDBRANCH   9  18
ENDBRANCH   1  12
BRANCH   4  24
ATOM     24  C   UNL     1      -1.028  13.291  22.301  0.00  0.00    +0.000 A 
ATOM     25  N   UNL     1      -2.153  13.940  22.127  0.00  0.00    +0.000 NA
ATOM     26  C   UNL     1      -2.258  14.680  23.282  0.00  0.00    +0.000 A 
ATOM     27  N   UNL     1      -1.239  14.501  24.138  0.00  0.00    +0.000 NA
ATOM     28  O   UNL     1      -0.421  13.578  23.489  0.00  0.00    +0.000 OA
BRANCH  26  29
ATOM     29  C   UNL     1      -3.389  15.570  23.516  0.00  0.00    +0.000 A 
ATOM     30  C   UNL     1      -4.206  15.958  22.440  0.00  0.00    +0.000 A 
ATOM     31  C   UNL     1      -5.288  16.816  22.645  0.00  0.00    +0.000 A 
ATOM     32  C   UNL     1      -5.554  17.284  23.924  0.00  0.00    +0.000 A 
ATOM     33  F   UNL     1      -6.590  18.111  24.121  0.00  0.00    +0.000 F 
ATOM     34  C   UNL     1      -4.763  16.910  25.003  0.00  0.00    +0.000 A 
ATOM     35  C   UNL     1      -3.680  16.052  24.802  0.00  0.00    +0.000 A 
ENDBRANCH  26  29
ENDBRANCH   4  24
TORSDOF 5
ENDMDL
MODEL 9
REMARK VINA RESULT:      -7.6      0.782      1.288
REMARK  Name = 
REMARK  7 active torsions:
REMARK  status: ('A' for Active; 'I' for Inactive)
REMARK    1  A    between atoms: C_1  and  O_2
REMARK    2  A    between atoms: O_2  and  C_3
REMARK    3  A    between atoms: C_6  and  C_7
REMARK    4  A    between atoms: C_10  and  C_11
REMARK    5  A    between atoms: C_14  and  C_15
REMARK    6  A    between atoms: C_17  and  C_18
REMARK    7  A    between atoms: N_31  and  C_32
REMARK                            x       y       z     vdW  Elec       q    Type
REMARK                         _______ _______ _______ _____ _____    ______ ____
ROOT
ATOM      1  C   UNL     1       0.630   9.457  20.413  0.00  0.00    +0.000 C 
ATOM      2  C   UNL     1      -0.092   9.293  21.787  0.00  0.00    +0.000 C 
ATOM      3  C   UNL     1      -0.887  10.554  22.148  0.00  0.00    +0.000 C 
ATOM      4  C   UNL     1      -0.711  11.642  21.066  0.00  0.00    +0.000 C 
ATOM      5  C   UNL     1      -1.231  11.056  19.737  0.00  0.00    +0.000 C 
ATOM      6  C   UNL     1      -0.491   9.759  19.387  0.00  0.00    +0.000 C 
ATOM      7  C   UNL     1       0.797  11.939  20.925  0.00  0.00    +0.000 C 
ATOM      8  C   UNL     1       1.575  10.672  20.562  0.00  0.00    +0.000 C 
ENDROOT
BRANCH   1  12
ATOM      9  C   UNL     1       2.746   6.704  19.139  0.00  0.00    +0.000 A 
ATOM     10  N   UNL     1       2.367   6.262  20.320  0.00  0.00    +0.000 NA
ATOM     11  N   UNL     1       1.545   7.183  20.902  0.00  0.00    +0.000 NA
ATOM     12  C   UNL     1       1.417   8.210  20.088  0.00  0.00    +0.000 A 
ATOM     13  N   UNL     1       2.171   7.954  18.960  0.00  0.00    +0.000 N 
ATOM     14  C   UNL     1       2.353   8.791  17.803  0.00  0.00    +0.000 C 
BRANCH   9  18
ATOM     15  C   UNL     1       5.358   4.663  16.390  0.00  0.00    +0.000 A 
ATOM     16  C   UNL     1       5.766   5.825  17.032  0.00  0.00    +0.000 A 
ATOM     17  C   UNL     1       4.920   6.449  17.951  0.00  0.00    +0.000 A 
ATOM     18  C   UNL     1       3.618   5.980  18.200  0.00  0.00    +0.000 A 
ATOM     19  C   UNL     1       3.218   4.806  17.538  0.00  0.00    +0.000 A 
ATOM     20 CL   UNL     1       1.651   4.095  17.738  0.00  0.00    +0.000 Cl
ATOM     21  C   UNL     1       4.085   4.156  16.646  0.00  0.00    +0.000 A 
BRANCH  15  23
ATOM     22  C   UNL     1       5.710   4.089  14.124  0.00  0.00    +0.000 C 
ATOM     23  O   UNL     1       6.109   3.964  15.486  0.00  0.00    +0.000 OA
ENDBRANCH  15  23
ENDBRANCH   9  18
ENDBRANCH   1  12
BRANCH   4  24
ATOM     24  C   UNL     1      -1.454  12.883  21.426  0.00  0.00    +0.000 A 
ATOM     25  N   UNL     1      -1.425  13.575  22.538  0.00  0.00    +0.000 NA
ATOM     26  C   UNL     1      -2.286  14.613  22.271  0.00  0.00    +0.000 A 
ATOM     27  N   UNL     1      -2.830  14.569  21.045  0.00  0.00    +0.000 NA
ATOM     28  O   UNL     1      -2.278  13.421  20.481  0.00  0.00    +0.000 OA
BRANCH  26  29
ATOM     29  C   UNL     1      -2.560  15.649  23.261  0.00  0.00    +0.000 A 
ATOM     30  C   UNL     1      -3.347  16.760  22.909  0.00  0.00    +0.000 A 
ATOM     31  C   UNL     1      -3.612  17.764  23.841  0.00  0.00    +0.000 A 
ATOM     32  C   UNL     1      -3.092  17.659  25.123  0.00  0.00    +0.000 A 
ATOM     33  F   UNL     1      -3.341  18.626  26.016  0.00  0.00    +0.000 F 
ATOM     34  C   UNL     1      -2.314  16.570  25.494  0.00  0.00    +0.000 A 
ATOM     35  C   UNL     1      -2.047  15.562  24.564  0.00  0.00    +0.000 A 
ENDBRANCH  26  29
ENDBRANCH   4  24
TORSDOF 5
ENDMDL
