MODEL 1
REMARK VINA RESULT:      -6.9      0.000      0.000
REMARK  Name = 
REMARK  1 active torsions:
REMARK  status: ('A' for Active; 'I' for Inactive)
REMARK    1  A    between atoms: C_7  and  C_8
REMARK                            x       y       z     vdW  Elec       q    Type
REMARK                         _______ _______ _______ _____ _____    ______ ____
ROOT
ATOM      1  N   UNL     1       2.962   2.576  22.006  0.00  0.00    +0.000 N 
ATOM      2  C   UNL     1       2.603   2.885  20.738  0.00  0.00    +0.000 C 
ATOM      3  N   UNL     1       3.158   3.883  20.140  0.00  0.00    +0.000 NA
ATOM      4  C   UNL     1       2.812   4.251  18.754  0.00  0.00    +0.000 C 
ATOM      5  C   UNL     1       3.090   5.774  18.522  0.00  0.00    +0.000 A 
ATOM      6  C   UNL     1       2.232   6.768  19.031  0.00  0.00    +0.000 A 
ATOM      7  C   UNL     1       2.258   8.108  18.589  0.00  0.00    +0.000 A 
ATOM      8  C   UNL     1       3.279   8.471  17.699  0.00  0.00    +0.000 A 
ATOM      9  C   UNL     1       4.226   7.540  17.282  0.00  0.00    +0.000 A 
ATOM     10  C   UNL     1       4.138   6.210  17.697  0.00  0.00    +0.000 A 
ATOM     11  O   UNL     1       5.126   5.398  17.216  0.00  0.00    +0.000 OA
ATOM     12  C   UNL     1       5.206   4.181  17.948  0.00  0.00    +0.000 C 
ATOM     13  C   UNL     1       3.864   3.487  17.878  0.00  0.00    +0.000 C 
ATOM     14  C   UNL     1       3.917   1.976  17.677  0.00  0.00    +0.000 C 
ATOM     15  C   UNL     1       3.522   2.863  16.531  0.00  0.00    +0.000 C 
ATOM     16  C   UNL     1       1.287   4.006  18.498  0.00  0.00    +0.000 C 
ATOM     17  F   UNL     1       0.535   4.665  19.443  0.00  0.00    +0.000 F 
ATOM     18  F   UNL     1       0.884   4.518  17.304  0.00  0.00    +0.000 F 
ATOM     19  C   UNL     1       0.849   2.569  18.598  0.00  0.00    +0.000 C 
ATOM     20  S   UNL     1       1.411   1.771  20.122  0.00  0.00    +0.000 S 
ATOM     21  H   UNL     1       3.841   2.989  22.295  0.00  0.00    +0.000 HD
ATOM     22  H   UNL     1       2.843   1.603  22.264  0.00  0.00    +0.000 HD
ENDROOT
BRANCH   7  23
ATOM     23  C   UNL     1       1.206   9.061  18.985  0.00  0.00    +0.000 A 
ATOM     24  C   UNL     1       0.843   9.311  20.300  0.00  0.00    +0.000 A 
ATOM     25  N   UNL     1      -0.086  10.213  20.690  0.00  0.00    +0.000 NA
ATOM     26  C   UNL     1      -0.686  10.892  19.704  0.00  0.00    +0.000 A 
ATOM     27  N   UNL     1      -0.440  10.753  18.395  0.00  0.00    +0.000 NA
ATOM     28  C   UNL     1       0.504   9.841  18.074  0.00  0.00    +0.000 A 
ENDBRANCH   7  23
TORSDOF 1
ENDMDL
MODEL 2
REMARK VINA RESULT:      -6.9      4.640      8.754
REMARK  Name = 
REMARK  1 active torsions:
REMARK  status: ('A' for Active; 'I' for Inactive)
REMARK    1  A    between atoms: C_7  and  C_8
REMARK                            x       y       z     vdW  Elec       q    Type
REMARK                         _______ _______ _______ _____ _____    ______ ____
ROOT
ATOM      1  N   UNL     1       2.543  15.039  20.980  0.00  0.00    +0.000 N 
ATOM      2  C   UNL     1       1.491  14.309  20.545  0.00  0.00    +0.000 C 
ATOM      3  N   UNL     1       1.159  13.229  21.165  0.00  0.00    +0.000 NA
ATOM      4  C   UNL     1       0.011  12.406  20.738  0.00  0.00    +0.000 C 
ATOM      5  C   UNL     1       0.222  10.922  21.190  0.00  0.00    +0.000 A 
ATOM      6  C   UNL     1       1.120  10.067  20.523  0.00  0.00    +0.000 A 
ATOM      7  C   UNL     1       1.111   8.665  20.682  0.00  0.00    +0.000 A 
ATOM      8  C   UNL     1       0.247   8.135  21.651  0.00  0.00    +0.000 A 
ATOM      9  C   UNL     1      -0.558   8.968  22.423  0.00  0.00    +0.000 A 
ATOM     10  C   UNL     1      -0.562  10.346  22.202  0.00  0.00    +0.000 A 
ATOM     11  O   UNL     1      -1.395  11.051  23.024  0.00  0.00    +0.000 OA
ATOM     12  C   UNL     1      -1.089  12.440  23.013  0.00  0.00    +0.000 C 
ATOM     13  C   UNL     1      -1.189  12.945  21.592  0.00  0.00    +0.000 C 
ATOM     14  C   UNL     1      -1.848  14.311  21.426  0.00  0.00    +0.000 C 
ATOM     15  C   UNL     1      -2.604  13.071  21.043  0.00  0.00    +0.000 C 
ATOM     16  C   UNL     1      -0.103  12.412  19.178  0.00  0.00    +0.000 C 
ATOM     17  F   UNL     1       1.089  12.022  18.613  0.00  0.00    +0.000 F 
ATOM     18  F   UNL     1      -1.018  11.509  18.732  0.00  0.00    +0.000 F 
ATOM     19  C   UNL     1      -0.390  13.757  18.566  0.00  0.00    +0.000 C 
ATOM     20  S   UNL     1       0.726  15.050  19.163  0.00  0.00    +0.000 S 
ATOM     21  H   UNL     1       2.825  14.825  21.930  0.00  0.00    +0.000 HD
ATOM     22  H   UNL     1       2.504  16.028  20.760  0.00  0.00    +0.000 HD
ENDROOT
BRANCH   7  23
ATOM     23  C   UNL     1       1.915   7.794  19.807  0.00  0.00    +0.000 A 
ATOM     24  C   UNL     1       2.274   6.494  20.128  0.00  0.00    +0.000 A 
ATOM     25  N   UNL     1       2.972   5.660  19.323  0.00  0.00    +0.000 NA
ATOM     26  C   UNL     1       3.335   6.167  18.138  0.00  0.00    +0.000 A 
ATOM     27  N   UNL     1       3.063   7.402  17.698  0.00  0.00    +0.000 NA
ATOM     28  C   UNL     1       2.356   8.180  18.547  0.00  0.00    +0.000 A 
ENDBRANCH   7  23
TORSDOF 1
ENDMDL
MODEL 3
REMARK VINA RESULT:      -6.8      4.413      8.505
REMARK  Name = 
REMARK  1 active torsions:
REMARK  status: ('A' for Active; 'I' for Inactive)
REMARK    1  A    between atoms: C_7  and  C_8
REMARK                            x       y       z     vdW  Elec       q    Type
REMARK                         _______ _______ _______ _____ _____    ______ ____
ROOT
ATOM      1  N   UNL     1       2.943  14.566  20.948  0.00  0.00    +0.000 N 
ATOM      2  C   UNL     1       1.883  13.879  20.461  0.00  0.00    +0.000 C 
ATOM      3  N   UNL     1       1.486  12.806  21.055  0.00  0.00    +0.000 NA
ATOM      4  C   UNL     1       0.327  12.031  20.572  0.00  0.00    +0.000 C 
ATOM      5  C   UNL     1       0.465  10.536  21.015  0.00  0.00    +0.000 A 
ATOM      6  C   UNL     1       1.357   9.655  20.375  0.00  0.00    +0.000 A 
ATOM      7  C   UNL     1       1.290   8.252  20.516  0.00  0.00    +0.000 A 
ATOM      8  C   UNL     1       0.368   7.745  21.443  0.00  0.00    +0.000 A 
ATOM      9  C   UNL     1      -0.437   8.599  22.192  0.00  0.00    +0.000 A 
ATOM     10  C   UNL     1      -0.381   9.979  21.986  0.00  0.00    +0.000 A 
ATOM     11  O   UNL     1      -1.221  10.706  22.782  0.00  0.00    +0.000 OA
ATOM     12  C   UNL     1      -0.864  12.083  22.800  0.00  0.00    +0.000 C 
ATOM     13  C   UNL     1      -0.886  12.606  21.382  0.00  0.00    +0.000 C 
ATOM     14  C   UNL     1      -1.487  13.997  21.206  0.00  0.00    +0.000 C 
ATOM     15  C   UNL     1      -2.272  12.790  20.777  0.00  0.00    +0.000 C 
ATOM     16  C   UNL     1       0.278  12.057  19.008  0.00  0.00    +0.000 C 
ATOM     17  F   UNL     1       1.477  11.629  18.488  0.00  0.00    +0.000 F 
ATOM     18  F   UNL     1      -0.650  11.194  18.514  0.00  0.00    +0.000 F 
ATOM     19  C   UNL     1       0.066  13.418  18.401  0.00  0.00    +0.000 C 
ATOM     20  S   UNL     1       1.204  14.663  19.058  0.00  0.00    +0.000 S 
ATOM     21  H   UNL     1       3.177  14.331  21.906  0.00  0.00    +0.000 HD
ATOM     22  H   UNL     1       2.949  15.557  20.738  0.00  0.00    +0.000 HD
ENDROOT
BRANCH   7  23
ATOM     23  C   UNL     1       2.097   7.361  19.665  0.00  0.00    +0.000 A 
ATOM     24  C   UNL     1       2.641   7.738  18.446  0.00  0.00    +0.000 A 
ATOM     25  N   UNL     1       3.423   6.953  17.670  0.00  0.00    +0.000 NA
ATOM     26  C   UNL     1       3.662   5.723  18.143  0.00  0.00    +0.000 A 
ATOM     27  N   UNL     1       3.201   5.224  19.297  0.00  0.00    +0.000 NA
ATOM     28  C   UNL     1       2.434   6.062  20.028  0.00  0.00    +0.000 A 
ENDBRANCH   7  23
TORSDOF 1
ENDMDL
MODEL 4
REMARK VINA RESULT:      -6.8      7.955     11.078
REMARK  Name = 
REMARK  1 active torsions:
REMARK  status: ('A' for Active; 'I' for Inactive)
REMARK    1  A    between atoms: C_7  and  C_8
REMARK                            x       y       z     vdW  Elec       q    Type
REMARK                         _______ _______ _______ _____ _____    ______ ____
ROOT
ATOM      1  N   UNL     1      -5.182  12.301  24.701  0.00  0.00    +0.000 N 
ATOM      2  C   UNL     1      -5.268  13.019  23.557  0.00  0.00    +0.000 C 
ATOM      3  N   UNL     1      -5.137  12.429  22.418  0.00  0.00    +0.000 NA
ATOM      4  C   UNL     1      -5.237  13.165  21.143  0.00  0.00    +0.000 C 
ATOM      5  C   UNL     1      -4.428  12.417  20.032  0.00  0.00    +0.000 A 
ATOM      6  C   UNL     1      -3.022  12.466  19.982  0.00  0.00    +0.000 A 
ATOM      7  C   UNL     1      -2.276  12.087  18.845  0.00  0.00    +0.000 A 
ATOM      8  C   UNL     1      -2.983  11.517  17.776  0.00  0.00    +0.000 A 
ATOM      9  C   UNL     1      -4.361  11.331  17.849  0.00  0.00    +0.000 A 
ATOM     10  C   UNL     1      -5.072  11.767  18.968  0.00  0.00    +0.000 A 
ATOM     11  O   UNL     1      -6.416  11.527  18.916  0.00  0.00    +0.000 OA
ATOM     12  C   UNL     1      -7.020  11.643  20.198  0.00  0.00    +0.000 C 
ATOM     13  C   UNL     1      -6.746  13.029  20.737  0.00  0.00    +0.000 C 
ATOM     14  C   UNL     1      -7.917  13.699  21.448  0.00  0.00    +0.000 C 
ATOM     15  C   UNL     1      -7.528  14.154  20.071  0.00  0.00    +0.000 C 
ATOM     16  C   UNL     1      -4.617  14.594  21.297  0.00  0.00    +0.000 C 
ATOM     17  F   UNL     1      -3.331  14.504  21.778  0.00  0.00    +0.000 F 
ATOM     18  F   UNL     1      -4.505  15.231  20.101  0.00  0.00    +0.000 F 
ATOM     19  C   UNL     1      -5.326  15.492  22.277  0.00  0.00    +0.000 C 
ATOM     20  S   UNL     1      -5.598  14.701  23.881  0.00  0.00    +0.000 S 
ATOM     21  H   UNL     1      -5.292  11.302  24.566  0.00  0.00    +0.000 HD
ATOM     22  H   UNL     1      -5.689  12.684  25.491  0.00  0.00    +0.000 HD
ENDROOT
BRANCH   7  23
ATOM     23  C   UNL     1      -0.831  12.357  18.757  0.00  0.00    +0.000 A 
ATOM     24  C   UNL     1      -0.288  13.623  18.595  0.00  0.00    +0.000 A 
ATOM     25  N   UNL     1       1.036  13.900  18.558  0.00  0.00    +0.000 NA
ATOM     26  C   UNL     1       1.853  12.847  18.681  0.00  0.00    +0.000 A 
ATOM     27  N   UNL     1       1.471  11.573  18.838  0.00  0.00    +0.000 NA
ATOM     28  C   UNL     1       0.137  11.366  18.876  0.00  0.00    +0.000 A 
ENDBRANCH   7  23
TORSDOF 1
ENDMDL
MODEL 5
REMARK VINA RESULT:      -6.7      8.367     12.035
REMARK  Name = 
REMARK  1 active torsions:
REMARK  status: ('A' for Active; 'I' for Inactive)
REMARK    1  A    between atoms: C_7  and  C_8
REMARK                            x       y       z     vdW  Elec       q    Type
REMARK                         _______ _______ _______ _____ _____    ______ ____
ROOT
ATOM      1  N   UNL     1      -4.919  11.946  24.973  0.00  0.00    +0.000 N 
ATOM      2  C   UNL     1      -4.755  12.907  24.034  0.00  0.00    +0.000 C 
ATOM      3  N   UNL     1      -5.463  12.880  22.958  0.00  0.00    +0.000 NA
ATOM      4  C   UNL     1      -5.332  13.913  21.912  0.00  0.00    +0.000 C 
ATOM      5  C   UNL     1      -5.762  13.326  20.527  0.00  0.00    +0.000 A 
ATOM      6  C   UNL     1      -4.931  12.448  19.805  0.00  0.00    +0.000 A 
ATOM      7  C   UNL     1      -5.124  12.152  18.439  0.00  0.00    +0.000 A 
ATOM      8  C   UNL     1      -6.279  12.663  17.829  0.00  0.00    +0.000 A 
ATOM      9  C   UNL     1      -7.192  13.424  18.553  0.00  0.00    +0.000 A 
ATOM     10  C   UNL     1      -6.941  13.742  19.889  0.00  0.00    +0.000 A 
ATOM     11  O   UNL     1      -7.913  14.495  20.486  0.00  0.00    +0.000 OA
ATOM     12  C   UNL     1      -7.796  14.472  21.903  0.00  0.00    +0.000 C 
ATOM     13  C   UNL     1      -6.422  14.977  22.282  0.00  0.00    +0.000 C 
ATOM     14  C   UNL     1      -6.376  15.907  23.490  0.00  0.00    +0.000 C 
ATOM     15  C   UNL     1      -6.208  16.475  22.110  0.00  0.00    +0.000 C 
ATOM     16  C   UNL     1      -3.839  14.365  21.789  0.00  0.00    +0.000 C 
ATOM     17  F   UNL     1      -3.027  13.274  21.585  0.00  0.00    +0.000 F 
ATOM     18  F   UNL     1      -3.638  15.164  20.707  0.00  0.00    +0.000 F 
ATOM     19  C   UNL     1      -3.274  15.033  23.014  0.00  0.00    +0.000 C 
ATOM     20  S   UNL     1      -3.565  14.084  24.527  0.00  0.00    +0.000 S 
ATOM     21  H   UNL     1      -5.785  11.426  24.879  0.00  0.00    +0.000 HD
ATOM     22  H   UNL     1      -4.688  12.222  25.920  0.00  0.00    +0.000 HD
ENDROOT
BRANCH   7  23
ATOM     23  C   UNL     1      -4.112  11.406  17.671  0.00  0.00    +0.000 A 
ATOM     24  C   UNL     1      -2.922  10.939  18.207  0.00  0.00    +0.000 A 
ATOM     25  N   UNL     1      -2.000  10.213  17.534  0.00  0.00    +0.000 NA
ATOM     26  C   UNL     1      -2.288   9.952  16.253  0.00  0.00    +0.000 A 
ATOM     27  N   UNL     1      -3.393  10.342  15.604  0.00  0.00    +0.000 NA
ATOM     28  C   UNL     1      -4.276  11.055  16.335  0.00  0.00    +0.000 A 
ENDBRANCH   7  23
TORSDOF 1
ENDMDL
MODEL 6
REMARK VINA RESULT:      -6.4      8.673     10.849
REMARK  Name = 
REMARK  1 active torsions:
REMARK  status: ('A' for Active; 'I' for Inactive)
REMARK    1  A    between atoms: C_7  and  C_8
REMARK                            x       y       z     vdW  Elec       q    Type
REMARK                         _______ _______ _______ _____ _____    ______ ____
ROOT
ATOM      1  N   UNL     1      -5.506  12.033  24.575  0.00  0.00    +0.000 N 
ATOM      2  C   UNL     1      -5.398  12.825  23.483  0.00  0.00    +0.000 C 
ATOM      3  N   UNL     1      -4.985  12.328  22.368  0.00  0.00    +0.000 NA
ATOM      4  C   UNL     1      -4.864  13.148  21.146  0.00  0.00    +0.000 C 
ATOM      5  C   UNL     1      -3.784  12.530  20.196  0.00  0.00    +0.000 A 
ATOM      6  C   UNL     1      -2.407  12.664  20.457  0.00  0.00    +0.000 A 
ATOM      7  C   UNL     1      -1.411  12.412  19.489  0.00  0.00    +0.000 A 
ATOM      8  C   UNL     1      -1.830  11.881  18.261  0.00  0.00    +0.000 A 
ATOM      9  C   UNL     1      -3.175  11.611  18.021  0.00  0.00    +0.000 A 
ATOM     10  C   UNL     1      -4.138  11.922  18.982  0.00  0.00    +0.000 A 
ATOM     11  O   UNL     1      -5.419  11.610  18.624  0.00  0.00    +0.000 OA
ATOM     12  C   UNL     1      -6.289  11.598  19.750  0.00  0.00    +0.000 C 
ATOM     13  C   UNL     1      -6.237  12.954  20.415  0.00  0.00    +0.000 C 
ATOM     14  C   UNL     1      -7.578  13.503  20.892  0.00  0.00    +0.000 C 
ATOM     15  C   UNL     1      -6.938  14.077  19.661  0.00  0.00    +0.000 C 
ATOM     16  C   UNL     1      -4.395  14.595  21.515  0.00  0.00    +0.000 C 
ATOM     17  F   UNL     1      -3.238  14.545  22.258  0.00  0.00    +0.000 F 
ATOM     18  F   UNL     1      -4.077  15.322  20.411  0.00  0.00    +0.000 F 
ATOM     19  C   UNL     1      -5.359  15.377  22.367  0.00  0.00    +0.000 C 
ATOM     20  S   UNL     1      -5.910  14.458  23.825  0.00  0.00    +0.000 S 
ATOM     21  H   UNL     1      -5.512  11.042  24.362  0.00  0.00    +0.000 HD
ATOM     22  H   UNL     1      -6.197  12.327  25.256  0.00  0.00    +0.000 HD
ENDROOT
BRANCH   7  23
ATOM     23  C   UNL     1      -0.003  12.771  19.733  0.00  0.00    +0.000 A 
ATOM     24  C   UNL     1       0.936  12.949  18.729  0.00  0.00    +0.000 A 
ATOM     25  N   UNL     1       2.221  13.323  18.926  0.00  0.00    +0.000 NA
ATOM     26  C   UNL     1       2.580  13.519  20.201  0.00  0.00    +0.000 A 
ATOM     27  N   UNL     1       1.784  13.379  21.269  0.00  0.00    +0.000 NA
ATOM     28  C   UNL     1       0.512  13.012  21.002  0.00  0.00    +0.000 A 
ENDBRANCH   7  23
TORSDOF 1
ENDMDL
MODEL 7
REMARK VINA RESULT:      -6.3     10.098     12.204
REMARK  Name = 
REMARK  1 active torsions:
REMARK  status: ('A' for Active; 'I' for Inactive)
REMARK    1  A    between atoms: C_7  and  C_8
REMARK                            x       y       z     vdW  Elec       q    Type
REMARK                         _______ _______ _______ _____ _____    ______ ____
ROOT
ATOM      1  N   UNL     1       7.187  17.255  18.280  0.00  0.00    +0.000 N 
ATOM      2  C   UNL     1       8.269  16.787  18.945  0.00  0.00    +0.000 C 
ATOM      3  N   UNL     1       8.455  15.516  19.052  0.00  0.00    +0.000 NA
ATOM      4  C   UNL     1       9.626  14.956  19.754  0.00  0.00    +0.000 C 
ATOM      5  C   UNL     1       9.290  13.525  20.293  0.00  0.00    +0.000 A 
ATOM      6  C   UNL     1       8.481  13.335  21.430  0.00  0.00    +0.000 A 
ATOM      7  C   UNL     1       8.413  12.113  22.131  0.00  0.00    +0.000 A 
ATOM      8  C   UNL     1       9.087  11.016  21.576  0.00  0.00    +0.000 A 
ATOM      9  C   UNL     1       9.786  11.139  20.378  0.00  0.00    +0.000 A 
ATOM     10  C   UNL     1       9.877  12.377  19.740  0.00  0.00    +0.000 A 
ATOM     11  O   UNL     1      10.591  12.365  18.575  0.00  0.00    +0.000 OA
ATOM     12  C   UNL     1      10.342  13.528  17.795  0.00  0.00    +0.000 C 
ATOM     13  C   UNL     1      10.691  14.746  18.621  0.00  0.00    +0.000 C 
ATOM     14  C   UNL     1      11.418  15.859  17.874  0.00  0.00    +0.000 C 
ATOM     15  C   UNL     1      12.180  14.987  18.830  0.00  0.00    +0.000 C 
ATOM     16  C   UNL     1       9.992  15.850  20.985  0.00  0.00    +0.000 C 
ATOM     17  F   UNL     1       8.894  16.013  21.797  0.00  0.00    +0.000 F 
ATOM     18  F   UNL     1      10.933  15.266  21.775  0.00  0.00    +0.000 F 
ATOM     19  C   UNL     1      10.424  17.252  20.646  0.00  0.00    +0.000 C 
ATOM     20  S   UNL     1       9.274  18.088  19.527  0.00  0.00    +0.000 S 
ATOM     21  H   UNL     1       6.746  16.568  17.680  0.00  0.00    +0.000 HD
ATOM     22  H   UNL     1       7.298  18.174  17.868  0.00  0.00    +0.000 HD
ENDROOT
BRANCH   7  23
ATOM     23  C   UNL     1       7.729  12.019  23.433  0.00  0.00    +0.000 A 
ATOM     24  C   UNL     1       8.368  12.163  24.655  0.00  0.00    +0.000 A 
ATOM     25  N   UNL     1       7.755  12.126  25.860  0.00  0.00    +0.000 NA
ATOM     26  C   UNL     1       6.431  11.926  25.832  0.00  0.00    +0.000 A 
ATOM     27  N   UNL     1       5.687  11.766  24.731  0.00  0.00    +0.000 NA
ATOM     28  C   UNL     1       6.359  11.821  23.561  0.00  0.00    +0.000 A 
ENDBRANCH   7  23
TORSDOF 1
ENDMDL
MODEL 8
REMARK VINA RESULT:      -6.3      9.068     12.350
REMARK  Name = 
REMARK  1 active torsions:
REMARK  status: ('A' for Active; 'I' for Inactive)
REMARK    1  A    between atoms: C_7  and  C_8
REMARK                            x       y       z     vdW  Elec       q    Type
REMARK                         _______ _______ _______ _____ _____    ______ ____
ROOT
ATOM      1  N   UNL     1      -2.838  14.459  24.449  0.00  0.00    +0.000 N 
ATOM      2  C   UNL     1      -3.744  14.783  23.496  0.00  0.00    +0.000 C 
ATOM      3  N   UNL     1      -4.485  13.865  22.978  0.00  0.00    +0.000 NA
ATOM      4  C   UNL     1      -5.497  14.170  21.947  0.00  0.00    +0.000 C 
ATOM      5  C   UNL     1      -5.756  12.903  21.065  0.00  0.00    +0.000 A 
ATOM      6  C   UNL     1      -4.838  12.486  20.082  0.00  0.00    +0.000 A 
ATOM      7  C   UNL     1      -5.164  11.564  19.065  0.00  0.00    +0.000 A 
ATOM      8  C   UNL     1      -6.423  10.950  19.135  0.00  0.00    +0.000 A 
ATOM      9  C   UNL     1      -7.303  11.241  20.174  0.00  0.00    +0.000 A 
ATOM     10  C   UNL     1      -6.968  12.199  21.133  0.00  0.00    +0.000 A 
ATOM     11  O   UNL     1      -7.917  12.393  22.097  0.00  0.00    +0.000 OA
ATOM     12  C   UNL     1      -7.385  13.079  23.224  0.00  0.00    +0.000 C 
ATOM     13  C   UNL     1      -6.817  14.401  22.760  0.00  0.00    +0.000 C 
ATOM     14  C   UNL     1      -7.096  15.590  23.674  0.00  0.00    +0.000 C 
ATOM     15  C   UNL     1      -7.848  15.456  22.381  0.00  0.00    +0.000 C 
ATOM     16  C   UNL     1      -4.976  15.303  21.003  0.00  0.00    +0.000 C 
ATOM     17  F   UNL     1      -3.750  14.962  20.481  0.00  0.00    +0.000 F 
ATOM     18  F   UNL     1      -5.785  15.476  19.923  0.00  0.00    +0.000 F 
ATOM     19  C   UNL     1      -4.747  16.633  21.672  0.00  0.00    +0.000 C 
ATOM     20  S   UNL     1      -3.746  16.497  23.173  0.00  0.00    +0.000 S 
ATOM     21  H   UNL     1      -3.001  13.555  24.878  0.00  0.00    +0.000 HD
ATOM     22  H   UNL     1      -2.606  15.204  25.096  0.00  0.00    +0.000 HD
ENDROOT
BRANCH   7  23
ATOM     23  C   UNL     1      -4.250  11.322  17.935  0.00  0.00    +0.000 A 
ATOM     24  C   UNL     1      -2.892  11.082  18.075  0.00  0.00    +0.000 A 
ATOM     25  N   UNL     1      -2.042  10.811  17.058  0.00  0.00    +0.000 NA
ATOM     26  C   UNL     1      -2.589  10.791  15.835  0.00  0.00    +0.000 A 
ATOM     27  N   UNL     1      -3.879  11.009  15.550  0.00  0.00    +0.000 NA
ATOM     28  C   UNL     1      -4.674  11.265  16.612  0.00  0.00    +0.000 A 
ENDBRANCH   7  23
TORSDOF 1
ENDMDL
MODEL 9
REMARK VINA RESULT:      -6.2      8.145     11.002
REMARK  Name = 
REMARK  1 active torsions:
REMARK  status: ('A' for Active; 'I' for Inactive)
REMARK    1  A    between atoms: C_7  and  C_8
REMARK                            x       y       z     vdW  Elec       q    Type
REMARK                         _______ _______ _______ _____ _____    ______ ____
ROOT
ATOM      1  N   UNL     1      -3.690  17.656  21.311  0.00  0.00    +0.000 N 
ATOM      2  C   UNL     1      -3.985  16.402  21.726  0.00  0.00    +0.000 C 
ATOM      3  N   UNL     1      -3.101  15.469  21.627  0.00  0.00    +0.000 NA
ATOM      4  C   UNL     1      -3.369  14.090  22.079  0.00  0.00    +0.000 C 
ATOM      5  C   UNL     1      -2.467  13.086  21.286  0.00  0.00    +0.000 A 
ATOM      6  C   UNL     1      -2.748  12.734  19.952  0.00  0.00    +0.000 A 
ATOM      7  C   UNL     1      -2.171  11.617  19.312  0.00  0.00    +0.000 A 
ATOM      8  C   UNL     1      -1.177  10.918  20.013  0.00  0.00    +0.000 A 
ATOM      9  C   UNL     1      -0.781  11.324  21.285  0.00  0.00    +0.000 A 
ATOM     10  C   UNL     1      -1.412  12.401  21.909  0.00  0.00    +0.000 A 
ATOM     11  O   UNL     1      -0.932  12.697  23.153  0.00  0.00    +0.000 OA
ATOM     12  C   UNL     1      -1.335  13.994  23.576  0.00  0.00    +0.000 C 
ATOM     13  C   UNL     1      -2.846  14.060  23.557  0.00  0.00    +0.000 C 
ATOM     14  C   UNL     1      -3.486  14.785  24.736  0.00  0.00    +0.000 C 
ATOM     15  C   UNL     1      -3.546  13.286  24.666  0.00  0.00    +0.000 C 
ATOM     16  C   UNL     1      -4.860  13.712  21.792  0.00  0.00    +0.000 C 
ATOM     17  F   UNL     1      -5.157  13.921  20.465  0.00  0.00    +0.000 F 
ATOM     18  F   UNL     1      -5.099  12.390  22.005  0.00  0.00    +0.000 F 
ATOM     19  C   UNL     1      -5.879  14.530  22.541  0.00  0.00    +0.000 C 
ATOM     20  S   UNL     1      -5.596  16.311  22.388  0.00  0.00    +0.000 S 
ATOM     21  H   UNL     1      -2.697  17.829  21.204  0.00  0.00    +0.000 HD
ATOM     22  H   UNL     1      -4.204  18.397  21.774  0.00  0.00    +0.000 HD
ENDROOT
BRANCH   7  23
ATOM     23  C   UNL     1      -2.652  11.160  17.997  0.00  0.00    +0.000 A 
ATOM     24  C   UNL     1      -3.866  11.537  17.443  0.00  0.00    +0.000 A 
ATOM     25  N   UNL     1      -4.308  11.168  16.219  0.00  0.00    +0.000 NA
ATOM     26  C   UNL     1      -3.489  10.371  15.522  0.00  0.00    +0.000 A 
ATOM     27  N   UNL     1      -2.295   9.925  15.931  0.00  0.00    +0.000 NA
ATOM     28  C   UNL     1      -1.909  10.337  17.158  0.00  0.00    +0.000 A 
ENDBRANCH   7  23
TORSDOF 1
ENDMDL
