MODEL 1
REMARK VINA RESULT:      -8.6      0.000      0.000
REMARK  Name = 
REMARK  5 active torsions:
REMARK  status: ('A' for Active; 'I' for Inactive)
REMARK    1  A    between atoms: C_1  and  N_2
REMARK    2  A    between atoms: C_4  and  N_5
REMARK    3  A    between atoms: C_11  and  N_12
REMARK    4  A    between atoms: N_12  and  C_13
REMARK    5  A    between atoms: C_14  and  C_15
REMARK                            x       y       z     vdW  Elec       q    Type
REMARK                         _______ _______ _______ _____ _____    ______ ____
ROOT
ATOM      1  N   UNL     1       1.983   6.320  20.913  0.00  0.00    +0.000 N 
ATOM      2  C   UNL     1       2.591   5.080  20.646  0.00  0.00    +0.000 A 
ATOM      3  N   UNL     1       2.108   4.048  21.358  0.00  0.00    +0.000 NA
ATOM      4  C   UNL     1       2.630   2.831  21.108  0.00  0.00    +0.000 A 
ATOM      5  C   UNL     1       3.639   2.602  20.204  0.00  0.00    +0.000 A 
ATOM      6  F   UNL     1       4.162   1.383  20.043  0.00  0.00    +0.000 F 
ATOM      7  C   UNL     1       4.148   3.716  19.569  0.00  0.00    +0.000 A 
ATOM      8  N   UNL     1       3.616   4.952  19.764  0.00  0.00    +0.000 NA
ATOM      9  H   UNL     1       1.407   6.213  21.739  0.00  0.00    +0.000 HD
ENDROOT
BRANCH   1  13
ATOM     10  C   UNL     1       0.815  10.732  19.208  0.00  0.00    +0.000 C 
ATOM     11  N   UNL     1       1.320   9.388  19.367  0.00  0.00    +0.000 N 
ATOM     12  C   UNL     1       1.241   8.589  20.476  0.00  0.00    +0.000 A 
ATOM     13  C   UNL     1       1.866   7.409  20.135  0.00  0.00    +0.000 A 
ATOM     14  C   UNL     1       2.267   7.596  18.797  0.00  0.00    +0.000 A 
ATOM     15  N   UNL     1       1.933   8.798  18.324  0.00  0.00    +0.000 NA
ENDBRANCH   1  13
BRANCH   7  16
ATOM     16  N   UNL     1       5.363   3.664  18.853  0.00  0.00    +0.000 N 
ATOM     17  H   UNL     1       5.974   4.051  19.583  0.00  0.00    +0.000 HD
BRANCH  16  18
ATOM     18  C   UNL     1       5.588   4.538  17.682  0.00  0.00    +0.000 C 
ATOM     19  C   UNL     1       6.385   5.876  17.827  0.00  0.00    +0.000 C 
ATOM     20  C   UNL     1       6.946   6.045  16.383  0.00  0.00    +0.000 C 
ATOM     21  C   UNL     1       5.797   6.070  15.388  0.00  0.00    +0.000 C 
ATOM     22  C   UNL     1       5.312   4.818  15.302  0.00  0.00    +0.000 C 
ATOM     23  C   UNL     1       6.075   3.977  16.317  0.00  0.00    +0.000 C 
ATOM     24  C   UNL     1       7.448   4.622  16.107  0.00  0.00    +0.000 C 
BRANCH  19  25
ATOM     25  C   UNL     1       7.536   6.006  18.831  0.00  0.00    +0.000 C 
ATOM     26  N   UNL     1       8.282   7.145  18.716  0.00  0.00    +0.000 N 
ATOM     27  O   UNL     1       7.887   5.125  19.600  0.00  0.00    +0.000 OA
ATOM     28  H   UNL     1       7.887   7.979  18.300  0.00  0.00    +0.000 HD
ATOM     29  H   UNL     1       9.055   7.247  19.359  0.00  0.00    +0.000 HD
ENDBRANCH  19  25
ENDBRANCH  16  18
ENDBRANCH   7  16
TORSDOF 4
ENDMDL
MODEL 2
REMARK VINA RESULT:      -8.6      3.206      6.863
REMARK  Name = 
REMARK  5 active torsions:
REMARK  status: ('A' for Active; 'I' for Inactive)
REMARK    1  A    between atoms: C_1  and  N_2
REMARK    2  A    between atoms: C_4  and  N_5
REMARK    3  A    between atoms: C_11  and  N_12
REMARK    4  A    between atoms: N_12  and  C_13
REMARK    5  A    between atoms: C_14  and  C_15
REMARK                            x       y       z     vdW  Elec       q    Type
REMARK                         _______ _______ _______ _____ _____    ______ ____
ROOT
ATOM      1  N   UNL     1       7.567   5.171  14.792  0.00  0.00    +0.000 N 
ATOM      2  C   UNL     1       7.013   5.235  16.083  0.00  0.00    +0.000 A 
ATOM      3  N   UNL     1       7.437   6.268  16.830  0.00  0.00    +0.000 NA
ATOM      4  C   UNL     1       6.904   6.396  18.061  0.00  0.00    +0.000 A 
ATOM      5  C   UNL     1       5.992   5.518  18.595  0.00  0.00    +0.000 A 
ATOM      6  F   UNL     1       5.545   5.659  19.846  0.00  0.00    +0.000 F 
ATOM      7  C   UNL     1       5.664   4.433  17.810  0.00  0.00    +0.000 A 
ATOM      8  N   UNL     1       6.149   4.295  16.546  0.00  0.00    +0.000 NA
ATOM      9  H   UNL     1       8.328   5.837  14.746  0.00  0.00    +0.000 HD
ENDROOT
BRANCH   1  13
ATOM     10  C   UNL     1       4.793   2.716  11.628  0.00  0.00    +0.000 C 
ATOM     11  N   UNL     1       5.838   3.489  12.257  0.00  0.00    +0.000 N 
ATOM     12  C   UNL     1       5.897   3.915  13.557  0.00  0.00    +0.000 A 
ATOM     13  C   UNL     1       7.080   4.611  13.671  0.00  0.00    +0.000 A 
ATOM     14  C   UNL     1       7.663   4.529  12.390  0.00  0.00    +0.000 A 
ATOM     15  N   UNL     1       6.912   3.843  11.528  0.00  0.00    +0.000 NA
ENDBRANCH   1  13
BRANCH   7  16
ATOM     16  N   UNL     1       4.983   3.317  18.343  0.00  0.00    +0.000 N 
ATOM     17  H   UNL     1       5.196   2.650  17.592  0.00  0.00    +0.000 HD
BRANCH  16  18
ATOM     18  C   UNL     1       3.507   3.308  18.438  0.00  0.00    +0.000 C 
ATOM     19  C   UNL     1       2.786   2.483  19.554  0.00  0.00    +0.000 C 
ATOM     20  C   UNL     1       1.459   3.286  19.706  0.00  0.00    +0.000 C 
ATOM     21  C   UNL     1       0.742   3.346  18.366  0.00  0.00    +0.000 C 
ATOM     22  C   UNL     1       1.433   4.188  17.577  0.00  0.00    +0.000 C 
ATOM     23  C   UNL     1       2.669   4.614  18.359  0.00  0.00    +0.000 C 
ATOM     24  C   UNL     1       1.999   4.722  19.733  0.00  0.00    +0.000 C 
BRANCH  19  25
ATOM     25  C   UNL     1       3.421   2.300  20.937  0.00  0.00    +0.000 C 
ATOM     26  N   UNL     1       2.579   2.500  21.995  0.00  0.00    +0.000 N 
ATOM     27  O   UNL     1       4.613   2.126  21.134  0.00  0.00    +0.000 OA
ATOM     28  H   UNL     1       1.579   2.384  21.886  0.00  0.00    +0.000 HD
ATOM     29  H   UNL     1       2.978   2.397  22.917  0.00  0.00    +0.000 HD
ENDBRANCH  19  25
ENDBRANCH  16  18
ENDBRANCH   7  16
TORSDOF 4
ENDMDL
MODEL 3
REMARK VINA RESULT:      -8.5      3.545      7.071
REMARK  Name = 
REMARK  5 active torsions:
REMARK  status: ('A' for Active; 'I' for Inactive)
REMARK    1  A    between atoms: C_1  and  N_2
REMARK    2  A    between atoms: C_4  and  N_5
REMARK    3  A    between atoms: C_11  and  N_12
REMARK    4  A    between atoms: N_12  and  C_13
REMARK    5  A    between atoms: C_14  and  C_15
REMARK                            x       y       z     vdW  Elec       q    Type
REMARK                         _______ _______ _______ _____ _____    ______ ____
ROOT
ATOM      1  N   UNL     1       6.959   4.331  13.715  0.00  0.00    +0.000 N 
ATOM      2  C   UNL     1       6.696   4.623  15.065  0.00  0.00    +0.000 A 
ATOM      3  N   UNL     1       7.352   5.691  15.550  0.00  0.00    +0.000 NA
ATOM      4  C   UNL     1       7.101   6.038  16.828  0.00  0.00    +0.000 A 
ATOM      5  C   UNL     1       6.252   5.344  17.656  0.00  0.00    +0.000 A 
ATOM      6  F   UNL     1       6.091   5.697  18.935  0.00  0.00    +0.000 F 
ATOM      7  C   UNL     1       5.678   4.210  17.123  0.00  0.00    +0.000 A 
ATOM      8  N   UNL     1       5.873   3.856  15.824  0.00  0.00    +0.000 NA
ATOM      9  H   UNL     1       7.746   4.895  13.421  0.00  0.00    +0.000 HD
ENDROOT
BRANCH   1  13
ATOM     10  C   UNL     1       3.293   3.013  10.788  0.00  0.00    +0.000 C 
ATOM     11  N   UNL     1       4.543   3.089  11.509  0.00  0.00    +0.000 N 
ATOM     12  C   UNL     1       4.942   4.056  12.393  0.00  0.00    +0.000 A 
ATOM     13  C   UNL     1       6.203   3.687  12.808  0.00  0.00    +0.000 A 
ATOM     14  C   UNL     1       6.460   2.480  12.129  0.00  0.00    +0.000 A 
ATOM     15  N   UNL     1       5.450   2.110  11.340  0.00  0.00    +0.000 NA
ENDBRANCH   1  13
BRANCH   7  16
ATOM     16  N   UNL     1       5.033   3.257  17.941  0.00  0.00    +0.000 N 
ATOM     17  H   UNL     1       5.163   2.439  17.333  0.00  0.00    +0.000 HD
BRANCH  16  18
ATOM     18  C   UNL     1       3.574   3.321  18.168  0.00  0.00    +0.000 C 
ATOM     19  C   UNL     1       2.911   2.504  19.326  0.00  0.00    +0.000 C 
ATOM     20  C   UNL     1       1.647   3.369  19.615  0.00  0.00    +0.000 C 
ATOM     21  C   UNL     1       0.819   3.501  18.346  0.00  0.00    +0.000 C 
ATOM     22  C   UNL     1       1.481   4.329  17.518  0.00  0.00    +0.000 C 
ATOM     23  C   UNL     1       2.802   4.669  18.194  0.00  0.00    +0.000 C 
ATOM     24  C   UNL     1       2.264   4.774  19.625  0.00  0.00    +0.000 C 
BRANCH  19  25
ATOM     25  C   UNL     1       3.656   2.251  20.642  0.00  0.00    +0.000 C 
ATOM     26  N   UNL     1       2.901   2.386  21.773  0.00  0.00    +0.000 N 
ATOM     27  O   UNL     1       4.860   2.077  20.734  0.00  0.00    +0.000 OA
ATOM     28  H   UNL     1       1.896   2.268  21.738  0.00  0.00    +0.000 HD
ATOM     29  H   UNL     1       3.373   2.237  22.654  0.00  0.00    +0.000 HD
ENDBRANCH  19  25
ENDBRANCH  16  18
ENDBRANCH   7  16
TORSDOF 4
ENDMDL
MODEL 4
REMARK VINA RESULT:      -8.3      2.908      5.132
REMARK  Name = 
REMARK  5 active torsions:
REMARK  status: ('A' for Active; 'I' for Inactive)
REMARK    1  A    between atoms: C_1  and  N_2
REMARK    2  A    between atoms: C_4  and  N_5
REMARK    3  A    between atoms: C_11  and  N_12
REMARK    4  A    between atoms: N_12  and  C_13
REMARK    5  A    between atoms: C_14  and  C_15
REMARK                            x       y       z     vdW  Elec       q    Type
REMARK                         _______ _______ _______ _____ _____    ______ ____
ROOT
ATOM      1  N   UNL     1       0.376   9.787  19.539  0.00  0.00    +0.000 N 
ATOM      2  C   UNL     1       1.377   8.893  19.119  0.00  0.00    +0.000 A 
ATOM      3  N   UNL     1       1.822   9.091  17.866  0.00  0.00    +0.000 NA
ATOM      4  C   UNL     1       2.811   8.285  17.431  0.00  0.00    +0.000 A 
ATOM      5  C   UNL     1       3.351   7.266  18.177  0.00  0.00    +0.000 A 
ATOM      6  F   UNL     1       4.287   6.458  17.670  0.00  0.00    +0.000 F 
ATOM      7  C   UNL     1       2.791   7.062  19.420  0.00  0.00    +0.000 A 
ATOM      8  N   UNL     1       1.823   7.883  19.909  0.00  0.00    +0.000 NA
ATOM      9  H   UNL     1       0.060  10.305  18.729  0.00  0.00    +0.000 HD
ENDROOT
BRANCH   1  13
ATOM     10  C   UNL     1      -1.556  12.214  23.297  0.00  0.00    +0.000 C 
ATOM     11  N   UNL     1      -0.816  11.294  22.464  0.00  0.00    +0.000 N 
ATOM     12  C   UNL     1      -0.816  11.217  21.096  0.00  0.00    +0.000 A 
ATOM     13  C   UNL     1       0.041  10.186  20.779  0.00  0.00    +0.000 A 
ATOM     14  C   UNL     1       0.514   9.724  22.023  0.00  0.00    +0.000 A 
ATOM     15  N   UNL     1      -0.002  10.398  23.051  0.00  0.00    +0.000 NA
ENDBRANCH   1  13
BRANCH   7  16
ATOM     16  N   UNL     1       3.042   5.884  20.156  0.00  0.00    +0.000 N 
ATOM     17  H   UNL     1       4.023   5.751  19.880  0.00  0.00    +0.000 HD
BRANCH  16  18
ATOM     18  C   UNL     1       2.381   4.612  19.795  0.00  0.00    +0.000 C 
ATOM     19  C   UNL     1       3.185   3.468  19.092  0.00  0.00    +0.000 C 
ATOM     20  C   UNL     1       2.374   2.216  19.544  0.00  0.00    +0.000 C 
ATOM     21  C   UNL     1       0.924   2.363  19.110  0.00  0.00    +0.000 C 
ATOM     22  C   UNL     1       0.361   3.297  19.896  0.00  0.00    +0.000 C 
ATOM     23  C   UNL     1       1.465   3.848  20.790  0.00  0.00    +0.000 C 
ATOM     24  C   UNL     1       2.191   2.522  21.036  0.00  0.00    +0.000 C 
BRANCH  19  25
ATOM     25  C   UNL     1       4.669   3.241  19.400  0.00  0.00    +0.000 C 
ATOM     26  N   UNL     1       5.002   1.963  19.750  0.00  0.00    +0.000 N 
ATOM     27  O   UNL     1       5.504   4.129  19.475  0.00  0.00    +0.000 OA
ATOM     28  H   UNL     1       4.429   1.183  19.454  0.00  0.00    +0.000 HD
ATOM     29  H   UNL     1       5.973   1.792  19.970  0.00  0.00    +0.000 HD
ENDBRANCH  19  25
ENDBRANCH  16  18
ENDBRANCH   7  16
TORSDOF 4
ENDMDL
MODEL 5
REMARK VINA RESULT:      -7.9      1.805      2.517
REMARK  Name = 
REMARK  5 active torsions:
REMARK  status: ('A' for Active; 'I' for Inactive)
REMARK    1  A    between atoms: C_1  and  N_2
REMARK    2  A    between atoms: C_4  and  N_5
REMARK    3  A    between atoms: C_11  and  N_12
REMARK    4  A    between atoms: N_12  and  C_13
REMARK    5  A    between atoms: C_14  and  C_15
REMARK                            x       y       z     vdW  Elec       q    Type
REMARK                         _______ _______ _______ _____ _____    ______ ____
ROOT
ATOM      1  N   UNL     1       1.964   5.568  20.766  0.00  0.00    +0.000 N 
ATOM      2  C   UNL     1       2.428   4.416  20.106  0.00  0.00    +0.000 A 
ATOM      3  N   UNL     1       2.003   3.254  20.630  0.00  0.00    +0.000 NA
ATOM      4  C   UNL     1       2.388   2.122  20.007  0.00  0.00    +0.000 A 
ATOM      5  C   UNL     1       3.207   2.096  18.904  0.00  0.00    +0.000 A 
ATOM      6  F   UNL     1       3.608   0.940  18.366  0.00  0.00    +0.000 F 
ATOM      7  C   UNL     1       3.676   3.317  18.469  0.00  0.00    +0.000 A 
ATOM      8  N   UNL     1       3.274   4.482  19.045  0.00  0.00    +0.000 NA
ATOM      9  H   UNL     1       1.532   5.277  21.634  0.00  0.00    +0.000 HD
ENDROOT
BRANCH   1  13
ATOM     10  C   UNL     1       2.051   9.566  17.983  0.00  0.00    +0.000 C 
ATOM     11  N   UNL     1       1.850   8.617  19.054  0.00  0.00    +0.000 N 
ATOM     12  C   UNL     1       2.181   7.288  19.068  0.00  0.00    +0.000 A 
ATOM     13  C   UNL     1       1.790   6.818  20.302  0.00  0.00    +0.000 A 
ATOM     14  C   UNL     1       1.255   7.945  20.957  0.00  0.00    +0.000 A 
ATOM     15  N   UNL     1       1.293   9.044  20.202  0.00  0.00    +0.000 NA
ENDBRANCH   1  13
BRANCH   7  16
ATOM     16  N   UNL     1       4.743   3.411  17.549  0.00  0.00    +0.000 N 
ATOM     17  H   UNL     1       5.111   2.458  17.663  0.00  0.00    +0.000 HD
BRANCH  16  18
ATOM     18  C   UNL     1       5.900   4.289  17.822  0.00  0.00    +0.000 C 
ATOM     19  C   UNL     1       6.951   4.594  16.704  0.00  0.00    +0.000 C 
ATOM     20  C   UNL     1       7.485   5.982  17.168  0.00  0.00    +0.000 C 
ATOM     21  C   UNL     1       8.042   5.868  18.579  0.00  0.00    +0.000 C 
ATOM     22  C   UNL     1       6.996   5.732  19.414  0.00  0.00    +0.000 C 
ATOM     23  C   UNL     1       5.745   5.654  18.550  0.00  0.00    +0.000 C 
ATOM     24  C   UNL     1       6.168   6.693  17.506  0.00  0.00    +0.000 C 
BRANCH  19  25
ATOM     25  C   UNL     1       6.534   4.685  15.231  0.00  0.00    +0.000 C 
ATOM     26  N   UNL     1       7.433   5.305  14.409  0.00  0.00    +0.000 N 
ATOM     27  O   UNL     1       5.436   4.370  14.801  0.00  0.00    +0.000 OA
ATOM     28  H   UNL     1       8.415   5.336  14.652  0.00  0.00    +0.000 HD
ATOM     29  H   UNL     1       7.175   5.388  13.436  0.00  0.00    +0.000 HD
ENDBRANCH  19  25
ENDBRANCH  16  18
ENDBRANCH   7  16
TORSDOF 4
ENDMDL
MODEL 6
REMARK VINA RESULT:      -7.8      1.383      1.631
REMARK  Name = 
REMARK  5 active torsions:
REMARK  status: ('A' for Active; 'I' for Inactive)
REMARK    1  A    between atoms: C_1  and  N_2
REMARK    2  A    between atoms: C_4  and  N_5
REMARK    3  A    between atoms: C_11  and  N_12
REMARK    4  A    between atoms: N_12  and  C_13
REMARK    5  A    between atoms: C_14  and  C_15
REMARK                            x       y       z     vdW  Elec       q    Type
REMARK                         _______ _______ _______ _____ _____    ______ ____
ROOT
ATOM      1  N   UNL     1       1.113   6.949  21.293  0.00  0.00    +0.000 N 
ATOM      2  C   UNL     1       1.819   5.939  20.617  0.00  0.00    +0.000 A 
ATOM      3  N   UNL     1       1.253   4.721  20.668  0.00  0.00    +0.000 NA
ATOM      4  C   UNL     1       1.871   3.727  20.000  0.00  0.00    +0.000 A 
ATOM      5  C   UNL     1       3.050   3.886  19.312  0.00  0.00    +0.000 A 
ATOM      6  F   UNL     1       3.651   2.849  18.721  0.00  0.00    +0.000 F 
ATOM      7  C   UNL     1       3.623   5.139  19.370  0.00  0.00    +0.000 A 
ATOM      8  N   UNL     1       3.005   6.176  19.997  0.00  0.00    +0.000 NA
ATOM      9  H   UNL     1       0.389   6.507  21.846  0.00  0.00    +0.000 HD
ENDROOT
BRANCH   1  13
ATOM     10  C   UNL     1       1.137  11.351  19.204  0.00  0.00    +0.000 C 
ATOM     11  N   UNL     1       1.133  10.255  20.145  0.00  0.00    +0.000 N 
ATOM     12  C   UNL     1       1.086   8.915  19.868  0.00  0.00    +0.000 A 
ATOM     13  C   UNL     1       1.102   8.279  21.090  0.00  0.00    +0.000 A 
ATOM     14  C   UNL     1       1.177   9.324  22.032  0.00  0.00    +0.000 A 
ATOM     15  N   UNL     1       1.200  10.529  21.461  0.00  0.00    +0.000 NA
ENDBRANCH   1  13
BRANCH   7  16
ATOM     16  N   UNL     1       4.957   5.358  18.967  0.00  0.00    +0.000 N 
ATOM     17  H   UNL     1       5.033   6.340  19.258  0.00  0.00    +0.000 HD
BRANCH  16  18
ATOM     18  C   UNL     1       5.321   5.368  17.534  0.00  0.00    +0.000 C 
ATOM     19  C   UNL     1       6.251   6.486  16.956  0.00  0.00    +0.000 C 
ATOM     20  C   UNL     1       6.885   5.745  15.741  0.00  0.00    +0.000 C 
ATOM     21  C   UNL     1       5.786   5.258  14.809  0.00  0.00    +0.000 C 
ATOM     22  C   UNL     1       5.174   4.225  15.415  0.00  0.00    +0.000 C 
ATOM     23  C   UNL     1       5.800   4.087  16.797  0.00  0.00    +0.000 C 
ATOM     24  C   UNL     1       7.243   4.400  16.385  0.00  0.00    +0.000 C 
BRANCH  19  25
ATOM     25  C   UNL     1       7.368   7.103  17.805  0.00  0.00    +0.000 C 
ATOM     26  N   UNL     1       7.863   8.290  17.342  0.00  0.00    +0.000 N 
ATOM     27  O   UNL     1       7.904   6.549  18.752  0.00  0.00    +0.000 OA
ATOM     28  H   UNL     1       7.298   8.887  16.751  0.00  0.00    +0.000 HD
ATOM     29  H   UNL     1       8.609   8.709  17.879  0.00  0.00    +0.000 HD
ENDBRANCH  19  25
ENDBRANCH  16  18
ENDBRANCH   7  16
TORSDOF 4
ENDMDL
MODEL 7
REMARK VINA RESULT:      -7.8      3.425      7.146
REMARK  Name = 
REMARK  5 active torsions:
REMARK  status: ('A' for Active; 'I' for Inactive)
REMARK    1  A    between atoms: C_1  and  N_2
REMARK    2  A    between atoms: C_4  and  N_5
REMARK    3  A    between atoms: C_11  and  N_12
REMARK    4  A    between atoms: N_12  and  C_13
REMARK    5  A    between atoms: C_14  and  C_15
REMARK                            x       y       z     vdW  Elec       q    Type
REMARK                         _______ _______ _______ _____ _____    ______ ____
ROOT
ATOM      1  N   UNL     1       7.057   4.499  14.157  0.00  0.00    +0.000 N 
ATOM      2  C   UNL     1       6.749   4.821  15.491  0.00  0.00    +0.000 A 
ATOM      3  N   UNL     1       7.359   5.922  15.963  0.00  0.00    +0.000 NA
ATOM      4  C   UNL     1       7.064   6.296  17.223  0.00  0.00    +0.000 A 
ATOM      5  C   UNL     1       6.214   5.599  18.049  0.00  0.00    +0.000 A 
ATOM      6  F   UNL     1       6.008   5.982  19.313  0.00  0.00    +0.000 F 
ATOM      7  C   UNL     1       5.689   4.433  17.534  0.00  0.00    +0.000 A 
ATOM      8  N   UNL     1       5.929   4.049  16.251  0.00  0.00    +0.000 NA
ATOM      9  H   UNL     1       7.834   5.080  13.868  0.00  0.00    +0.000 HD
ENDROOT
BRANCH   1  13
ATOM     10  C   UNL     1       5.712   1.309  10.729  0.00  0.00    +0.000 C 
ATOM     11  N   UNL     1       5.753   2.383  11.694  0.00  0.00    +0.000 N 
ATOM     12  C   UNL     1       6.789   2.727  12.522  0.00  0.00    +0.000 A 
ATOM     13  C   UNL     1       6.345   3.808  13.250  0.00  0.00    +0.000 A 
ATOM     14  C   UNL     1       5.041   4.045  12.772  0.00  0.00    +0.000 A 
ATOM     15  N   UNL     1       4.678   3.182  11.822  0.00  0.00    +0.000 NA
ENDBRANCH   1  13
BRANCH   7  16
ATOM     16  N   UNL     1       5.052   3.484  18.361  0.00  0.00    +0.000 N 
ATOM     17  H   UNL     1       5.311   2.641  17.834  0.00  0.00    +0.000 HD
BRANCH  16  18
ATOM     18  C   UNL     1       3.577   3.427  18.449  0.00  0.00    +0.000 C 
ATOM     19  C   UNL     1       2.877   2.524  19.518  0.00  0.00    +0.000 C 
ATOM     20  C   UNL     1       1.527   3.279  19.705  0.00  0.00    +0.000 C 
ATOM     21  C   UNL     1       0.813   3.387  18.367  0.00  0.00    +0.000 C 
ATOM     22  C   UNL     1       1.480   4.289  17.626  0.00  0.00    +0.000 C 
ATOM     23  C   UNL     1       2.701   4.710  18.434  0.00  0.00    +0.000 C 
ATOM     24  C   UNL     1       2.025   4.726  19.808  0.00  0.00    +0.000 C 
BRANCH  19  25
ATOM     25  C   UNL     1       3.513   2.288  20.893  0.00  0.00    +0.000 C 
ATOM     26  N   UNL     1       2.672   2.445  21.958  0.00  0.00    +0.000 N 
ATOM     27  O   UNL     1       4.706   2.108  21.082  0.00  0.00    +0.000 OA
ATOM     28  H   UNL     1       1.672   2.332  21.845  0.00  0.00    +0.000 HD
ATOM     29  H   UNL     1       3.071   2.307  22.875  0.00  0.00    +0.000 HD
ENDBRANCH  19  25
ENDBRANCH  16  18
ENDBRANCH   7  16
TORSDOF 4
ENDMDL
MODEL 8
REMARK VINA RESULT:      -7.8      3.741      7.349
REMARK  Name = 
REMARK  5 active torsions:
REMARK  status: ('A' for Active; 'I' for Inactive)
REMARK    1  A    between atoms: C_1  and  N_2
REMARK    2  A    between atoms: C_4  and  N_5
REMARK    3  A    between atoms: C_11  and  N_12
REMARK    4  A    between atoms: N_12  and  C_13
REMARK    5  A    between atoms: C_14  and  C_15
REMARK                            x       y       z     vdW  Elec       q    Type
REMARK                         _______ _______ _______ _____ _____    ______ ____
ROOT
ATOM      1  N   UNL     1       7.020   4.158  13.526  0.00  0.00    +0.000 N 
ATOM      2  C   UNL     1       6.774   4.613  14.834  0.00  0.00    +0.000 A 
ATOM      3  N   UNL     1       7.568   5.619  15.240  0.00  0.00    +0.000 NA
ATOM      4  C   UNL     1       7.344   6.118  16.472  0.00  0.00    +0.000 A 
ATOM      5  C   UNL     1       6.387   5.634  17.332  0.00  0.00    +0.000 A 
ATOM      6  F   UNL     1       6.253   6.127  18.566  0.00  0.00    +0.000 F 
ATOM      7  C   UNL     1       5.666   4.547  16.886  0.00  0.00    +0.000 A 
ATOM      8  N   UNL     1       5.834   4.046  15.633  0.00  0.00    +0.000 NA
ATOM      9  H   UNL     1       7.886   4.574  13.208  0.00  0.00    +0.000 HD
ENDROOT
BRANCH   1  13
ATOM     10  C   UNL     1       3.197   3.021  10.727  0.00  0.00    +0.000 C 
ATOM     11  N   UNL     1       4.467   3.029  11.415  0.00  0.00    +0.000 N 
ATOM     12  C   UNL     1       4.956   3.990  12.260  0.00  0.00    +0.000 A 
ATOM     13  C   UNL     1       6.197   3.544  12.657  0.00  0.00    +0.000 A 
ATOM     14  C   UNL     1       6.350   2.301  12.011  0.00  0.00    +0.000 A 
ATOM     15  N   UNL     1       5.297   1.982  11.257  0.00  0.00    +0.000 NA
ENDBRANCH   1  13
BRANCH   7  16
ATOM     16  N   UNL     1       4.874   3.778  17.766  0.00  0.00    +0.000 N 
ATOM     17  H   UNL     1       4.510   3.107  17.078  0.00  0.00    +0.000 HD
BRANCH  16  18
ATOM     18  C   UNL     1       3.667   4.355  18.395  0.00  0.00    +0.000 C 
ATOM     19  C   UNL     1       2.302   3.592  18.349  0.00  0.00    +0.000 C 
ATOM     20  C   UNL     1       1.607   4.148  19.628  0.00  0.00    +0.000 C 
ATOM     21  C   UNL     1       1.517   5.663  19.541  0.00  0.00    +0.000 C 
ATOM     22  C   UNL     1       2.756   6.152  19.722  0.00  0.00    +0.000 C 
ATOM     23  C   UNL     1       3.693   4.956  19.828  0.00  0.00    +0.000 C 
ATOM     24  C   UNL     1       2.758   4.052  20.638  0.00  0.00    +0.000 C 
BRANCH  19  25
ATOM     25  C   UNL     1       2.251   2.060  18.377  0.00  0.00    +0.000 C 
ATOM     26  N   UNL     1       1.015   1.523  18.604  0.00  0.00    +0.000 N 
ATOM     27  O   UNL     1       3.232   1.334  18.342  0.00  0.00    +0.000 OA
ATOM     28  H   UNL     1       0.178   2.046  18.380  0.00  0.00    +0.000 HD
ATOM     29  H   UNL     1       0.959   0.515  18.640  0.00  0.00    +0.000 HD
ENDBRANCH  19  25
ENDBRANCH  16  18
ENDBRANCH   7  16
TORSDOF 4
ENDMDL
MODEL 9
REMARK VINA RESULT:      -7.8      2.150      2.909
REMARK  Name = 
REMARK  5 active torsions:
REMARK  status: ('A' for Active; 'I' for Inactive)
REMARK    1  A    between atoms: C_1  and  N_2
REMARK    2  A    between atoms: C_4  and  N_5
REMARK    3  A    between atoms: C_11  and  N_12
REMARK    4  A    between atoms: N_12  and  C_13
REMARK    5  A    between atoms: C_14  and  C_15
REMARK                            x       y       z     vdW  Elec       q    Type
REMARK                         _______ _______ _______ _____ _____    ______ ____
ROOT
ATOM      1  N   UNL     1       1.465   6.892  21.275  0.00  0.00    +0.000 N 
ATOM      2  C   UNL     1       1.796   5.897  20.339  0.00  0.00    +0.000 A 
ATOM      3  N   UNL     1       1.382   4.658  20.659  0.00  0.00    +0.000 NA
ATOM      4  C   UNL     1       1.639   3.676  19.773  0.00  0.00    +0.000 A 
ATOM      5  C   UNL     1       2.323   3.867  18.596  0.00  0.00    +0.000 A 
ATOM      6  F   UNL     1       2.604   2.843  17.785  0.00  0.00    +0.000 F 
ATOM      7  C   UNL     1       2.794   5.143  18.369  0.00  0.00    +0.000 A 
ATOM      8  N   UNL     1       2.515   6.167  19.219  0.00  0.00    +0.000 NA
ATOM      9  H   UNL     1       1.124   6.433  22.111  0.00  0.00    +0.000 HD
ENDROOT
BRANCH   1  13
ATOM     10  C   UNL     1       0.978  11.318  19.297  0.00  0.00    +0.000 C 
ATOM     11  N   UNL     1       1.098  10.205  20.210  0.00  0.00    +0.000 N 
ATOM     12  C   UNL     1       1.214   8.876  19.900  0.00  0.00    +0.000 A 
ATOM     13  C   UNL     1       1.297   8.215  21.106  0.00  0.00    +0.000 A 
ATOM     14  C   UNL     1       1.239   9.237  22.074  0.00  0.00    +0.000 A 
ATOM     15  N   UNL     1       1.123  10.451  21.533  0.00  0.00    +0.000 NA
ENDBRANCH   1  13
BRANCH   7  16
ATOM     16  N   UNL     1       3.750   5.406  17.365  0.00  0.00    +0.000 N 
ATOM     17  H   UNL     1       3.470   4.669  16.706  0.00  0.00    +0.000 HD
BRANCH  16  18
ATOM     18  C   UNL     1       5.187   5.158  17.607  0.00  0.00    +0.000 C 
ATOM     19  C   UNL     1       6.046   4.368  16.565  0.00  0.00    +0.000 C 
ATOM     20  C   UNL     1       7.465   4.946  16.850  0.00  0.00    +0.000 C 
ATOM     21  C   UNL     1       7.826   4.715  18.309  0.00  0.00    +0.000 C 
ATOM     22  C   UNL     1       7.081   5.558  19.046  0.00  0.00    +0.000 C 
ATOM     23  C   UNL     1       6.148   6.282  18.084  0.00  0.00    +0.000 C 
ATOM     24  C   UNL     1       7.147   6.444  16.934  0.00  0.00    +0.000 C 
BRANCH  19  25
ATOM     25  C   UNL     1       5.757   4.469  15.063  0.00  0.00    +0.000 C 
ATOM     26  N   UNL     1       6.307   3.480  14.297  0.00  0.00    +0.000 N 
ATOM     27  O   UNL     1       5.202   5.414  14.526  0.00  0.00    +0.000 OA
ATOM     28  H   UNL     1       6.531   2.580  14.702  0.00  0.00    +0.000 HD
ATOM     29  H   UNL     1       6.141   3.532  13.302  0.00  0.00    +0.000 HD
ENDBRANCH  19  25
ENDBRANCH  16  18
ENDBRANCH   7  16
TORSDOF 4
ENDMDL
