MODEL 1
REMARK VINA RESULT:      -6.9      0.000      0.000
REMARK  Name = 
REMARK  8 active torsions:
REMARK  status: ('A' for Active; 'I' for Inactive)
REMARK    1  A    between atoms: C_1  and  C_2
REMARK    2  A    between atoms: C_2  and  N_3
REMARK    3  A    between atoms: C_5  and  C_6
REMARK    4  A    between atoms: C_8  and  C_9
REMARK    5  A    between atoms: C_12  and  S_13
REMARK    6  A    between atoms: S_13  and  C_14
REMARK    7  A    between atoms: C_17  and  N_18
REMARK    8  A    between atoms: N_22  and  C_23
REMARK                            x       y       z     vdW  Elec       q    Type
REMARK                         _______ _______ _______ _____ _____    ______ ____
ROOT
ATOM      1  C   UNL     1       1.499   9.654  18.528  0.00  0.00    +0.000 A 
ATOM      2  N   UNL     1       2.138   9.334  17.418  0.00  0.00    +0.000 NA
ATOM      3  N   UNL     1       2.634   8.062  17.560  0.00  0.00    +0.000 NA
ATOM      4  C   UNL     1       2.295   7.626  18.753  0.00  0.00    +0.000 A 
ATOM      5  N   UNL     1       1.626   8.617  19.424  0.00  0.00    +0.000 N 
ATOM      6  C   UNL     1       1.197   8.630  20.800  0.00  0.00    +0.000 C 
ENDROOT
BRANCH   1  12
ATOM      7  N   UNL     1      -0.596  11.002  18.670  0.00  0.00    +0.000 N 
ATOM      8  N   UNL     1      -1.018  12.268  18.905  0.00  0.00    +0.000 NA
ATOM      9  C   UNL     1       0.103  12.954  19.135  0.00  0.00    +0.000 A 
ATOM     10  C   UNL     1       0.069  14.394  19.485  0.00  0.00    +0.000 C 
ATOM     11  C   UNL     1       1.243  12.138  19.010  0.00  0.00    +0.000 A 
ATOM     12  C   UNL     1       0.775  10.872  18.712  0.00  0.00    +0.000 A 
BRANCH   7  14
ATOM     13  C   UNL     1      -1.990  10.002  16.888  0.00  0.00    +0.000 C 
ATOM     14  C   UNL     1      -1.593   9.994  18.354  0.00  0.00    +0.000 C 
ENDBRANCH   7  14
ENDBRANCH   1  12
BRANCH   4  15
ATOM     15  S   UNL     1       2.813   6.112  19.405  0.00  0.00    +0.000 S 
BRANCH  15  16
ATOM     16  C   UNL     1       3.935   5.590  18.163  0.00  0.00    +0.000 A 
ATOM     17  N   UNL     1       3.643   4.657  17.281  0.00  0.00    +0.000 NA
ATOM     18  C   UNL     1       4.776   4.324  16.556  0.00  0.00    +0.000 A 
ATOM     19  C   UNL     1       5.905   5.020  16.909  0.00  0.00    +0.000 A 
ATOM     20  S   UNL     1       5.568   6.145  18.137  0.00  0.00    +0.000 S 
BRANCH  19  21
ATOM     21  N   UNL     1       7.220   4.839  16.382  0.00  0.00    +0.000 N 
ATOM     22  O   UNL     1       7.429   5.323  15.262  0.00  0.00    +0.000 OA
ATOM     23  O   UNL     1       8.041   4.211  17.061  0.00  0.00    +0.000 OA
ENDBRANCH  19  21
ENDBRANCH  15  16
ENDBRANCH   4  15
TORSDOF 5
ENDMDL
MODEL 2
REMARK VINA RESULT:      -6.7      1.127      1.209
REMARK  Name = 
REMARK  8 active torsions:
REMARK  status: ('A' for Active; 'I' for Inactive)
REMARK    1  A    between atoms: C_1  and  C_2
REMARK    2  A    between atoms: C_2  and  N_3
REMARK    3  A    between atoms: C_5  and  C_6
REMARK    4  A    between atoms: C_8  and  C_9
REMARK    5  A    between atoms: C_12  and  S_13
REMARK    6  A    between atoms: S_13  and  C_14
REMARK    7  A    between atoms: C_17  and  N_18
REMARK    8  A    between atoms: N_22  and  C_23
REMARK                            x       y       z     vdW  Elec       q    Type
REMARK                         _______ _______ _______ _____ _____    ______ ____
ROOT
ATOM      1  C   UNL     1       1.772   9.289  18.539  0.00  0.00    +0.000 A 
ATOM      2  N   UNL     1       2.418   8.798  17.497  0.00  0.00    +0.000 NA
ATOM      3  N   UNL     1       2.754   7.496  17.775  0.00  0.00    +0.000 NA
ATOM      4  C   UNL     1       2.312   7.211  18.979  0.00  0.00    +0.000 A 
ATOM      5  N   UNL     1       1.735   8.330  19.526  0.00  0.00    +0.000 N 
ATOM      6  C   UNL     1       1.250   8.517  20.870  0.00  0.00    +0.000 C 
ENDROOT
BRANCH   1  12
ATOM      7  N   UNL     1      -0.160  10.867  18.560  0.00  0.00    +0.000 N 
ATOM      8  N   UNL     1      -0.436  12.191  18.634  0.00  0.00    +0.000 NA
ATOM      9  C   UNL     1       0.761  12.774  18.735  0.00  0.00    +0.000 A 
ATOM     10  C   UNL     1       0.895  14.242  18.888  0.00  0.00    +0.000 C 
ATOM     11  C   UNL     1       1.802  11.827  18.688  0.00  0.00    +0.000 A 
ATOM     12  C   UNL     1       1.190  10.593  18.577  0.00  0.00    +0.000 A 
BRANCH   7  14
ATOM     13  C   UNL     1      -1.944  10.046  17.056  0.00  0.00    +0.000 C 
ATOM     14  C   UNL     1      -1.272   9.942  18.413  0.00  0.00    +0.000 C 
ENDBRANCH   7  14
ENDBRANCH   1  12
BRANCH   4  15
ATOM     15  S   UNL     1       2.618   5.714  19.786  0.00  0.00    +0.000 S 
BRANCH  15  16
ATOM     16  C   UNL     1       4.139   5.253  19.047  0.00  0.00    +0.000 A 
ATOM     17  N   UNL     1       5.308   5.629  19.522  0.00  0.00    +0.000 NA
ATOM     18  C   UNL     1       6.312   5.278  18.634  0.00  0.00    +0.000 A 
ATOM     19  C   UNL     1       5.874   4.639  17.501  0.00  0.00    +0.000 A 
ATOM     20  S   UNL     1       4.189   4.423  17.536  0.00  0.00    +0.000 S 
BRANCH  19  21
ATOM     21  N   UNL     1       6.671   4.226  16.391  0.00  0.00    +0.000 N 
ATOM     22  O   UNL     1       6.065   3.686  15.455  0.00  0.00    +0.000 OA
ATOM     23  O   UNL     1       7.891   4.419  16.442  0.00  0.00    +0.000 OA
ENDBRANCH  19  21
ENDBRANCH  15  16
ENDBRANCH   4  15
TORSDOF 5
ENDMDL
MODEL 3
REMARK VINA RESULT:      -6.6      1.056      1.896
REMARK  Name = 
REMARK  8 active torsions:
REMARK  status: ('A' for Active; 'I' for Inactive)
REMARK    1  A    between atoms: C_1  and  C_2
REMARK    2  A    between atoms: C_2  and  N_3
REMARK    3  A    between atoms: C_5  and  C_6
REMARK    4  A    between atoms: C_8  and  C_9
REMARK    5  A    between atoms: C_12  and  S_13
REMARK    6  A    between atoms: S_13  and  C_14
REMARK    7  A    between atoms: C_17  and  N_18
REMARK    8  A    between atoms: N_22  and  C_23
REMARK                            x       y       z     vdW  Elec       q    Type
REMARK                         _______ _______ _______ _____ _____    ______ ____
ROOT
ATOM      1  C   UNL     1       1.215   9.375  18.748  0.00  0.00    +0.000 A 
ATOM      2  N   UNL     1       1.860   9.198  17.609  0.00  0.00    +0.000 NA
ATOM      3  N   UNL     1       2.593   8.042  17.707  0.00  0.00    +0.000 NA
ATOM      4  C   UNL     1       2.389   7.532  18.901  0.00  0.00    +0.000 A 
ATOM      5  N   UNL     1       1.571   8.369  19.616  0.00  0.00    +0.000 N 
ATOM      6  C   UNL     1       1.201   8.280  21.007  0.00  0.00    +0.000 C 
ENDROOT
BRANCH   1  12
ATOM      7  N   UNL     1       0.607  11.745  19.235  0.00  0.00    +0.000 N 
ATOM      8  N   UNL     1      -0.478  12.542  19.393  0.00  0.00    +0.000 NA
ATOM      9  C   UNL     1      -1.518  11.727  19.204  0.00  0.00    +0.000 A 
ATOM     10  C   UNL     1      -2.912  12.230  19.245  0.00  0.00    +0.000 C 
ATOM     11  C   UNL     1      -1.100  10.404  18.962  0.00  0.00    +0.000 A 
ATOM     12  C   UNL     1       0.281  10.431  18.982  0.00  0.00    +0.000 A 
BRANCH   7  14
ATOM     13  C   UNL     1       2.482  12.908  18.116  0.00  0.00    +0.000 C 
ATOM     14  C   UNL     1       1.923  12.337  19.407  0.00  0.00    +0.000 C 
ENDBRANCH   7  14
ENDBRANCH   1  12
BRANCH   4  15
ATOM     15  S   UNL     1       3.210   6.135  19.502  0.00  0.00    +0.000 S 
BRANCH  15  16
ATOM     16  C   UNL     1       4.067   5.618  18.063  0.00  0.00    +0.000 A 
ATOM     17  N   UNL     1       3.660   4.618  17.308  0.00  0.00    +0.000 NA
ATOM     18  C   UNL     1       4.627   4.318  16.362  0.00  0.00    +0.000 A 
ATOM     19  C   UNL     1       5.749   5.106  16.424  0.00  0.00    +0.000 A 
ATOM     20  S   UNL     1       5.607   6.275  17.648  0.00  0.00    +0.000 S 
BRANCH  19  21
ATOM     21  N   UNL     1       6.925   4.981  15.624  0.00  0.00    +0.000 N 
ATOM     22  O   UNL     1       6.848   5.423  14.470  0.00  0.00    +0.000 OA
ATOM     23  O   UNL     1       7.918   4.438  16.123  0.00  0.00    +0.000 OA
ENDBRANCH  19  21
ENDBRANCH  15  16
ENDBRANCH   4  15
TORSDOF 5
ENDMDL
MODEL 4
REMARK VINA RESULT:      -6.5      4.137      6.018
REMARK  Name = 
REMARK  8 active torsions:
REMARK  status: ('A' for Active; 'I' for Inactive)
REMARK    1  A    between atoms: C_1  and  C_2
REMARK    2  A    between atoms: C_2  and  N_3
REMARK    3  A    between atoms: C_5  and  C_6
REMARK    4  A    between atoms: C_8  and  C_9
REMARK    5  A    between atoms: C_12  and  S_13
REMARK    6  A    between atoms: S_13  and  C_14
REMARK    7  A    between atoms: C_17  and  N_18
REMARK    8  A    between atoms: N_22  and  C_23
REMARK                            x       y       z     vdW  Elec       q    Type
REMARK                         _______ _______ _______ _____ _____    ______ ____
ROOT
ATOM      1  C   UNL     1       4.011   5.681  18.274  0.00  0.00    +0.000 A 
ATOM      2  N   UNL     1       3.673   6.466  17.267  0.00  0.00    +0.000 NA
ATOM      3  N   UNL     1       4.775   6.636  16.467  0.00  0.00    +0.000 NA
ATOM      4  C   UNL     1       5.769   5.958  16.997  0.00  0.00    +0.000 A 
ATOM      5  N   UNL     1       5.351   5.384  18.171  0.00  0.00    +0.000 N 
ATOM      6  C   UNL     1       6.139   4.676  19.148  0.00  0.00    +0.000 C 
ENDROOT
BRANCH   1  12
ATOM      7  N   UNL     1       2.219   5.997  19.981  0.00  0.00    +0.000 N 
ATOM      8  N   UNL     1       1.443   5.287  20.836  0.00  0.00    +0.000 NA
ATOM      9  C   UNL     1       1.806   4.019  20.637  0.00  0.00    +0.000 A 
ATOM     10  C   UNL     1       1.148   2.904  21.359  0.00  0.00    +0.000 C 
ATOM     11  C   UNL     1       2.838   3.920  19.684  0.00  0.00    +0.000 A 
ATOM     12  C   UNL     1       3.094   5.211  19.264  0.00  0.00    +0.000 A 
BRANCH   7  14
ATOM     13  C   UNL     1       1.206   7.957  21.101  0.00  0.00    +0.000 C 
ATOM     14  C   UNL     1       2.083   7.444  19.972  0.00  0.00    +0.000 C 
ENDBRANCH   7  14
ENDBRANCH   1  12
BRANCH   4  15
ATOM     15  S   UNL     1       7.385   5.986  16.385  0.00  0.00    +0.000 S 
BRANCH  15  16
ATOM     16  C   UNL     1       7.172   5.135  14.867  0.00  0.00    +0.000 A 
ATOM     17  N   UNL     1       7.802   5.475  13.762  0.00  0.00    +0.000 NA
ATOM     18  C   UNL     1       7.297   4.754  12.691  0.00  0.00    +0.000 A 
ATOM     19  C   UNL     1       6.292   3.878  13.017  0.00  0.00    +0.000 A 
ATOM     20  S   UNL     1       5.977   3.905  14.686  0.00  0.00    +0.000 S 
BRANCH  19  21
ATOM     21  N   UNL     1       5.545   3.061  12.115  0.00  0.00    +0.000 N 
ATOM     22  O   UNL     1       6.128   2.059  11.678  0.00  0.00    +0.000 OA
ATOM     23  O   UNL     1       4.395   3.409  11.825  0.00  0.00    +0.000 OA
ENDBRANCH  19  21
ENDBRANCH  15  16
ENDBRANCH   4  15
TORSDOF 5
ENDMDL
MODEL 5
REMARK VINA RESULT:      -6.5      5.260      6.700
REMARK  Name = 
REMARK  8 active torsions:
REMARK  status: ('A' for Active; 'I' for Inactive)
REMARK    1  A    between atoms: C_1  and  C_2
REMARK    2  A    between atoms: C_2  and  N_3
REMARK    3  A    between atoms: C_5  and  C_6
REMARK    4  A    between atoms: C_8  and  C_9
REMARK    5  A    between atoms: C_12  and  S_13
REMARK    6  A    between atoms: S_13  and  C_14
REMARK    7  A    between atoms: C_17  and  N_18
REMARK    8  A    between atoms: N_22  and  C_23
REMARK                            x       y       z     vdW  Elec       q    Type
REMARK                         _______ _______ _______ _____ _____    ______ ____
ROOT
ATOM      1  C   UNL     1       3.496   5.033  18.718  0.00  0.00    +0.000 A 
ATOM      2  N   UNL     1       2.966   6.060  18.079  0.00  0.00    +0.000 NA
ATOM      3  N   UNL     1       3.960   6.679  17.364  0.00  0.00    +0.000 NA
ATOM      4  C   UNL     1       5.081   6.026  17.578  0.00  0.00    +0.000 A 
ATOM      5  N   UNL     1       4.849   5.012  18.473  0.00  0.00    +0.000 N 
ATOM      6  C   UNL     1       5.810   4.137  19.098  0.00  0.00    +0.000 C 
ENDROOT
BRANCH   1  12
ATOM      7  N   UNL     1       2.312   2.864  19.064  0.00  0.00    +0.000 N 
ATOM      8  N   UNL     1       1.641   2.172  20.017  0.00  0.00    +0.000 NA
ATOM      9  C   UNL     1       1.673   2.966  21.088  0.00  0.00    +0.000 A 
ATOM     10  C   UNL     1       1.078   2.547  22.380  0.00  0.00    +0.000 C 
ATOM     11  C   UNL     1       2.330   4.181  20.811  0.00  0.00    +0.000 A 
ATOM     12  C   UNL     1       2.742   4.099  19.495  0.00  0.00    +0.000 A 
BRANCH   7  14
ATOM     13  C   UNL     1       3.753   1.544  17.547  0.00  0.00    +0.000 C 
ATOM     14  C   UNL     1       2.434   2.270  17.743  0.00  0.00    +0.000 C 
ENDBRANCH   7  14
ENDBRANCH   1  12
BRANCH   4  15
ATOM     15  S   UNL     1       6.618   6.529  16.969  0.00  0.00    +0.000 S 
BRANCH  15  16
ATOM     16  C   UNL     1       6.750   5.518  15.543  0.00  0.00    +0.000 A 
ATOM     17  N   UNL     1       7.781   5.565  14.726  0.00  0.00    +0.000 NA
ATOM     18  C   UNL     1       7.523   4.802  13.598  0.00  0.00    +0.000 A 
ATOM     19  C   UNL     1       6.294   4.190  13.592  0.00  0.00    +0.000 A 
ATOM     20  S   UNL     1       5.441   4.523  15.023  0.00  0.00    +0.000 S 
BRANCH  19  21
ATOM     21  N   UNL     1       5.737   3.404  12.539  0.00  0.00    +0.000 N 
ATOM     22  O   UNL     1       4.531   3.573  12.312  0.00  0.00    +0.000 OA
ATOM     23  O   UNL     1       6.477   2.613  11.943  0.00  0.00    +0.000 OA
ENDBRANCH  19  21
ENDBRANCH  15  16
ENDBRANCH   4  15
TORSDOF 5
ENDMDL
MODEL 6
REMARK VINA RESULT:      -6.4      1.574      2.290
REMARK  Name = 
REMARK  8 active torsions:
REMARK  status: ('A' for Active; 'I' for Inactive)
REMARK    1  A    between atoms: C_1  and  C_2
REMARK    2  A    between atoms: C_2  and  N_3
REMARK    3  A    between atoms: C_5  and  C_6
REMARK    4  A    between atoms: C_8  and  C_9
REMARK    5  A    between atoms: C_12  and  S_13
REMARK    6  A    between atoms: S_13  and  C_14
REMARK    7  A    between atoms: C_17  and  N_18
REMARK    8  A    between atoms: N_22  and  C_23
REMARK                            x       y       z     vdW  Elec       q    Type
REMARK                         _______ _______ _______ _____ _____    ______ ____
ROOT
ATOM      1  C   UNL     1       1.713   8.993  18.523  0.00  0.00    +0.000 A 
ATOM      2  N   UNL     1       2.397   8.764  17.417  0.00  0.00    +0.000 NA
ATOM      3  N   UNL     1       3.057   7.569  17.560  0.00  0.00    +0.000 NA
ATOM      4  C   UNL     1       2.770   7.087  18.748  0.00  0.00    +0.000 A 
ATOM      5  N   UNL     1       1.970   7.979  19.417  0.00  0.00    +0.000 N 
ATOM      6  C   UNL     1       1.533   7.930  20.790  0.00  0.00    +0.000 C 
ENDROOT
BRANCH   1  12
ATOM      7  N   UNL     1       1.168  11.428  18.523  0.00  0.00    +0.000 N 
ATOM      8  N   UNL     1       0.130  12.273  18.735  0.00  0.00    +0.000 NA
ATOM      9  C   UNL     1      -0.897  11.472  19.024  0.00  0.00    +0.000 A 
ATOM     10  C   UNL     1      -2.253  12.014  19.279  0.00  0.00    +0.000 C 
ATOM     11  C   UNL     1      -0.509  10.118  19.033  0.00  0.00    +0.000 A 
ATOM     12  C   UNL     1       0.832  10.103  18.703  0.00  0.00    +0.000 A 
BRANCH   7  14
ATOM     13  C   UNL     1       2.456  13.518  18.228  0.00  0.00    +0.000 C 
ATOM     14  C   UNL     1       2.465  12.000  18.207  0.00  0.00    +0.000 C 
ENDBRANCH   7  14
ENDBRANCH   1  12
BRANCH   4  15
ATOM     15  S   UNL     1       3.481   5.654  19.401  0.00  0.00    +0.000 S 
BRANCH  15  16
ATOM     16  C   UNL     1       4.821   5.423  18.295  0.00  0.00    +0.000 A 
ATOM     17  N   UNL     1       5.979   6.034  18.438  0.00  0.00    +0.000 NA
ATOM     18  C   UNL     1       6.770   5.810  17.322  0.00  0.00    +0.000 A 
ATOM     19  C   UNL     1       6.186   5.028  16.357  0.00  0.00    +0.000 A 
ATOM     20  S   UNL     1       4.640   4.516  16.840  0.00  0.00    +0.000 S 
BRANCH  19  21
ATOM     21  N   UNL     1       6.736   4.690  15.083  0.00  0.00    +0.000 N 
ATOM     22  O   UNL     1       6.249   3.698  14.525  0.00  0.00    +0.000 OA
ATOM     23  O   UNL     1       7.654   5.389  14.638  0.00  0.00    +0.000 OA
ENDBRANCH  19  21
ENDBRANCH  15  16
ENDBRANCH   4  15
TORSDOF 5
ENDMDL
MODEL 7
REMARK VINA RESULT:      -6.4      1.908      2.809
REMARK  Name = 
REMARK  8 active torsions:
REMARK  status: ('A' for Active; 'I' for Inactive)
REMARK    1  A    between atoms: C_1  and  C_2
REMARK    2  A    between atoms: C_2  and  N_3
REMARK    3  A    between atoms: C_5  and  C_6
REMARK    4  A    between atoms: C_8  and  C_9
REMARK    5  A    between atoms: C_12  and  S_13
REMARK    6  A    between atoms: S_13  and  C_14
REMARK    7  A    between atoms: C_17  and  N_18
REMARK    8  A    between atoms: N_22  and  C_23
REMARK                            x       y       z     vdW  Elec       q    Type
REMARK                         _______ _______ _______ _____ _____    ______ ____
ROOT
ATOM      1  C   UNL     1       2.215   7.925  18.886  0.00  0.00    +0.000 A 
ATOM      2  N   UNL     1       3.205   8.093  18.028  0.00  0.00    +0.000 NA
ATOM      3  N   UNL     1       3.950   6.940  18.002  0.00  0.00    +0.000 NA
ATOM      4  C   UNL     1       3.408   6.088  18.844  0.00  0.00    +0.000 A 
ATOM      5  N   UNL     1       2.343   6.686  19.470  0.00  0.00    +0.000 N 
ATOM      6  C   UNL     1       1.550   6.178  20.561  0.00  0.00    +0.000 C 
ENDROOT
BRANCH   1  12
ATOM      7  N   UNL     1       0.825   9.405  20.336  0.00  0.00    +0.000 N 
ATOM      8  N   UNL     1      -0.172  10.320  20.257  0.00  0.00    +0.000 NA
ATOM      9  C   UNL     1      -0.435  10.411  18.952  0.00  0.00    +0.000 A 
ATOM     10  C   UNL     1      -1.451  11.358  18.433  0.00  0.00    +0.000 C 
ATOM     11  C   UNL     1       0.366   9.530  18.201  0.00  0.00    +0.000 A 
ATOM     12  C   UNL     1       1.181   8.885  19.111  0.00  0.00    +0.000 A 
BRANCH   7  14
ATOM     13  C   UNL     1       0.371   9.431  22.768  0.00  0.00    +0.000 C 
ATOM     14  C   UNL     1       1.329   9.053  21.653  0.00  0.00    +0.000 C 
ENDBRANCH   7  14
ENDBRANCH   1  12
BRANCH   4  15
ATOM     15  S   UNL     1       4.090   4.546  19.223  0.00  0.00    +0.000 S 
BRANCH  15  16
ATOM     16  C   UNL     1       5.321   4.422  17.981  0.00  0.00    +0.000 A 
ATOM     17  N   UNL     1       6.605   4.583  18.228  0.00  0.00    +0.000 NA
ATOM     18  C   UNL     1       7.312   4.618  17.037  0.00  0.00    +0.000 A 
ATOM     19  C   UNL     1       6.540   4.480  15.910  0.00  0.00    +0.000 A 
ATOM     20  S   UNL     1       4.905   4.261  16.315  0.00  0.00    +0.000 S 
BRANCH  19  21
ATOM     21  N   UNL     1       6.987   4.546  14.556  0.00  0.00    +0.000 N 
ATOM     22  O   UNL     1       7.864   5.385  14.311  0.00  0.00    +0.000 OA
ATOM     23  O   UNL     1       6.469   3.784  13.731  0.00  0.00    +0.000 OA
ENDBRANCH  19  21
ENDBRANCH  15  16
ENDBRANCH   4  15
TORSDOF 5
ENDMDL
MODEL 8
REMARK VINA RESULT:      -6.3      4.938      8.357
REMARK  Name = 
REMARK  8 active torsions:
REMARK  status: ('A' for Active; 'I' for Inactive)
REMARK    1  A    between atoms: C_1  and  C_2
REMARK    2  A    between atoms: C_2  and  N_3
REMARK    3  A    between atoms: C_5  and  C_6
REMARK    4  A    between atoms: C_8  and  C_9
REMARK    5  A    between atoms: C_12  and  S_13
REMARK    6  A    between atoms: S_13  and  C_14
REMARK    7  A    between atoms: C_17  and  N_18
REMARK    8  A    between atoms: N_22  and  C_23
REMARK                            x       y       z     vdW  Elec       q    Type
REMARK                         _______ _______ _______ _____ _____    ______ ____
ROOT
ATOM      1  C   UNL     1       2.186   7.185  19.045  0.00  0.00    +0.000 A 
ATOM      2  N   UNL     1       2.461   7.456  17.782  0.00  0.00    +0.000 NA
ATOM      3  N   UNL     1       2.220   8.790  17.568  0.00  0.00    +0.000 NA
ATOM      4  C   UNL     1       1.800   9.313  18.698  0.00  0.00    +0.000 A 
ATOM      5  N   UNL     1       1.707   8.326  19.646  0.00  0.00    +0.000 N 
ATOM      6  C   UNL     1       1.159   8.416  20.977  0.00  0.00    +0.000 C 
ENDROOT
BRANCH   1  12
ATOM      7  N   UNL     1       3.594   5.218  19.657  0.00  0.00    +0.000 N 
ATOM      8  N   UNL     1       3.526   4.046  20.334  0.00  0.00    +0.000 NA
ATOM      9  C   UNL     1       2.277   4.005  20.802  0.00  0.00    +0.000 A 
ATOM     10  C   UNL     1       1.806   2.885  21.652  0.00  0.00    +0.000 C 
ATOM     11  C   UNL     1       1.536   5.131  20.395  0.00  0.00    +0.000 A 
ATOM     12  C   UNL     1       2.403   5.911  19.655  0.00  0.00    +0.000 A 
BRANCH   7  14
ATOM     13  C   UNL     1       5.304   4.472  18.033  0.00  0.00    +0.000 C 
ATOM     14  C   UNL     1       4.841   5.555  18.992  0.00  0.00    +0.000 C 
ENDBRANCH   7  14
ENDBRANCH   1  12
BRANCH   4  15
ATOM     15  S   UNL     1       1.263  10.948  18.859  0.00  0.00    +0.000 S 
BRANCH  15  16
ATOM     16  C   UNL     1      -0.443  10.766  18.495  0.00  0.00    +0.000 A 
ATOM     17  N   UNL     1      -0.902   9.870  17.646  0.00  0.00    +0.000 NA
ATOM     18  C   UNL     1      -2.252  10.086  17.418  0.00  0.00    +0.000 A 
ATOM     19  C   UNL     1      -2.784  11.147  18.108  0.00  0.00    +0.000 A 
ATOM     20  S   UNL     1      -1.613  11.881  19.096  0.00  0.00    +0.000 S 
BRANCH  19  21
ATOM     21  N   UNL     1      -4.121  11.640  18.018  0.00  0.00    +0.000 N 
ATOM     22  O   UNL     1      -4.671  11.523  16.914  0.00  0.00    +0.000 OA
ATOM     23  O   UNL     1      -4.626  12.151  19.023  0.00  0.00    +0.000 OA
ENDBRANCH  19  21
ENDBRANCH  15  16
ENDBRANCH   4  15
TORSDOF 5
ENDMDL
MODEL 9
REMARK VINA RESULT:      -6.3      4.368      8.170
REMARK  Name = 
REMARK  8 active torsions:
REMARK  status: ('A' for Active; 'I' for Inactive)
REMARK    1  A    between atoms: C_1  and  C_2
REMARK    2  A    between atoms: C_2  and  N_3
REMARK    3  A    between atoms: C_5  and  C_6
REMARK    4  A    between atoms: C_8  and  C_9
REMARK    5  A    between atoms: C_12  and  S_13
REMARK    6  A    between atoms: S_13  and  C_14
REMARK    7  A    between atoms: C_17  and  N_18
REMARK    8  A    between atoms: N_22  and  C_23
REMARK                            x       y       z     vdW  Elec       q    Type
REMARK                         _______ _______ _______ _____ _____    ______ ____
ROOT
ATOM      1  C   UNL     1       2.869   7.505  18.081  0.00  0.00    +0.000 A 
ATOM      2  N   UNL     1       2.653   8.444  17.178  0.00  0.00    +0.000 NA
ATOM      3  N   UNL     1       1.835   9.395  17.736  0.00  0.00    +0.000 NA
ATOM      4  C   UNL     1       1.560   9.023  18.966  0.00  0.00    +0.000 A 
ATOM      5  N   UNL     1       2.144   7.806  19.212  0.00  0.00    +0.000 N 
ATOM      6  C   UNL     1       1.992   6.961  20.370  0.00  0.00    +0.000 C 
ENDROOT
BRANCH   1  12
ATOM      7  N   UNL     1       3.358   5.094  17.664  0.00  0.00    +0.000 N 
ATOM      8  N   UNL     1       4.401   4.248  17.486  0.00  0.00    +0.000 NA
ATOM      9  C   UNL     1       5.479   5.030  17.563  0.00  0.00    +0.000 A 
ATOM     10  C   UNL     1       6.845   4.486  17.370  0.00  0.00    +0.000 C 
ATOM     11  C   UNL     1       5.129   6.368  17.828  0.00  0.00    +0.000 A 
ATOM     12  C   UNL     1       3.749   6.396  17.887  0.00  0.00    +0.000 A 
BRANCH   7  14
ATOM     13  C   UNL     1       1.960   3.139  18.248  0.00  0.00    +0.000 C 
ATOM     14  C   UNL     1       2.015   4.538  17.661  0.00  0.00    +0.000 C 
ENDBRANCH   7  14
ENDBRANCH   1  12
BRANCH   4  15
ATOM     15  S   UNL     1       0.462   9.864  20.001  0.00  0.00    +0.000 S 
BRANCH  15  16
ATOM     16  C   UNL     1      -0.535  10.687  18.817  0.00  0.00    +0.000 A 
ATOM     17  N   UNL     1      -0.565  11.998  18.695  0.00  0.00    +0.000 NA
ATOM     18  C   UNL     1      -1.574  12.366  17.819  0.00  0.00    +0.000 A 
ATOM     19  C   UNL     1      -2.286  11.315  17.295  0.00  0.00    +0.000 A 
ATOM     20  S   UNL     1      -1.682   9.830  17.857  0.00  0.00    +0.000 S 
BRANCH  19  21
ATOM     21  N   UNL     1      -3.415  11.399  16.426  0.00  0.00    +0.000 N 
ATOM     22  O   UNL     1      -4.506  11.623  16.969  0.00  0.00    +0.000 OA
ATOM     23  O   UNL     1      -3.236  11.231  15.214  0.00  0.00    +0.000 OA
ENDBRANCH  19  21
ENDBRANCH  15  16
ENDBRANCH   4  15
TORSDOF 5
ENDMDL
