MODEL 1
REMARK VINA RESULT:      -8.4      0.000      0.000
REMARK  Name = 
REMARK  3 active torsions:
REMARK  status: ('A' for Active; 'I' for Inactive)
REMARK    1  A    between atoms: C_1  and  C_2
REMARK    2  A    between atoms: C_4  and  N_5
REMARK    3  A    between atoms: C_6  and  C_8
REMARK                            x       y       z     vdW  Elec       q    Type
REMARK                         _______ _______ _______ _____ _____    ______ ____
ROOT
ATOM      1  C   UNL     1       8.211   8.226  18.188  0.00  0.00    +0.000 C 
ATOM      2  C   UNL     1       7.299   7.197  17.633  0.00  0.00    +0.000 A 
ATOM      3  C   UNL     1       7.355   6.592  16.363  0.00  0.00    +0.000 A 
ATOM      4  C   UNL     1       6.304   5.701  16.320  0.00  0.00    +0.000 A 
ATOM      5  N   UNL     1       5.686   5.794  17.569  0.00  0.00    +0.000 N 
ATOM      6  C   UNL     1       4.593   5.070  18.064  0.00  0.00    +0.000 A 
ATOM      7  N   UNL     1       4.028   4.069  17.420  0.00  0.00    +0.000 NA
ATOM      8  C   UNL     1       2.967   3.578  18.205  0.00  0.00    +0.000 A 
ATOM      9  C   UNL     1       2.112   2.488  17.921  0.00  0.00    +0.000 A 
ATOM     10  F   UNL     1       2.299   1.756  16.813  0.00  0.00    +0.000 F 
ATOM     11  C   UNL     1       1.060   2.152  18.778  0.00  0.00    +0.000 A 
ATOM     12  C   UNL     1       0.840   2.885  19.939  0.00  0.00    +0.000 A 
ATOM     13  C   UNL     1       1.683   3.950  20.273  0.00  0.00    +0.000 A 
ATOM     14  C   UNL     1       2.738   4.272  19.401  0.00  0.00    +0.000 A 
ATOM     15  S   UNL     1       3.925   5.502  19.572  0.00  0.00    +0.000 S 
ATOM     16  N   UNL     1       6.279   6.734  18.355  0.00  0.00    +0.000 NA
ENDROOT
BRANCH   4  17
ATOM     17  N   UNL     1       5.924   4.888  15.247  0.00  0.00    +0.000 N 
ATOM     18  C   UNL     1       6.709   4.737  14.044  0.00  0.00    +0.000 C 
ATOM     19  O   UNL     1       7.774   5.319  13.912  0.00  0.00    +0.000 OA
ATOM     20  H   UNL     1       5.031   4.397  15.323  0.00  0.00    +0.000 HD
BRANCH  18  21
ATOM     21  C   UNL     1       6.137   3.883  13.048  0.00  0.00    +0.000 A 
ATOM     22  C   UNL     1       6.708   2.958  12.200  0.00  0.00    +0.000 A 
ATOM     23  C   UNL     1       5.624   2.451  11.463  0.00  0.00    +0.000 A 
ATOM     24  N   UNL     1       4.473   3.023  11.825  0.00  0.00    +0.000 NA
ATOM     25  O   UNL     1       4.795   3.922  12.822  0.00  0.00    +0.000 OA
ENDBRANCH  18  21
ENDBRANCH   4  17
TORSDOF 2
ENDMDL
MODEL 2
REMARK VINA RESULT:      -7.9      3.758      5.653
REMARK  Name = 
REMARK  3 active torsions:
REMARK  status: ('A' for Active; 'I' for Inactive)
REMARK    1  A    between atoms: C_1  and  C_2
REMARK    2  A    between atoms: C_4  and  N_5
REMARK    3  A    between atoms: C_6  and  C_8
REMARK                            x       y       z     vdW  Elec       q    Type
REMARK                         _______ _______ _______ _____ _____    ______ ____
ROOT
ATOM      1  C   UNL     1       1.990   1.933  22.236  0.00  0.00    +0.000 C 
ATOM      2  C   UNL     1       2.398   2.906  21.194  0.00  0.00    +0.000 A 
ATOM      3  C   UNL     1       3.221   2.675  20.075  0.00  0.00    +0.000 A 
ATOM      4  C   UNL     1       3.299   3.878  19.406  0.00  0.00    +0.000 A 
ATOM      5  N   UNL     1       2.502   4.762  20.137  0.00  0.00    +0.000 N 
ATOM      6  C   UNL     1       2.203   6.105  19.866  0.00  0.00    +0.000 A 
ATOM      7  N   UNL     1       2.570   6.727  18.763  0.00  0.00    +0.000 NA
ATOM      8  C   UNL     1       2.105   8.053  18.826  0.00  0.00    +0.000 A 
ATOM      9  C   UNL     1       2.239   9.065  17.847  0.00  0.00    +0.000 A 
ATOM     10  F   UNL     1       2.827   8.792  16.673  0.00  0.00    +0.000 F 
ATOM     11  C   UNL     1       1.768  10.361  18.077  0.00  0.00    +0.000 A 
ATOM     12  C   UNL     1       1.146  10.677  19.280  0.00  0.00    +0.000 A 
ATOM     13  C   UNL     1       0.965   9.698  20.261  0.00  0.00    +0.000 A 
ATOM     14  C   UNL     1       1.443   8.399  20.011  0.00  0.00    +0.000 A 
ATOM     15  S   UNL     1       1.336   7.012  21.019  0.00  0.00    +0.000 S 
ATOM     16  N   UNL     1       1.981   4.170  21.246  0.00  0.00    +0.000 NA
ENDROOT
BRANCH   4  17
ATOM     17  N   UNL     1       4.034   4.160  18.250  0.00  0.00    +0.000 N 
ATOM     18  C   UNL     1       5.451   4.437  18.254  0.00  0.00    +0.000 C 
ATOM     19  O   UNL     1       6.090   4.424  19.293  0.00  0.00    +0.000 OA
ATOM     20  H   UNL     1       3.523   4.190  17.365  0.00  0.00    +0.000 HD
BRANCH  18  21
ATOM     21  C   UNL     1       6.016   4.732  16.972  0.00  0.00    +0.000 A 
ATOM     22  C   UNL     1       5.737   4.240  15.714  0.00  0.00    +0.000 A 
ATOM     23  C   UNL     1       6.630   4.921  14.871  0.00  0.00    +0.000 A 
ATOM     24  N   UNL     1       7.404   5.768  15.555  0.00  0.00    +0.000 NA
ATOM     25  O   UNL     1       7.017   5.650  16.876  0.00  0.00    +0.000 OA
ENDBRANCH  18  21
ENDBRANCH   4  17
TORSDOF 2
ENDMDL
MODEL 3
REMARK VINA RESULT:      -7.5      3.104      3.946
REMARK  Name = 
REMARK  3 active torsions:
REMARK  status: ('A' for Active; 'I' for Inactive)
REMARK    1  A    between atoms: C_1  and  C_2
REMARK    2  A    between atoms: C_4  and  N_5
REMARK    3  A    between atoms: C_6  and  C_8
REMARK                            x       y       z     vdW  Elec       q    Type
REMARK                         _______ _______ _______ _____ _____    ______ ____
ROOT
ATOM      1  C   UNL     1       1.215  10.700  18.796  0.00  0.00    +0.000 C 
ATOM      2  C   UNL     1       1.882   9.409  18.503  0.00  0.00    +0.000 A 
ATOM      3  C   UNL     1       2.722   9.102  17.415  0.00  0.00    +0.000 A 
ATOM      4  C   UNL     1       3.098   7.787  17.586  0.00  0.00    +0.000 A 
ATOM      5  N   UNL     1       2.492   7.377  18.775  0.00  0.00    +0.000 N 
ATOM      6  C   UNL     1       2.584   6.140  19.427  0.00  0.00    +0.000 A 
ATOM      7  N   UNL     1       3.387   5.169  19.042  0.00  0.00    +0.000 NA
ATOM      8  C   UNL     1       3.221   4.081  19.919  0.00  0.00    +0.000 A 
ATOM      9  C   UNL     1       3.907   2.844  19.904  0.00  0.00    +0.000 A 
ATOM     10  F   UNL     1       4.877   2.622  19.004  0.00  0.00    +0.000 F 
ATOM     11  C   UNL     1       3.592   1.831  20.815  0.00  0.00    +0.000 A 
ATOM     12  C   UNL     1       2.596   2.029  21.766  0.00  0.00    +0.000 A 
ATOM     13  C   UNL     1       1.918   3.249  21.836  0.00  0.00    +0.000 A 
ATOM     14  C   UNL     1       2.250   4.258  20.913  0.00  0.00    +0.000 A 
ATOM     15  S   UNL     1       1.599   5.842  20.786  0.00  0.00    +0.000 S 
ATOM     16  N   UNL     1       1.723   8.363  19.313  0.00  0.00    +0.000 NA
ENDROOT
BRANCH   4  17
ATOM     17  N   UNL     1       3.904   7.018  16.739  0.00  0.00    +0.000 N 
ATOM     18  C   UNL     1       5.320   6.821  16.947  0.00  0.00    +0.000 C 
ATOM     19  O   UNL     1       5.888   7.320  17.905  0.00  0.00    +0.000 OA
ATOM     20  H   UNL     1       3.458   6.597  15.921  0.00  0.00    +0.000 HD
BRANCH  18  21
ATOM     21  C   UNL     1       5.976   6.026  15.954  0.00  0.00    +0.000 A 
ATOM     22  C   UNL     1       5.485   5.118  15.039  0.00  0.00    +0.000 A 
ATOM     23  C   UNL     1       6.625   4.674  14.348  0.00  0.00    +0.000 A 
ATOM     24  N   UNL     1       7.735   5.260  14.804  0.00  0.00    +0.000 NA
ATOM     25  O   UNL     1       7.327   6.111  15.812  0.00  0.00    +0.000 OA
ENDBRANCH  18  21
ENDBRANCH   4  17
TORSDOF 2
ENDMDL
MODEL 4
REMARK VINA RESULT:      -7.4      3.687      5.621
REMARK  Name = 
REMARK  3 active torsions:
REMARK  status: ('A' for Active; 'I' for Inactive)
REMARK    1  A    between atoms: C_1  and  C_2
REMARK    2  A    between atoms: C_4  and  N_5
REMARK    3  A    between atoms: C_6  and  C_8
REMARK                            x       y       z     vdW  Elec       q    Type
REMARK                         _______ _______ _______ _____ _____    ______ ____
ROOT
ATOM      1  C   UNL     1       1.777   1.914  22.321  0.00  0.00    +0.000 C 
ATOM      2  C   UNL     1       2.327   2.886  21.346  0.00  0.00    +0.000 A 
ATOM      3  C   UNL     1       3.351   2.674  20.404  0.00  0.00    +0.000 A 
ATOM      4  C   UNL     1       3.500   3.866  19.728  0.00  0.00    +0.000 A 
ATOM      5  N   UNL     1       2.544   4.725  20.276  0.00  0.00    +0.000 N 
ATOM      6  C   UNL     1       2.244   6.047  19.918  0.00  0.00    +0.000 A 
ATOM      7  N   UNL     1       2.781   6.664  18.885  0.00  0.00    +0.000 NA
ATOM      8  C   UNL     1       2.255   7.968  18.825  0.00  0.00    +0.000 A 
ATOM      9  C   UNL     1       2.524   8.966  17.860  0.00  0.00    +0.000 A 
ATOM     10  F   UNL     1       3.330   8.700  16.822  0.00  0.00    +0.000 F 
ATOM     11  C   UNL     1       1.963  10.243  17.965  0.00  0.00    +0.000 A 
ATOM     12  C   UNL     1       1.117  10.552  19.025  0.00  0.00    +0.000 A 
ATOM     13  C   UNL     1       0.800   9.584  19.982  0.00  0.00    +0.000 A 
ATOM     14  C   UNL     1       1.371   8.304  19.859  0.00  0.00    +0.000 A 
ATOM     15  S   UNL     1       1.141   6.933  20.868  0.00  0.00    +0.000 S 
ATOM     16  N   UNL     1       1.854   4.130  21.287  0.00  0.00    +0.000 NA
ENDROOT
BRANCH   4  17
ATOM     17  N   UNL     1       4.423   4.161  18.718  0.00  0.00    +0.000 N 
ATOM     18  C   UNL     1       4.212   3.837  17.327  0.00  0.00    +0.000 C 
ATOM     19  O   UNL     1       3.186   3.289  16.958  0.00  0.00    +0.000 OA
ATOM     20  H   UNL     1       5.297   4.609  18.999  0.00  0.00    +0.000 HD
BRANCH  18  21
ATOM     21  C   UNL     1       5.287   4.193  16.451  0.00  0.00    +0.000 A 
ATOM     22  C   UNL     1       5.327   4.390  15.086  0.00  0.00    +0.000 A 
ATOM     23  C   UNL     1       6.667   4.719  14.825  0.00  0.00    +0.000 A 
ATOM     24  N   UNL     1       7.400   4.721  15.942  0.00  0.00    +0.000 NA
ATOM     25  O   UNL     1       6.532   4.392  16.963  0.00  0.00    +0.000 OA
ENDBRANCH  18  21
ENDBRANCH   4  17
TORSDOF 2
ENDMDL
MODEL 5
REMARK VINA RESULT:      -7.4     10.559     12.282
REMARK  Name = 
REMARK  3 active torsions:
REMARK  status: ('A' for Active; 'I' for Inactive)
REMARK    1  A    between atoms: C_1  and  C_2
REMARK    2  A    between atoms: C_4  and  N_5
REMARK    3  A    between atoms: C_6  and  C_8
REMARK                            x       y       z     vdW  Elec       q    Type
REMARK                         _______ _______ _______ _____ _____    ______ ____
ROOT
ATOM      1  C   UNL     1      -3.189  10.006  13.840  0.00  0.00    +0.000 C 
ATOM      2  C   UNL     1      -3.180  10.236  15.304  0.00  0.00    +0.000 A 
ATOM      3  C   UNL     1      -2.210   9.817  16.235  0.00  0.00    +0.000 A 
ATOM      4  C   UNL     1      -2.638  10.276  17.463  0.00  0.00    +0.000 A 
ATOM      5  N   UNL     1      -3.825  10.967  17.208  0.00  0.00    +0.000 N 
ATOM      6  C   UNL     1      -4.645  11.665  18.106  0.00  0.00    +0.000 A 
ATOM      7  N   UNL     1      -4.337  11.865  19.372  0.00  0.00    +0.000 NA
ATOM      8  C   UNL     1      -5.380  12.596  19.971  0.00  0.00    +0.000 A 
ATOM      9  C   UNL     1      -5.455  13.062  21.305  0.00  0.00    +0.000 A 
ATOM     10  F   UNL     1      -4.430  12.864  22.146  0.00  0.00    +0.000 F 
ATOM     11  C   UNL     1      -6.589  13.733  21.773  0.00  0.00    +0.000 A 
ATOM     12  C   UNL     1      -7.668  13.962  20.926  0.00  0.00    +0.000 A 
ATOM     13  C   UNL     1      -7.620  13.546  19.592  0.00  0.00    +0.000 A 
ATOM     14  C   UNL     1      -6.470  12.875  19.137  0.00  0.00    +0.000 A 
ATOM     15  S   UNL     1      -6.138  12.280  17.561  0.00  0.00    +0.000 S 
ATOM     16  N   UNL     1      -4.167  10.910  15.892  0.00  0.00    +0.000 NA
ENDROOT
BRANCH   4  17
ATOM     17  N   UNL     1      -2.025  10.077  18.705  0.00  0.00    +0.000 N 
ATOM     18  C   UNL     1      -0.930  10.884  19.190  0.00  0.00    +0.000 C 
ATOM     19  O   UNL     1      -0.488  11.808  18.527  0.00  0.00    +0.000 OA
ATOM     20  H   UNL     1      -2.365   9.302  19.278  0.00  0.00    +0.000 HD
BRANCH  18  21
ATOM     21  C   UNL     1      -0.418  10.504  20.472  0.00  0.00    +0.000 A 
ATOM     22  C   UNL     1       0.288   9.393  20.883  0.00  0.00    +0.000 A 
ATOM     23  C   UNL     1       0.497   9.604  22.256  0.00  0.00    +0.000 A 
ATOM     24  N   UNL     1      -0.042  10.756  22.663  0.00  0.00    +0.000 NA
ATOM     25  O   UNL     1      -0.615  11.322  21.542  0.00  0.00    +0.000 OA
ENDBRANCH  18  21
ENDBRANCH   4  17
TORSDOF 2
ENDMDL
MODEL 6
REMARK VINA RESULT:      -7.3      4.249      6.513
REMARK  Name = 
REMARK  3 active torsions:
REMARK  status: ('A' for Active; 'I' for Inactive)
REMARK    1  A    between atoms: C_1  and  C_2
REMARK    2  A    between atoms: C_4  and  N_5
REMARK    3  A    between atoms: C_6  and  C_8
REMARK                            x       y       z     vdW  Elec       q    Type
REMARK                         _______ _______ _______ _____ _____    ______ ____
ROOT
ATOM      1  C   UNL     1       6.394   5.445  14.792  0.00  0.00    +0.000 C 
ATOM      2  C   UNL     1       5.511   5.478  15.983  0.00  0.00    +0.000 A 
ATOM      3  C   UNL     1       5.333   4.471  16.951  0.00  0.00    +0.000 A 
ATOM      4  C   UNL     1       4.424   4.972  17.858  0.00  0.00    +0.000 A 
ATOM      5  N   UNL     1       4.121   6.259  17.409  0.00  0.00    +0.000 N 
ATOM      6  C   UNL     1       3.281   7.218  17.992  0.00  0.00    +0.000 A 
ATOM      7  N   UNL     1       2.707   7.067  19.169  0.00  0.00    +0.000 NA
ATOM      8  C   UNL     1       1.939   8.216  19.438  0.00  0.00    +0.000 A 
ATOM      9  C   UNL     1       1.184   8.500  20.600  0.00  0.00    +0.000 A 
ATOM     10  F   UNL     1       1.188   7.643  21.632  0.00  0.00    +0.000 F 
ATOM     11  C   UNL     1       0.423   9.668  20.700  0.00  0.00    +0.000 A 
ATOM     12  C   UNL     1       0.401  10.582  19.652  0.00  0.00    +0.000 A 
ATOM     13  C   UNL     1       1.158  10.354  18.499  0.00  0.00    +0.000 A 
ATOM     14  C   UNL     1       1.921   9.175  18.417  0.00  0.00    +0.000 A 
ATOM     15  S   UNL     1       2.949   8.658  17.142  0.00  0.00    +0.000 S 
ATOM     16  N   UNL     1       4.763   6.549  16.245  0.00  0.00    +0.000 NA
ENDROOT
BRANCH   4  17
ATOM     17  N   UNL     1       3.901   4.323  18.983  0.00  0.00    +0.000 N 
ATOM     18  C   UNL     1       2.597   3.704  19.011  0.00  0.00    +0.000 C 
ATOM     19  O   UNL     1       1.878   3.708  18.024  0.00  0.00    +0.000 OA
ATOM     20  H   UNL     1       4.475   4.314  19.828  0.00  0.00    +0.000 HD
BRANCH  18  21
ATOM     21  C   UNL     1       2.229   3.118  20.264  0.00  0.00    +0.000 A 
ATOM     22  C   UNL     1       1.003   2.961  20.876  0.00  0.00    +0.000 A 
ATOM     23  C   UNL     1       1.302   2.314  22.086  0.00  0.00    +0.000 A 
ATOM     24  N   UNL     1       2.613   2.092  22.215  0.00  0.00    +0.000 NA
ATOM     25  O   UNL     1       3.195   2.596  21.068  0.00  0.00    +0.000 OA
ENDBRANCH  18  21
ENDBRANCH   4  17
TORSDOF 2
ENDMDL
MODEL 7
REMARK VINA RESULT:      -7.3     10.786     12.504
REMARK  Name = 
REMARK  3 active torsions:
REMARK  status: ('A' for Active; 'I' for Inactive)
REMARK    1  A    between atoms: C_1  and  C_2
REMARK    2  A    between atoms: C_4  and  N_5
REMARK    3  A    between atoms: C_6  and  C_8
REMARK                            x       y       z     vdW  Elec       q    Type
REMARK                         _______ _______ _______ _____ _____    ______ ____
ROOT
ATOM      1  C   UNL     1      -3.807  10.034  14.207  0.00  0.00    +0.000 C 
ATOM      2  C   UNL     1      -3.582  10.632  15.545  0.00  0.00    +0.000 A 
ATOM      3  C   UNL     1      -2.399  11.211  16.041  0.00  0.00    +0.000 A 
ATOM      4  C   UNL     1      -2.688  11.628  17.323  0.00  0.00    +0.000 A 
ATOM      5  N   UNL     1      -4.032  11.306  17.524  0.00  0.00    +0.000 N 
ATOM      6  C   UNL     1      -4.835  11.554  18.646  0.00  0.00    +0.000 A 
ATOM      7  N   UNL     1      -4.441  12.259  19.686  0.00  0.00    +0.000 NA
ATOM      8  C   UNL     1      -5.494  12.304  20.618  0.00  0.00    +0.000 A 
ATOM      9  C   UNL     1      -5.524  12.980  21.860  0.00  0.00    +0.000 A 
ATOM     10  F   UNL     1      -4.479  13.727  22.245  0.00  0.00    +0.000 F 
ATOM     11  C   UNL     1      -6.631  12.886  22.708  0.00  0.00    +0.000 A 
ATOM     12  C   UNL     1      -7.736  12.126  22.338  0.00  0.00    +0.000 A 
ATOM     13  C   UNL     1      -7.759  11.469  21.104  0.00  0.00    +0.000 A 
ATOM     14  C   UNL     1      -6.638  11.577  20.262  0.00  0.00    +0.000 A 
ATOM     15  S   UNL     1      -6.409  10.899  18.701  0.00  0.00    +0.000 S 
ATOM     16  N   UNL     1      -4.563  10.668  16.446  0.00  0.00    +0.000 NA
ENDROOT
BRANCH   4  17
ATOM     17  N   UNL     1      -1.816  12.232  18.236  0.00  0.00    +0.000 N 
ATOM     18  C   UNL     1      -0.963  11.490  19.134  0.00  0.00    +0.000 C 
ATOM     19  O   UNL     1      -0.954  10.269  19.126  0.00  0.00    +0.000 OA
ATOM     20  H   UNL     1      -1.810  13.254  18.274  0.00  0.00    +0.000 HD
BRANCH  18  21
ATOM     21  C   UNL     1      -0.165  12.289  20.014  0.00  0.00    +0.000 A 
ATOM     22  C   UNL     1      -0.337  13.570  20.494  0.00  0.00    +0.000 A 
ATOM     23  C   UNL     1       0.784  13.786  21.312  0.00  0.00    +0.000 A 
ATOM     24  N   UNL     1       1.590  12.721  21.332  0.00  0.00    +0.000 NA
ATOM     25  O   UNL     1       0.992  11.779  20.517  0.00  0.00    +0.000 OA
ENDBRANCH  18  21
ENDBRANCH   4  17
TORSDOF 2
ENDMDL
MODEL 8
REMARK VINA RESULT:      -7.2      2.331      5.080
REMARK  Name = 
REMARK  3 active torsions:
REMARK  status: ('A' for Active; 'I' for Inactive)
REMARK    1  A    between atoms: C_1  and  C_2
REMARK    2  A    between atoms: C_4  and  N_5
REMARK    3  A    between atoms: C_6  and  C_8
REMARK                            x       y       z     vdW  Elec       q    Type
REMARK                         _______ _______ _______ _____ _____    ______ ____
ROOT
ATOM      1  C   UNL     1       5.940   2.807  12.341  0.00  0.00    +0.000 C 
ATOM      2  C   UNL     1       5.838   3.650  13.556  0.00  0.00    +0.000 A 
ATOM      3  C   UNL     1       6.622   4.769  13.896  0.00  0.00    +0.000 A 
ATOM      4  C   UNL     1       6.143   5.215  15.110  0.00  0.00    +0.000 A 
ATOM      5  N   UNL     1       5.082   4.363  15.426  0.00  0.00    +0.000 N 
ATOM      6  C   UNL     1       4.224   4.404  16.534  0.00  0.00    +0.000 A 
ATOM      7  N   UNL     1       4.233   5.370  17.430  0.00  0.00    +0.000 NA
ATOM      8  C   UNL     1       3.247   5.089  18.395  0.00  0.00    +0.000 A 
ATOM      9  C   UNL     1       2.885   5.873  19.515  0.00  0.00    +0.000 A 
ATOM     10  F   UNL     1       3.473   7.059  19.726  0.00  0.00    +0.000 F 
ATOM     11  C   UNL     1       1.916   5.433  20.422  0.00  0.00    +0.000 A 
ATOM     12  C   UNL     1       1.281   4.210  20.231  0.00  0.00    +0.000 A 
ATOM     13  C   UNL     1       1.587   3.421  19.118  0.00  0.00    +0.000 A 
ATOM     14  C   UNL     1       2.562   3.881  18.215  0.00  0.00    +0.000 A 
ATOM     15  S   UNL     1       3.111   3.134  16.769  0.00  0.00    +0.000 S 
ATOM     16  N   UNL     1       4.923   3.389  14.489  0.00  0.00    +0.000 NA
ENDROOT
BRANCH   4  17
ATOM     17  N   UNL     1       6.627   6.283  15.872  0.00  0.00    +0.000 N 
ATOM     18  C   UNL     1       7.451   6.116  17.046  0.00  0.00    +0.000 C 
ATOM     19  O   UNL     1       7.783   5.005  17.427  0.00  0.00    +0.000 OA
ATOM     20  H   UNL     1       6.356   7.226  15.584  0.00  0.00    +0.000 HD
BRANCH  18  21
ATOM     21  C   UNL     1       7.821   7.331  17.708  0.00  0.00    +0.000 A 
ATOM     22  C   UNL     1       8.487   7.560  18.893  0.00  0.00    +0.000 A 
ATOM     23  C   UNL     1       8.540   8.960  18.994  0.00  0.00    +0.000 A 
ATOM     24  N   UNL     1       7.947   9.551  17.953  0.00  0.00    +0.000 NA
ATOM     25  O   UNL     1       7.496   8.526  17.144  0.00  0.00    +0.000 OA
ENDBRANCH  18  21
ENDBRANCH   4  17
TORSDOF 2
ENDMDL
MODEL 9
REMARK VINA RESULT:      -7.1      4.447      7.447
REMARK  Name = 
REMARK  3 active torsions:
REMARK  status: ('A' for Active; 'I' for Inactive)
REMARK    1  A    between atoms: C_1  and  C_2
REMARK    2  A    between atoms: C_4  and  N_5
REMARK    3  A    between atoms: C_6  and  C_8
REMARK                            x       y       z     vdW  Elec       q    Type
REMARK                         _______ _______ _______ _____ _____    ______ ____
ROOT
ATOM      1  C   UNL     1       1.452   2.511  22.009  0.00  0.00    +0.000 C 
ATOM      2  C   UNL     1       1.825   3.533  21.002  0.00  0.00    +0.000 A 
ATOM      3  C   UNL     1       1.418   4.880  20.951  0.00  0.00    +0.000 A 
ATOM      4  C   UNL     1       2.032   5.421  19.842  0.00  0.00    +0.000 A 
ATOM      5  N   UNL     1       2.795   4.385  19.297  0.00  0.00    +0.000 N 
ATOM      6  C   UNL     1       3.647   4.414  18.184  0.00  0.00    +0.000 A 
ATOM      7  N   UNL     1       3.945   5.513  17.520  0.00  0.00    +0.000 NA
ATOM      8  C   UNL     1       4.820   5.173  16.471  0.00  0.00    +0.000 A 
ATOM      9  C   UNL     1       5.421   6.042  15.531  0.00  0.00    +0.000 A 
ATOM     10  F   UNL     1       5.220   7.365  15.611  0.00  0.00    +0.000 F 
ATOM     11  C   UNL     1       6.231   5.547  14.504  0.00  0.00    +0.000 A 
ATOM     12  C   UNL     1       6.467   4.180  14.395  0.00  0.00    +0.000 A 
ATOM     13  C   UNL     1       5.918   3.292  15.324  0.00  0.00    +0.000 A 
ATOM     14  C   UNL     1       5.108   3.808  16.352  0.00  0.00    +0.000 A 
ATOM     15  S   UNL     1       4.332   2.957  17.626  0.00  0.00    +0.000 S 
ATOM     16  N   UNL     1       2.638   3.226  19.992  0.00  0.00    +0.000 NA
ENDROOT
BRANCH   4  17
ATOM     17  N   UNL     1       1.905   6.726  19.353  0.00  0.00    +0.000 N 
ATOM     18  C   UNL     1       1.633   7.868  20.193  0.00  0.00    +0.000 C 
ATOM     19  O   UNL     1       1.512   7.745  21.401  0.00  0.00    +0.000 OA
ATOM     20  H   UNL     1       1.991   6.859  18.343  0.00  0.00    +0.000 HD
BRANCH  18  21
ATOM     21  C   UNL     1       1.510   9.116  19.501  0.00  0.00    +0.000 A 
ATOM     22  C   UNL     1       1.865   9.491  18.222  0.00  0.00    +0.000 A 
ATOM     23  C   UNL     1       1.487  10.842  18.142  0.00  0.00    +0.000 A 
ATOM     24  N   UNL     1       0.944  11.269  19.285  0.00  0.00    +0.000 NA
ATOM     25  O   UNL     1       0.957  10.184  20.139  0.00  0.00    +0.000 OA
ENDBRANCH  18  21
ENDBRANCH   4  17
TORSDOF 2
ENDMDL
