MODEL 1
REMARK VINA RESULT:      -7.9      0.000      0.000
REMARK  Name = 
REMARK  5 active torsions:
REMARK  status: ('A' for Active; 'I' for Inactive)
REMARK    1  A    between atoms: C_1  and  O_2
REMARK    2  A    between atoms: O_2  and  C_3
REMARK    3  A    between atoms: C_11  and  C_12
REMARK    4  A    between atoms: C_19  and  C_20
REMARK    5  A    between atoms: C_19  and  C_21
REMARK                            x       y       z     vdW  Elec       q    Type
REMARK                         _______ _______ _______ _____ _____    ______ ____
ROOT
ATOM      1  C   UNL     1       2.931   4.068  19.717  0.00  0.00    +0.000 A 
ATOM      2  C   UNL     1       3.495   4.266  18.460  0.00  0.00    +0.000 A 
ATOM      3  C   UNL     1       3.468   5.547  17.831  0.00  0.00    +0.000 A 
ATOM      4  C   UNL     1       2.842   6.607  18.514  0.00  0.00    +0.000 A 
ATOM      5  N   UNL     1       2.571   7.943  18.195  0.00  0.00    +0.000 N 
ATOM      6  C   UNL     1       1.802   8.554  19.186  0.00  0.00    +0.000 A 
ATOM      7  C   UNL     1       1.130   9.785  19.325  0.00  0.00    +0.000 A 
ATOM      8  C   UNL     1       0.334   9.932  20.480  0.00  0.00    +0.000 A 
ATOM      9  C   UNL     1       0.361   9.035  21.535  0.00  0.00    +0.000 A 
ATOM     10  C   UNL     1       1.097   7.882  21.433  0.00  0.00    +0.000 A 
ATOM     11  C   UNL     1       1.745   7.606  20.225  0.00  0.00    +0.000 A 
ATOM     12  C   UNL     1       2.323   6.404  19.778  0.00  0.00    +0.000 A 
ATOM     13  C   UNL     1       2.364   5.143  20.380  0.00  0.00    +0.000 A 
ATOM     14  O   UNL     1      -0.590  10.923  20.599  0.00  0.00    +0.000 OA
ATOM     15  C   UNL     1      -0.260  12.182  20.016  0.00  0.00    +0.000 C 
ATOM     16  C   UNL     1      -1.650  12.823  19.829  0.00  0.00    +0.000 C 
ATOM     17  C   UNL     1       0.547  12.930  21.095  0.00  0.00    +0.000 C 
ATOM     18  C   UNL     1       0.524  12.023  18.719  0.00  0.00    +0.000 C 
ATOM     19  C   UNL     1       1.165  10.890  18.370  0.00  0.00    +0.000 C 
ATOM     20  H   UNL     1       2.819   8.369  17.311  0.00  0.00    +0.000 HD
ENDROOT
BRANCH   1  22
ATOM     21  C   UNL     1       1.852   2.839  21.458  0.00  0.00    +0.000 C 
ATOM     22  O   UNL     1       2.831   2.919  20.444  0.00  0.00    +0.000 OA
ENDBRANCH   1  22
BRANCH   9  23
ATOM     23  C   UNL     1      -0.392   9.332  22.767  0.00  0.00    +0.000 C 
ATOM     24  O   UNL     1       0.126   9.919  23.712  0.00  0.00    +0.000 OA
ENDBRANCH   9  23
TORSDOF 2
ENDMDL
MODEL 2
REMARK VINA RESULT:      -7.8      1.878      6.897
REMARK  Name = 
REMARK  5 active torsions:
REMARK  status: ('A' for Active; 'I' for Inactive)
REMARK    1  A    between atoms: C_1  and  O_2
REMARK    2  A    between atoms: O_2  and  C_3
REMARK    3  A    between atoms: C_11  and  C_12
REMARK    4  A    between atoms: C_19  and  C_20
REMARK    5  A    between atoms: C_19  and  C_21
REMARK                            x       y       z     vdW  Elec       q    Type
REMARK                         _______ _______ _______ _____ _____    ______ ____
ROOT
ATOM      1  C   UNL     1       0.078   9.314  21.333  0.00  0.00    +0.000 A 
ATOM      2  C   UNL     1       0.103  10.388  20.447  0.00  0.00    +0.000 A 
ATOM      3  C   UNL     1       0.849  10.327  19.232  0.00  0.00    +0.000 A 
ATOM      4  C   UNL     1       1.570   9.149  18.957  0.00  0.00    +0.000 A 
ATOM      5  N   UNL     1       2.440   8.761  17.930  0.00  0.00    +0.000 N 
ATOM      6  C   UNL     1       3.000   7.510  18.189  0.00  0.00    +0.000 A 
ATOM      7  C   UNL     1       4.014   6.719  17.611  0.00  0.00    +0.000 A 
ATOM      8  C   UNL     1       4.357   5.542  18.305  0.00  0.00    +0.000 A 
ATOM      9  C   UNL     1       3.619   5.051  19.369  0.00  0.00    +0.000 A 
ATOM     10  C   UNL     1       2.569   5.779  19.868  0.00  0.00    +0.000 A 
ATOM     11  C   UNL     1       2.319   7.045  19.330  0.00  0.00    +0.000 A 
ATOM     12  C   UNL     1       1.502   8.078  19.825  0.00  0.00    +0.000 A 
ATOM     13  C   UNL     1       0.762   8.155  21.008  0.00  0.00    +0.000 A 
ATOM     14  O   UNL     1       5.498   4.851  18.037  0.00  0.00    +0.000 OA
ATOM     15  C   UNL     1       5.914   4.805  16.673  0.00  0.00    +0.000 C 
ATOM     16  C   UNL     1       7.417   4.487  16.808  0.00  0.00    +0.000 C 
ATOM     17  C   UNL     1       5.155   3.614  16.057  0.00  0.00    +0.000 C 
ATOM     18  C   UNL     1       5.624   6.111  15.943  0.00  0.00    +0.000 C 
ATOM     19  C   UNL     1       4.747   7.033  16.386  0.00  0.00    +0.000 C 
ATOM     20  H   UNL     1       2.698   9.361  17.158  0.00  0.00    +0.000 HD
ENDROOT
BRANCH   1  22
ATOM     21  C   UNL     1      -0.909  10.397  23.220  0.00  0.00    +0.000 C 
ATOM     22  O   UNL     1      -0.541   9.212  22.544  0.00  0.00    +0.000 OA
ENDBRANCH   1  22
BRANCH   9  23
ATOM     23  C   UNL     1       3.960   3.740  19.952  0.00  0.00    +0.000 C 
ATOM     24  O   UNL     1       3.448   2.701  19.544  0.00  0.00    +0.000 OA
ENDBRANCH   9  23
TORSDOF 2
ENDMDL
MODEL 3
REMARK VINA RESULT:      -7.5      1.497      6.629
REMARK  Name = 
REMARK  5 active torsions:
REMARK  status: ('A' for Active; 'I' for Inactive)
REMARK    1  A    between atoms: C_1  and  O_2
REMARK    2  A    between atoms: O_2  and  C_3
REMARK    3  A    between atoms: C_11  and  C_12
REMARK    4  A    between atoms: C_19  and  C_20
REMARK    5  A    between atoms: C_19  and  C_21
REMARK                            x       y       z     vdW  Elec       q    Type
REMARK                         _______ _______ _______ _____ _____    ______ ____
ROOT
ATOM      1  C   UNL     1      -0.550  10.675  21.962  0.00  0.00    +0.000 A 
ATOM      2  C   UNL     1      -0.321  11.658  21.003  0.00  0.00    +0.000 A 
ATOM      3  C   UNL     1       0.427  11.378  19.820  0.00  0.00    +0.000 A 
ATOM      4  C   UNL     1       0.938  10.077  19.653  0.00  0.00    +0.000 A 
ATOM      5  N   UNL     1       1.747   9.468  18.686  0.00  0.00    +0.000 N 
ATOM      6  C   UNL     1       2.076   8.163  19.050  0.00  0.00    +0.000 A 
ATOM      7  C   UNL     1       2.948   7.169  18.563  0.00  0.00    +0.000 A 
ATOM      8  C   UNL     1       3.068   6.005  19.350  0.00  0.00    +0.000 A 
ATOM      9  C   UNL     1       2.235   5.730  20.422  0.00  0.00    +0.000 A 
ATOM     10  C   UNL     1       1.318   6.663  20.833  0.00  0.00    +0.000 A 
ATOM     11  C   UNL     1       1.302   7.910  20.199  0.00  0.00    +0.000 A 
ATOM     12  C   UNL     1       0.667   9.102  20.592  0.00  0.00    +0.000 A 
ATOM     13  C   UNL     1      -0.072   9.394  21.742  0.00  0.00    +0.000 A 
ATOM     14  O   UNL     1       4.077   5.111  19.168  0.00  0.00    +0.000 OA
ATOM     15  C   UNL     1       4.505   4.891  17.825  0.00  0.00    +0.000 C 
ATOM     16  C   UNL     1       5.927   4.331  18.031  0.00  0.00    +0.000 C 
ATOM     17  C   UNL     1       3.564   3.805  17.271  0.00  0.00    +0.000 C 
ATOM     18  C   UNL     1       4.461   6.169  16.996  0.00  0.00    +0.000 C 
ATOM     19  C   UNL     1       3.749   7.259  17.344  0.00  0.00    +0.000 C 
ATOM     20  H   UNL     1       2.121   9.956  17.881  0.00  0.00    +0.000 HD
ENDROOT
BRANCH   1  22
ATOM     21  C   UNL     1      -2.208  11.752  23.303  0.00  0.00    +0.000 C 
ATOM     22  O   UNL     1      -1.201  10.772  23.156  0.00  0.00    +0.000 OA
ENDBRANCH   1  22
BRANCH   9  23
ATOM     23  C   UNL     1       2.332   4.428  21.107  0.00  0.00    +0.000 C 
ATOM     24  O   UNL     1       1.366   3.676  21.198  0.00  0.00    +0.000 OA
ENDBRANCH   9  23
TORSDOF 2
ENDMDL
MODEL 4
REMARK VINA RESULT:      -7.4      2.000      3.635
REMARK  Name = 
REMARK  5 active torsions:
REMARK  status: ('A' for Active; 'I' for Inactive)
REMARK    1  A    between atoms: C_1  and  O_2
REMARK    2  A    between atoms: O_2  and  C_3
REMARK    3  A    between atoms: C_11  and  C_12
REMARK    4  A    between atoms: C_19  and  C_20
REMARK    5  A    between atoms: C_19  and  C_21
REMARK                            x       y       z     vdW  Elec       q    Type
REMARK                         _______ _______ _______ _____ _____    ______ ____
ROOT
ATOM      1  C   UNL     1       3.802   6.627  17.691  0.00  0.00    +0.000 A 
ATOM      2  C   UNL     1       3.733   5.651  18.682  0.00  0.00    +0.000 A 
ATOM      3  C   UNL     1       2.914   5.826  19.837  0.00  0.00    +0.000 A 
ATOM      4  C   UNL     1       2.181   7.023  19.954  0.00  0.00    +0.000 A 
ATOM      5  N   UNL     1       1.349   7.560  20.944  0.00  0.00    +0.000 N 
ATOM      6  C   UNL     1       0.956   8.859  20.624  0.00  0.00    +0.000 A 
ATOM      7  C   UNL     1       0.276   9.900  21.288  0.00  0.00    +0.000 A 
ATOM      8  C   UNL     1       0.218  11.136  20.613  0.00  0.00    +0.000 A 
ATOM      9  C   UNL     1       0.602  11.293  19.292  0.00  0.00    +0.000 A 
ATOM     10  C   UNL     1       1.175  10.246  18.617  0.00  0.00    +0.000 A 
ATOM     11  C   UNL     1       1.429   9.059  19.312  0.00  0.00    +0.000 A 
ATOM     12  C   UNL     1       2.228   7.963  18.944  0.00  0.00    +0.000 A 
ATOM     13  C   UNL     1       3.032   7.771  17.816  0.00  0.00    +0.000 A 
ATOM     14  O   UNL     1      -0.133  12.288  21.245  0.00  0.00    +0.000 OA
ATOM     15  C   UNL     1      -1.135  12.186  22.255  0.00  0.00    +0.000 C 
ATOM     16  C   UNL     1      -0.872  13.453  23.095  0.00  0.00    +0.000 C 
ATOM     17  C   UNL     1      -2.478  12.293  21.508  0.00  0.00    +0.000 C 
ATOM     18  C   UNL     1      -1.018  10.889  23.046  0.00  0.00    +0.000 C 
ATOM     19  C   UNL     1      -0.337   9.810  22.612  0.00  0.00    +0.000 C 
ATOM     20  H   UNL     1       1.149   7.094  21.819  0.00  0.00    +0.000 HD
ENDROOT
BRANCH   1  22
ATOM     21  C   UNL     1       5.432   5.570  16.301  0.00  0.00    +0.000 C 
ATOM     22  O   UNL     1       4.552   6.646  16.553  0.00  0.00    +0.000 OA
ENDBRANCH   1  22
BRANCH   9  23
ATOM     23  C   UNL     1       0.379  12.584  18.614  0.00  0.00    +0.000 C 
ATOM     24  O   UNL     1      -0.708  12.873  18.123  0.00  0.00    +0.000 OA
ENDBRANCH   9  23
TORSDOF 2
ENDMDL
MODEL 5
REMARK VINA RESULT:      -7.3      1.970      7.403
REMARK  Name = 
REMARK  5 active torsions:
REMARK  status: ('A' for Active; 'I' for Inactive)
REMARK    1  A    between atoms: C_1  and  O_2
REMARK    2  A    between atoms: O_2  and  C_3
REMARK    3  A    between atoms: C_11  and  C_12
REMARK    4  A    between atoms: C_19  and  C_20
REMARK    5  A    between atoms: C_19  and  C_21
REMARK                            x       y       z     vdW  Elec       q    Type
REMARK                         _______ _______ _______ _____ _____    ______ ____
ROOT
ATOM      1  C   UNL     1       0.562  11.305  19.349  0.00  0.00    +0.000 A 
ATOM      2  C   UNL     1      -0.179  11.145  20.516  0.00  0.00    +0.000 A 
ATOM      3  C   UNL     1      -0.138   9.926  21.257  0.00  0.00    +0.000 A 
ATOM      4  C   UNL     1       0.668   8.880  20.768  0.00  0.00    +0.000 A 
ATOM      5  N   UNL     1       0.901   7.561  21.175  0.00  0.00    +0.000 N 
ATOM      6  C   UNL     1       1.709   6.885  20.261  0.00  0.00    +0.000 A 
ATOM      7  C   UNL     1       2.128   5.551  20.078  0.00  0.00    +0.000 A 
ATOM      8  C   UNL     1       2.855   5.283  18.901  0.00  0.00    +0.000 A 
ATOM      9  C   UNL     1       3.333   6.279  18.066  0.00  0.00    +0.000 A 
ATOM     10  C   UNL     1       3.003   7.589  18.304  0.00  0.00    +0.000 A 
ATOM     11  C   UNL     1       2.122   7.877  19.351  0.00  0.00    +0.000 A 
ATOM     12  C   UNL     1       1.429   9.069  19.631  0.00  0.00    +0.000 A 
ATOM     13  C   UNL     1       1.380  10.272  18.921  0.00  0.00    +0.000 A 
ATOM     14  O   UNL     1       3.060   4.016  18.451  0.00  0.00    +0.000 OA
ATOM     15  C   UNL     1       3.259   3.008  19.440  0.00  0.00    +0.000 C 
ATOM     16  C   UNL     1       2.889   1.725  18.668  0.00  0.00    +0.000 C 
ATOM     17  C   UNL     1       4.766   3.042  19.757  0.00  0.00    +0.000 C 
ATOM     18  C   UNL     1       2.405   3.248  20.680  0.00  0.00    +0.000 C 
ATOM     19  C   UNL     1       1.846   4.437  20.981  0.00  0.00    +0.000 C 
ATOM     20  H   UNL     1       0.453   7.136  21.976  0.00  0.00    +0.000 HD
ENDROOT
BRANCH   1  22
ATOM     21  C   UNL     1      -0.526  13.198  18.380  0.00  0.00    +0.000 C 
ATOM     22  O   UNL     1       0.614  12.372  18.501  0.00  0.00    +0.000 OA
ENDBRANCH   1  22
BRANCH   9  23
ATOM     23  C   UNL     1       4.206   5.925  16.931  0.00  0.00    +0.000 C 
ATOM     24  O   UNL     1       4.767   6.785  16.258  0.00  0.00    +0.000 OA
ENDBRANCH   9  23
TORSDOF 2
ENDMDL
MODEL 6
REMARK VINA RESULT:      -6.9      1.807      3.442
REMARK  Name = 
REMARK  5 active torsions:
REMARK  status: ('A' for Active; 'I' for Inactive)
REMARK    1  A    between atoms: C_1  and  O_2
REMARK    2  A    between atoms: O_2  and  C_3
REMARK    3  A    between atoms: C_11  and  C_12
REMARK    4  A    between atoms: C_19  and  C_20
REMARK    5  A    between atoms: C_19  and  C_21
REMARK                            x       y       z     vdW  Elec       q    Type
REMARK                         _______ _______ _______ _____ _____    ______ ____
ROOT
ATOM      1  C   UNL     1       4.110   5.520  17.984  0.00  0.00    +0.000 A 
ATOM      2  C   UNL     1       3.859   4.628  19.024  0.00  0.00    +0.000 A 
ATOM      3  C   UNL     1       2.965   4.963  20.085  0.00  0.00    +0.000 A 
ATOM      4  C   UNL     1       2.349   6.229  20.057  0.00  0.00    +0.000 A 
ATOM      5  N   UNL     1       1.494   6.912  20.930  0.00  0.00    +0.000 N 
ATOM      6  C   UNL     1       1.263   8.217  20.494  0.00  0.00    +0.000 A 
ATOM      7  C   UNL     1       0.637   9.362  21.026  0.00  0.00    +0.000 A 
ATOM      8  C   UNL     1       0.763  10.547  20.272  0.00  0.00    +0.000 A 
ATOM      9  C   UNL     1       1.272  10.572  18.984  0.00  0.00    +0.000 A 
ATOM     10  C   UNL     1       1.793   9.429  18.432  0.00  0.00    +0.000 A 
ATOM     11  C   UNL     1       1.864   8.277  19.222  0.00  0.00    +0.000 A 
ATOM     12  C   UNL     1       2.577   7.086  18.998  0.00  0.00    +0.000 A 
ATOM     13  C   UNL     1       3.452   6.738  17.965  0.00  0.00    +0.000 A 
ATOM     14  O   UNL     1       0.477  11.770  20.795  0.00  0.00    +0.000 OA
ATOM     15  C   UNL     1      -0.613  11.836  21.712  0.00  0.00    +0.000 C 
ATOM     16  C   UNL     1      -0.297  13.129  22.491  0.00  0.00    +0.000 C 
ATOM     17  C   UNL     1      -1.870  12.016  20.839  0.00  0.00    +0.000 C 
ATOM     18  C   UNL     1      -0.697  10.593  22.590  0.00  0.00    +0.000 C 
ATOM     19  C   UNL     1      -0.093   9.427  22.290  0.00  0.00    +0.000 C 
ATOM     20  H   UNL     1       1.173   6.532  21.811  0.00  0.00    +0.000 HD
ENDROOT
BRANCH   1  22
ATOM     21  C   UNL     1       5.218   6.517  16.117  0.00  0.00    +0.000 C 
ATOM     22  O   UNL     1       4.954   5.386  16.921  0.00  0.00    +0.000 OA
ENDBRANCH   1  22
BRANCH   9  23
ATOM     23  C   UNL     1       1.240  11.826  18.209  0.00  0.00    +0.000 C 
ATOM     24  O   UNL     1       2.240  12.525  18.075  0.00  0.00    +0.000 OA
ENDBRANCH   9  23
TORSDOF 2
ENDMDL
MODEL 7
REMARK VINA RESULT:      -6.8      1.006      1.016
REMARK  Name = 
REMARK  5 active torsions:
REMARK  status: ('A' for Active; 'I' for Inactive)
REMARK    1  A    between atoms: C_1  and  O_2
REMARK    2  A    between atoms: O_2  and  C_3
REMARK    3  A    between atoms: C_11  and  C_12
REMARK    4  A    between atoms: C_19  and  C_20
REMARK    5  A    between atoms: C_19  and  C_21
REMARK                            x       y       z     vdW  Elec       q    Type
REMARK                         _______ _______ _______ _____ _____    ______ ____
ROOT
ATOM      1  C   UNL     1       3.111   3.887  18.964  0.00  0.00    +0.000 A 
ATOM      2  C   UNL     1       3.803   4.123  17.778  0.00  0.00    +0.000 A 
ATOM      3  C   UNL     1       3.923   5.441  17.243  0.00  0.00    +0.000 A 
ATOM      4  C   UNL     1       3.311   6.498  17.942  0.00  0.00    +0.000 A 
ATOM      5  N   UNL     1       3.165   7.869  17.696  0.00  0.00    +0.000 N 
ATOM      6  C   UNL     1       2.352   8.471  18.657  0.00  0.00    +0.000 A 
ATOM      7  C   UNL     1       1.757   9.738  18.824  0.00  0.00    +0.000 A 
ATOM      8  C   UNL     1       0.869   9.870  19.911  0.00  0.00    +0.000 A 
ATOM      9  C   UNL     1       0.735   8.907  20.897  0.00  0.00    +0.000 A 
ATOM     10  C   UNL     1       1.395   7.710  20.779  0.00  0.00    +0.000 A 
ATOM     11  C   UNL     1       2.132   7.464  19.616  0.00  0.00    +0.000 A 
ATOM     12  C   UNL     1       2.664   6.254  19.137  0.00  0.00    +0.000 A 
ATOM     13  C   UNL     1       2.561   4.957  19.649  0.00  0.00    +0.000 A 
ATOM     14  O   UNL     1       0.009  10.918  20.018  0.00  0.00    +0.000 OA
ATOM     15  C   UNL     1       0.480  12.184  19.559  0.00  0.00    +0.000 C 
ATOM     16  C   UNL     1      -0.839  12.939  19.296  0.00  0.00    +0.000 C 
ATOM     17  C   UNL     1       1.232  12.796  20.755  0.00  0.00    +0.000 C 
ATOM     18  C   UNL     1       1.368  12.050  18.328  0.00  0.00    +0.000 C 
ATOM     19  C   UNL     1       1.958  10.897  17.957  0.00  0.00    +0.000 C 
ATOM     20  H   UNL     1       3.524   8.331  16.871  0.00  0.00    +0.000 HD
ENDROOT
BRANCH   1  22
ATOM     21  C   UNL     1       1.646   2.038  19.336  0.00  0.00    +0.000 C 
ATOM     22  O   UNL     1       2.864   2.704  19.595  0.00  0.00    +0.000 OA
ENDBRANCH   1  22
BRANCH   9  23
ATOM     23  C   UNL     1      -0.108   9.180  22.076  0.00  0.00    +0.000 C 
ATOM     24  O   UNL     1      -0.872   8.334  22.530  0.00  0.00    +0.000 OA
ENDBRANCH   9  23
TORSDOF 2
ENDMDL
MODEL 8
REMARK VINA RESULT:      -6.4      1.304      6.821
REMARK  Name = 
REMARK  5 active torsions:
REMARK  status: ('A' for Active; 'I' for Inactive)
REMARK    1  A    between atoms: C_1  and  O_2
REMARK    2  A    between atoms: O_2  and  C_3
REMARK    3  A    between atoms: C_11  and  C_12
REMARK    4  A    between atoms: C_19  and  C_20
REMARK    5  A    between atoms: C_19  and  C_21
REMARK                            x       y       z     vdW  Elec       q    Type
REMARK                         _______ _______ _______ _____ _____    ______ ____
ROOT
ATOM      1  C   UNL     1       0.622  10.614  21.182  0.00  0.00    +0.000 A 
ATOM      2  C   UNL     1       0.963  11.288  20.012  0.00  0.00    +0.000 A 
ATOM      3  C   UNL     1       1.495  10.592  18.885  0.00  0.00    +0.000 A 
ATOM      4  C   UNL     1       1.677   9.200  18.993  0.00  0.00    +0.000 A 
ATOM      5  N   UNL     1       2.217   8.223  18.148  0.00  0.00    +0.000 N 
ATOM      6  C   UNL     1       2.279   6.983  18.784  0.00  0.00    +0.000 A 
ATOM      7  C   UNL     1       2.845   5.726  18.489  0.00  0.00    +0.000 A 
ATOM      8  C   UNL     1       2.783   4.760  19.515  0.00  0.00    +0.000 A 
ATOM      9  C   UNL     1       2.031   4.928  20.665  0.00  0.00    +0.000 A 
ATOM     10  C   UNL     1       1.399   6.123  20.901  0.00  0.00    +0.000 A 
ATOM     11  C   UNL     1       1.597   7.174  20.000  0.00  0.00    +0.000 A 
ATOM     12  C   UNL     1       1.296   8.540  20.144  0.00  0.00    +0.000 A 
ATOM     13  C   UNL     1       0.771   9.238  21.236  0.00  0.00    +0.000 A 
ATOM     14  O   UNL     1       3.537   3.628  19.487  0.00  0.00    +0.000 OA
ATOM     15  C   UNL     1       3.756   3.034  18.209  0.00  0.00    +0.000 C 
ATOM     16  C   UNL     1       5.028   2.198  18.459  0.00  0.00    +0.000 C 
ATOM     17  C   UNL     1       2.538   2.121  17.971  0.00  0.00    +0.000 C 
ATOM     18  C   UNL     1       3.913   4.081  17.113  0.00  0.00    +0.000 C 
ATOM     19  C   UNL     1       3.509   5.360  17.240  0.00  0.00    +0.000 C 
ATOM     20  H   UNL     1       2.602   8.424  17.234  0.00  0.00    +0.000 HD
ENDROOT
BRANCH   1  22
ATOM     21  C   UNL     1      -0.817  10.369  23.072  0.00  0.00    +0.000 C 
ATOM     22  O   UNL     1       0.144  11.116  22.356  0.00  0.00    +0.000 OA
ENDBRANCH   1  22
BRANCH   9  23
ATOM     23  C   UNL     1       1.903   3.816  21.624  0.00  0.00    +0.000 C 
ATOM     24  O   UNL     1       1.123   2.887  21.432  0.00  0.00    +0.000 OA
ENDBRANCH   9  23
TORSDOF 2
ENDMDL
