MODEL 1
REMARK VINA RESULT:      -8.3      0.000      0.000
REMARK  Name = 
REMARK  4 active torsions:
REMARK  status: ('A' for Active; 'I' for Inactive)
REMARK    1  A    between atoms: C_2  and  C_5
REMARK    2  A    between atoms: N_3  and  O_4
REMARK    3  A    between atoms: C_9  and  O_10
REMARK    4  A    between atoms: O_10  and  C_11
REMARK                            x       y       z     vdW  Elec       q    Type
REMARK                         _______ _______ _______ _____ _____    ______ ____
ROOT
ATOM      1  C   UNL     1       6.080   3.859  12.935  0.00  0.00    +0.000 A 
ATOM      2  C   UNL     1       7.146   4.638  12.483  0.00  0.00    +0.000 A 
ATOM      3  C   UNL     1       7.910   5.285  13.430  0.00  0.00    +0.000 A 
ATOM      4  N   UNL     1       7.680   5.198  14.754  0.00  0.00    +0.000 NA
ATOM      5  C   UNL     1       6.602   4.488  15.162  0.00  0.00    +0.000 A 
ATOM      6  C   UNL     1       5.775   3.799  14.294  0.00  0.00    +0.000 A 
ENDROOT
BRANCH   1   8
ATOM      7  N   UNL     1       5.791   1.810  11.606  0.00  0.00    +0.000 N 
ATOM      8  C   UNL     1       5.312   3.054  11.946  0.00  0.00    +0.000 C 
ATOM      9  N   UNL     1       4.203   3.533  11.459  0.00  0.00    +0.000 NA
ATOM     10  H   UNL     1       5.068   1.295  11.109  0.00  0.00    +0.000 HD
ATOM     11  H   UNL     1       6.166   1.275  12.382  0.00  0.00    +0.000 HD
BRANCH   9  12
ATOM     12  O   UNL     1       3.616   2.607  10.575  0.00  0.00    +0.000 OA
ATOM     13  H   UNL     1       3.254   1.941  11.187  0.00  0.00    +0.000 HD
ENDBRANCH   9  12
ENDBRANCH   1   8
BRANCH   5  14
ATOM     14  O   UNL     1       6.322   4.404  16.526  0.00  0.00    +0.000 OA
BRANCH  14  15
ATOM     15  C   UNL     1       5.219   5.100  16.997  0.00  0.00    +0.000 A 
ATOM     16  C   UNL     1       5.157   6.497  16.902  0.00  0.00    +0.000 A 
ATOM     17  C   UNL     1       4.059   7.193  17.392  0.00  0.00    +0.000 A 
ATOM     18  C   UNL     1       2.981   6.494  17.917  0.00  0.00    +0.000 A 
ATOM     19  C   UNL     1       2.985   5.090  17.945  0.00  0.00    +0.000 A 
ATOM     20  C   UNL     1       4.125   4.377  17.511  0.00  0.00    +0.000 A 
ATOM     21  C   UNL     1       4.145   2.864  17.551  0.00  0.00    +0.000 C 
ATOM     22  C   UNL     1       3.024   2.247  18.394  0.00  0.00    +0.000 C 
ATOM     23  C   UNL     1       1.692   2.923  18.098  0.00  0.00    +0.000 C 
ATOM     24  C   UNL     1       1.764   4.392  18.496  0.00  0.00    +0.000 C 
ENDBRANCH  14  15
ENDBRANCH   5  14
TORSDOF 4
ENDMDL
MODEL 2
REMARK VINA RESULT:      -8.1      2.077      3.265
REMARK  Name = 
REMARK  4 active torsions:
REMARK  status: ('A' for Active; 'I' for Inactive)
REMARK    1  A    between atoms: C_2  and  C_5
REMARK    2  A    between atoms: N_3  and  O_4
REMARK    3  A    between atoms: C_9  and  O_10
REMARK    4  A    between atoms: O_10  and  C_11
REMARK                            x       y       z     vdW  Elec       q    Type
REMARK                         _______ _______ _______ _____ _____    ______ ____
ROOT
ATOM      1  C   UNL     1       6.356   5.086  15.657  0.00  0.00    +0.000 A 
ATOM      2  C   UNL     1       7.197   4.830  16.741  0.00  0.00    +0.000 A 
ATOM      3  C   UNL     1       6.718   5.115  18.001  0.00  0.00    +0.000 A 
ATOM      4  N   UNL     1       5.491   5.620  18.231  0.00  0.00    +0.000 NA
ATOM      5  C   UNL     1       4.720   5.918  17.159  0.00  0.00    +0.000 A 
ATOM      6  C   UNL     1       5.105   5.667  15.854  0.00  0.00    +0.000 A 
ENDROOT
BRANCH   1   8
ATOM      7  N   UNL     1       7.840   5.366  13.715  0.00  0.00    +0.000 N 
ATOM      8  C   UNL     1       6.799   4.677  14.296  0.00  0.00    +0.000 C 
ATOM      9  N   UNL     1       6.216   3.670  13.711  0.00  0.00    +0.000 NA
ATOM     10  H   UNL     1       8.176   4.848  12.906  0.00  0.00    +0.000 HD
ATOM     11  H   UNL     1       8.596   5.602  14.349  0.00  0.00    +0.000 HD
BRANCH   9  12
ATOM     12  O   UNL     1       6.803   3.424  12.455  0.00  0.00    +0.000 OA
ATOM     13  H   UNL     1       6.187   2.779  12.064  0.00  0.00    +0.000 HD
ENDBRANCH   9  12
ENDBRANCH   1   8
BRANCH   5  14
ATOM     14  O   UNL     1       3.455   6.468  17.365  0.00  0.00    +0.000 OA
BRANCH  14  15
ATOM     15  C   UNL     1       2.780   6.105  18.521  0.00  0.00    +0.000 A 
ATOM     16  C   UNL     1       2.523   7.047  19.528  0.00  0.00    +0.000 A 
ATOM     17  C   UNL     1       1.863   6.677  20.693  0.00  0.00    +0.000 A 
ATOM     18  C   UNL     1       1.389   5.378  20.831  0.00  0.00    +0.000 A 
ATOM     19  C   UNL     1       1.561   4.441  19.800  0.00  0.00    +0.000 A 
ATOM     20  C   UNL     1       2.290   4.790  18.640  0.00  0.00    +0.000 A 
ATOM     21  C   UNL     1       2.493   3.783  17.530  0.00  0.00    +0.000 C 
ATOM     22  C   UNL     1       2.166   2.340  17.928  0.00  0.00    +0.000 C 
ATOM     23  C   UNL     1       0.855   2.278  18.700  0.00  0.00    +0.000 C 
ATOM     24  C   UNL     1       0.990   3.058  20.001  0.00  0.00    +0.000 C 
ENDBRANCH  14  15
ENDBRANCH   5  14
TORSDOF 4
ENDMDL
MODEL 3
REMARK VINA RESULT:      -8.1      3.213      5.202
REMARK  Name = 
REMARK  4 active torsions:
REMARK  status: ('A' for Active; 'I' for Inactive)
REMARK    1  A    between atoms: C_2  and  C_5
REMARK    2  A    between atoms: N_3  and  O_4
REMARK    3  A    between atoms: C_9  and  O_10
REMARK    4  A    between atoms: O_10  and  C_11
REMARK                            x       y       z     vdW  Elec       q    Type
REMARK                         _______ _______ _______ _____ _____    ______ ____
ROOT
ATOM      1  C   UNL     1       6.660   5.872  17.962  0.00  0.00    +0.000 A 
ATOM      2  C   UNL     1       7.174   5.621  16.689  0.00  0.00    +0.000 A 
ATOM      3  C   UNL     1       6.305   5.702  15.623  0.00  0.00    +0.000 A 
ATOM      4  N   UNL     1       5.001   6.011  15.752  0.00  0.00    +0.000 NA
ATOM      5  C   UNL     1       4.514   6.188  17.003  0.00  0.00    +0.000 A 
ATOM      6  C   UNL     1       5.302   6.133  18.138  0.00  0.00    +0.000 A 
ENDROOT
BRANCH   1   8
ATOM      7  N   UNL     1       8.547   6.906  19.154  0.00  0.00    +0.000 N 
ATOM      8  C   UNL     1       7.598   5.910  19.118  0.00  0.00    +0.000 C 
ATOM      9  N   UNL     1       7.476   5.026  20.066  0.00  0.00    +0.000 NA
ATOM     10  H   UNL     1       8.958   6.945  20.084  0.00  0.00    +0.000 HD
ATOM     11  H   UNL     1       8.216   7.816  18.853  0.00  0.00    +0.000 HD
BRANCH   9  12
ATOM     12  O   UNL     1       8.429   5.257  21.077  0.00  0.00    +0.000 OA
ATOM     13  H   UNL     1       7.917   5.077  21.886  0.00  0.00    +0.000 HD
ENDBRANCH   9  12
ENDBRANCH   1   8
BRANCH   5  14
ATOM     14  O   UNL     1       3.161   6.482  17.169  0.00  0.00    +0.000 OA
BRANCH  14  15
ATOM     15  C   UNL     1       2.579   6.152  18.385  0.00  0.00    +0.000 A 
ATOM     16  C   UNL     1       2.352   7.131  19.362  0.00  0.00    +0.000 A 
ATOM     17  C   UNL     1       1.786   6.794  20.585  0.00  0.00    +0.000 A 
ATOM     18  C   UNL     1       1.375   5.487  20.815  0.00  0.00    +0.000 A 
ATOM     19  C   UNL     1       1.515   4.508  19.819  0.00  0.00    +0.000 A 
ATOM     20  C   UNL     1       2.151   4.827  18.597  0.00  0.00    +0.000 A 
ATOM     21  C   UNL     1       2.320   3.775  17.522  0.00  0.00    +0.000 C 
ATOM     22  C   UNL     1       2.077   2.342  18.007  0.00  0.00    +0.000 C 
ATOM     23  C   UNL     1       0.824   2.269  18.870  0.00  0.00    +0.000 C 
ATOM     24  C   UNL     1       1.013   3.116  20.121  0.00  0.00    +0.000 C 
ENDBRANCH  14  15
ENDBRANCH   5  14
TORSDOF 4
ENDMDL
MODEL 4
REMARK VINA RESULT:      -7.9      2.290      4.034
REMARK  Name = 
REMARK  4 active torsions:
REMARK  status: ('A' for Active; 'I' for Inactive)
REMARK    1  A    between atoms: C_2  and  C_5
REMARK    2  A    between atoms: N_3  and  O_4
REMARK    3  A    between atoms: C_9  and  O_10
REMARK    4  A    between atoms: O_10  and  C_11
REMARK                            x       y       z     vdW  Elec       q    Type
REMARK                         _______ _______ _______ _____ _____    ______ ____
ROOT
ATOM      1  C   UNL     1       6.463   4.457  15.783  0.00  0.00    +0.000 A 
ATOM      2  C   UNL     1       7.334   4.842  16.803  0.00  0.00    +0.000 A 
ATOM      3  C   UNL     1       6.936   4.614  18.102  0.00  0.00    +0.000 A 
ATOM      4  N   UNL     1       5.762   4.041  18.428  0.00  0.00    +0.000 NA
ATOM      5  C   UNL     1       4.908   3.735  17.423  0.00  0.00    +0.000 A 
ATOM      6  C   UNL     1       5.213   3.920  16.086  0.00  0.00    +0.000 A 
ENDROOT
BRANCH   1   8
ATOM      7  N   UNL     1       6.380   3.723  13.437  0.00  0.00    +0.000 N 
ATOM      8  C   UNL     1       6.916   4.581  14.370  0.00  0.00    +0.000 C 
ATOM      9  N   UNL     1       7.776   5.506  14.056  0.00  0.00    +0.000 NA
ATOM     10  H   UNL     1       6.602   4.061  12.503  0.00  0.00    +0.000 HD
ATOM     11  H   UNL     1       5.386   3.549  13.545  0.00  0.00    +0.000 HD
BRANCH   9  12
ATOM     12  O   UNL     1       8.043   5.478  12.673  0.00  0.00    +0.000 OA
ATOM     13  H   UNL     1       8.183   6.421  12.473  0.00  0.00    +0.000 HD
ENDBRANCH   9  12
ENDBRANCH   1   8
BRANCH   5  14
ATOM     14  O   UNL     1       3.673   3.166  17.731  0.00  0.00    +0.000 OA
BRANCH  14  15
ATOM     15  C   UNL     1       3.096   3.507  18.946  0.00  0.00    +0.000 A 
ATOM     16  C   UNL     1       3.029   2.579  19.994  0.00  0.00    +0.000 A 
ATOM     17  C   UNL     1       2.435   2.918  21.203  0.00  0.00    +0.000 A 
ATOM     18  C   UNL     1       1.965   4.210  21.400  0.00  0.00    +0.000 A 
ATOM     19  C   UNL     1       2.098   5.180  20.394  0.00  0.00    +0.000 A 
ATOM     20  C   UNL     1       2.640   4.826  19.137  0.00  0.00    +0.000 A 
ATOM     21  C   UNL     1       2.774   5.860  18.040  0.00  0.00    +0.000 C 
ATOM     22  C   UNL     1       1.979   7.145  18.293  0.00  0.00    +0.000 C 
ATOM     23  C   UNL     1       2.161   7.618  19.730  0.00  0.00    +0.000 C 
ATOM     24  C   UNL     1       1.599   6.574  20.687  0.00  0.00    +0.000 C 
ENDBRANCH  14  15
ENDBRANCH   5  14
TORSDOF 4
ENDMDL
MODEL 5
REMARK VINA RESULT:      -7.5      3.843      6.124
REMARK  Name = 
REMARK  4 active torsions:
REMARK  status: ('A' for Active; 'I' for Inactive)
REMARK    1  A    between atoms: C_2  and  C_5
REMARK    2  A    between atoms: N_3  and  O_4
REMARK    3  A    between atoms: C_9  and  O_10
REMARK    4  A    between atoms: O_10  and  C_11
REMARK                            x       y       z     vdW  Elec       q    Type
REMARK                         _______ _______ _______ _____ _____    ______ ____
ROOT
ATOM      1  C   UNL     1       4.584   4.603  17.775  0.00  0.00    +0.000 A 
ATOM      2  C   UNL     1       3.669   3.732  17.184  0.00  0.00    +0.000 A 
ATOM      3  C   UNL     1       2.344   3.858  17.541  0.00  0.00    +0.000 A 
ATOM      4  N   UNL     1       1.899   4.775  18.421  0.00  0.00    +0.000 NA
ATOM      5  C   UNL     1       2.815   5.566  19.028  0.00  0.00    +0.000 A 
ATOM      6  C   UNL     1       4.167   5.521  18.737  0.00  0.00    +0.000 A 
ENDROOT
BRANCH   1   8
ATOM      7  N   UNL     1       6.975   4.266  18.244  0.00  0.00    +0.000 N 
ATOM      8  C   UNL     1       6.002   4.570  17.320  0.00  0.00    +0.000 C 
ATOM      9  N   UNL     1       6.274   4.798  16.067  0.00  0.00    +0.000 NA
ATOM     10  H   UNL     1       7.846   4.062  17.759  0.00  0.00    +0.000 HD
ATOM     11  H   UNL     1       6.726   3.528  18.893  0.00  0.00    +0.000 HD
BRANCH   9  12
ATOM     12  O   UNL     1       7.658   4.684  15.837  0.00  0.00    +0.000 OA
ATOM     13  H   UNL     1       7.837   5.460  15.277  0.00  0.00    +0.000 HD
ENDBRANCH   9  12
ENDBRANCH   1   8
BRANCH   5  14
ATOM     14  O   UNL     1       2.386   6.505  19.965  0.00  0.00    +0.000 OA
BRANCH  14  15
ATOM     15  C   UNL     1       2.007   7.753  19.493  0.00  0.00    +0.000 A 
ATOM     16  C   UNL     1       2.230   8.113  18.156  0.00  0.00    +0.000 A 
ATOM     17  C   UNL     1       1.865   9.370  17.691  0.00  0.00    +0.000 A 
ATOM     18  C   UNL     1       1.209  10.254  18.539  0.00  0.00    +0.000 A 
ATOM     19  C   UNL     1       0.901   9.883  19.857  0.00  0.00    +0.000 A 
ATOM     20  C   UNL     1       1.328   8.632  20.359  0.00  0.00    +0.000 A 
ATOM     21  C   UNL     1       1.012   8.229  21.783  0.00  0.00    +0.000 C 
ATOM     22  C   UNL     1       0.539   9.385  22.670  0.00  0.00    +0.000 C 
ATOM     23  C   UNL     1      -0.488  10.239  21.938  0.00  0.00    +0.000 C 
ATOM     24  C   UNL     1       0.154  10.877  20.714  0.00  0.00    +0.000 C 
ENDBRANCH  14  15
ENDBRANCH   5  14
TORSDOF 4
ENDMDL
MODEL 6
REMARK VINA RESULT:      -7.4      2.142      3.037
REMARK  Name = 
REMARK  4 active torsions:
REMARK  status: ('A' for Active; 'I' for Inactive)
REMARK    1  A    between atoms: C_2  and  C_5
REMARK    2  A    between atoms: N_3  and  O_4
REMARK    3  A    between atoms: C_9  and  O_10
REMARK    4  A    between atoms: O_10  and  C_11
REMARK                            x       y       z     vdW  Elec       q    Type
REMARK                         _______ _______ _______ _____ _____    ______ ____
ROOT
ATOM      1  C   UNL     1       6.608   4.789  15.146  0.00  0.00    +0.000 A 
ATOM      2  C   UNL     1       7.512   4.761  16.208  0.00  0.00    +0.000 A 
ATOM      3  C   UNL     1       6.999   4.643  17.481  0.00  0.00    +0.000 A 
ATOM      4  N   UNL     1       5.681   4.552  17.743  0.00  0.00    +0.000 NA
ATOM      5  C   UNL     1       4.822   4.646  16.700  0.00  0.00    +0.000 A 
ATOM      6  C   UNL     1       5.235   4.761  15.385  0.00  0.00    +0.000 A 
ENDROOT
BRANCH   1   8
ATOM      7  N   UNL     1       8.168   5.656  13.453  0.00  0.00    +0.000 N 
ATOM      8  C   UNL     1       7.138   4.794  13.755  0.00  0.00    +0.000 C 
ATOM      9  N   UNL     1       6.637   3.971  12.879  0.00  0.00    +0.000 NA
ATOM     10  H   UNL     1       8.570   5.398  12.555  0.00  0.00    +0.000 HD
ATOM     11  H   UNL     1       8.879   5.733  14.173  0.00  0.00    +0.000 HD
BRANCH   9  12
ATOM     12  O   UNL     1       7.297   4.109  11.643  0.00  0.00    +0.000 OA
ATOM     13  H   UNL     1       7.737   3.245  11.548  0.00  0.00    +0.000 HD
ENDBRANCH   9  12
ENDBRANCH   1   8
BRANCH   5  14
ATOM     14  O   UNL     1       3.450   4.582  16.943  0.00  0.00    +0.000 OA
BRANCH  14  15
ATOM     15  C   UNL     1       2.980   5.155  18.116  0.00  0.00    +0.000 A 
ATOM     16  C   UNL     1       2.786   6.541  18.211  0.00  0.00    +0.000 A 
ATOM     17  C   UNL     1       2.333   7.113  19.393  0.00  0.00    +0.000 A 
ATOM     18  C   UNL     1       2.002   6.299  20.468  0.00  0.00    +0.000 A 
ATOM     19  C   UNL     1       2.108   4.903  20.367  0.00  0.00    +0.000 A 
ATOM     20  C   UNL     1       2.632   4.316  19.192  0.00  0.00    +0.000 A 
ATOM     21  C   UNL     1       2.764   2.813  19.079  0.00  0.00    +0.000 C 
ATOM     22  C   UNL     1       2.626   2.071  20.412  0.00  0.00    +0.000 C 
ATOM     23  C   UNL     1       1.448   2.614  21.211  0.00  0.00    +0.000 C 
ATOM     24  C   UNL     1       1.696   4.075  21.561  0.00  0.00    +0.000 C 
ENDBRANCH  14  15
ENDBRANCH   5  14
TORSDOF 4
ENDMDL
MODEL 7
REMARK VINA RESULT:      -7.4      1.350      1.486
REMARK  Name = 
REMARK  4 active torsions:
REMARK  status: ('A' for Active; 'I' for Inactive)
REMARK    1  A    between atoms: C_2  and  C_5
REMARK    2  A    between atoms: N_3  and  O_4
REMARK    3  A    between atoms: C_9  and  O_10
REMARK    4  A    between atoms: O_10  and  C_11
REMARK                            x       y       z     vdW  Elec       q    Type
REMARK                         _______ _______ _______ _____ _____    ______ ____
ROOT
ATOM      1  C   UNL     1       6.091   3.989  13.890  0.00  0.00    +0.000 A 
ATOM      2  C   UNL     1       7.215   4.814  13.850  0.00  0.00    +0.000 A 
ATOM      3  C   UNL     1       7.679   5.320  15.045  0.00  0.00    +0.000 A 
ATOM      4  N   UNL     1       7.105   5.054  16.234  0.00  0.00    +0.000 NA
ATOM      5  C   UNL     1       5.979   4.303  16.238  0.00  0.00    +0.000 A 
ATOM      6  C   UNL     1       5.435   3.745  15.095  0.00  0.00    +0.000 A 
ENDROOT
BRANCH   1   8
ATOM      7  N   UNL     1       6.505   2.467  12.002  0.00  0.00    +0.000 N 
ATOM      8  C   UNL     1       5.640   3.333  12.632  0.00  0.00    +0.000 C 
ATOM      9  N   UNL     1       4.441   3.571  12.183  0.00  0.00    +0.000 NA
ATOM     10  H   UNL     1       5.995   1.933  11.301  0.00  0.00    +0.000 HD
ATOM     11  H   UNL     1       7.026   1.861  12.628  0.00  0.00    +0.000 HD
BRANCH   9  12
ATOM     12  O   UNL     1       4.199   2.830  11.011  0.00  0.00    +0.000 OA
ATOM     13  H   UNL     1       3.337   2.419  11.203  0.00  0.00    +0.000 HD
ENDBRANCH   9  12
ENDBRANCH   1   8
BRANCH   5  14
ATOM     14  O   UNL     1       5.346   4.035  17.452  0.00  0.00    +0.000 OA
BRANCH  14  15
ATOM     15  C   UNL     1       4.428   4.966  17.916  0.00  0.00    +0.000 A 
ATOM     16  C   UNL     1       4.347   6.242  17.340  0.00  0.00    +0.000 A 
ATOM     17  C   UNL     1       3.439   7.178  17.819  0.00  0.00    +0.000 A 
ATOM     18  C   UNL     1       2.555   6.824  18.829  0.00  0.00    +0.000 A 
ATOM     19  C   UNL     1       2.562   5.525  19.363  0.00  0.00    +0.000 A 
ATOM     20  C   UNL     1       3.527   4.587  18.929  0.00  0.00    +0.000 A 
ATOM     21  C   UNL     1       3.552   3.189  19.508  0.00  0.00    +0.000 C 
ATOM     22  C   UNL     1       2.719   3.026  20.784  0.00  0.00    +0.000 C 
ATOM     23  C   UNL     1       1.361   3.698  20.630  0.00  0.00    +0.000 C 
ATOM     24  C   UNL     1       1.549   5.196  20.434  0.00  0.00    +0.000 C 
ENDBRANCH  14  15
ENDBRANCH   5  14
TORSDOF 4
ENDMDL
MODEL 8
REMARK VINA RESULT:      -7.4      3.157      5.109
REMARK  Name = 
REMARK  4 active torsions:
REMARK  status: ('A' for Active; 'I' for Inactive)
REMARK    1  A    between atoms: C_2  and  C_5
REMARK    2  A    between atoms: N_3  and  O_4
REMARK    3  A    between atoms: C_9  and  O_10
REMARK    4  A    between atoms: O_10  and  C_11
REMARK                            x       y       z     vdW  Elec       q    Type
REMARK                         _______ _______ _______ _____ _____    ______ ____
ROOT
ATOM      1  C   UNL     1       6.848   6.711  17.430  0.00  0.00    +0.000 A 
ATOM      2  C   UNL     1       7.349   5.616  16.726  0.00  0.00    +0.000 A 
ATOM      3  C   UNL     1       6.440   4.768  16.131  0.00  0.00    +0.000 A 
ATOM      4  N   UNL     1       5.107   4.949  16.196  0.00  0.00    +0.000 NA
ATOM      5  C   UNL     1       4.645   5.982  16.938  0.00  0.00    +0.000 A 
ATOM      6  C   UNL     1       5.473   6.892  17.570  0.00  0.00    +0.000 A 
ENDROOT
BRANCH   1   8
ATOM      7  N   UNL     1       8.577   7.344  19.061  0.00  0.00    +0.000 N 
ATOM      8  C   UNL     1       7.807   7.709  17.981  0.00  0.00    +0.000 C 
ATOM      9  N   UNL     1       7.909   8.875  17.411  0.00  0.00    +0.000 NA
ATOM     10  H   UNL     1       9.326   8.022  19.184  0.00  0.00    +0.000 HD
ATOM     11  H   UNL     1       8.934   6.395  19.025  0.00  0.00    +0.000 HD
BRANCH   9  12
ATOM     12  O   UNL     1       8.891   9.651  18.057  0.00  0.00    +0.000 OA
ATOM     13  H   UNL     1       8.651   9.545  18.995  0.00  0.00    +0.000 HD
ENDBRANCH   9  12
ENDBRANCH   1   8
BRANCH   5  14
ATOM     14  O   UNL     1       3.268   6.178  17.046  0.00  0.00    +0.000 OA
BRANCH  14  15
ATOM     15  C   UNL     1       2.681   5.932  18.279  0.00  0.00    +0.000 A 
ATOM     16  C   UNL     1       2.503   6.966  19.209  0.00  0.00    +0.000 A 
ATOM     17  C   UNL     1       1.932   6.713  20.449  0.00  0.00    +0.000 A 
ATOM     18  C   UNL     1       1.468   5.438  20.745  0.00  0.00    +0.000 A 
ATOM     19  C   UNL     1       1.559   4.406  19.797  0.00  0.00    +0.000 A 
ATOM     20  C   UNL     1       2.200   4.638  18.558  0.00  0.00    +0.000 A 
ATOM     21  C   UNL     1       2.316   3.529  17.535  0.00  0.00    +0.000 C 
ATOM     22  C   UNL     1       2.017   2.133  18.091  0.00  0.00    +0.000 C 
ATOM     23  C   UNL     1       0.768   2.156  18.962  0.00  0.00    +0.000 C 
ATOM     24  C   UNL     1       1.002   3.053  20.170  0.00  0.00    +0.000 C 
ENDBRANCH  14  15
ENDBRANCH   5  14
TORSDOF 4
ENDMDL
MODEL 9
REMARK VINA RESULT:      -7.3      2.782      5.527
REMARK  Name = 
REMARK  4 active torsions:
REMARK  status: ('A' for Active; 'I' for Inactive)
REMARK    1  A    between atoms: C_2  and  C_5
REMARK    2  A    between atoms: N_3  and  O_4
REMARK    3  A    between atoms: C_9  and  O_10
REMARK    4  A    between atoms: O_10  and  C_11
REMARK                            x       y       z     vdW  Elec       q    Type
REMARK                         _______ _______ _______ _____ _____    ______ ____
ROOT
ATOM      1  C   UNL     1       6.688   5.013  17.853  0.00  0.00    +0.000 A 
ATOM      2  C   UNL     1       7.337   4.775  16.641  0.00  0.00    +0.000 A 
ATOM      3  C   UNL     1       6.562   4.401  15.565  0.00  0.00    +0.000 A 
ATOM      4  N   UNL     1       5.225   4.259  15.628  0.00  0.00    +0.000 NA
ATOM      5  C   UNL     1       4.627   4.434  16.831  0.00  0.00    +0.000 A 
ATOM      6  C   UNL     1       5.313   4.814  17.970  0.00  0.00    +0.000 A 
ENDROOT
BRANCH   1   8
ATOM      7  N   UNL     1       8.216   6.683  18.816  0.00  0.00    +0.000 N 
ATOM      8  C   UNL     1       7.482   5.533  19.000  0.00  0.00    +0.000 C 
ATOM      9  N   UNL     1       7.436   4.910  20.142  0.00  0.00    +0.000 NA
ATOM     10  H   UNL     1       8.517   7.038  19.720  0.00  0.00    +0.000 HD
ATOM     11  H   UNL     1       7.750   7.399  18.269  0.00  0.00    +0.000 HD
BRANCH   9  12
ATOM     12  O   UNL     1       8.222   5.579  21.099  0.00  0.00    +0.000 OA
ATOM     13  H   UNL     1       9.120   5.275  20.876  0.00  0.00    +0.000 HD
ENDBRANCH   9  12
ENDBRANCH   1   8
BRANCH   5  14
ATOM     14  O   UNL     1       3.246   4.267  16.933  0.00  0.00    +0.000 OA
BRANCH  14  15
ATOM     15  C   UNL     1       2.697   4.243  18.207  0.00  0.00    +0.000 A 
ATOM     16  C   UNL     1       2.596   3.042  18.923  0.00  0.00    +0.000 A 
ATOM     17  C   UNL     1       2.029   3.019  20.191  0.00  0.00    +0.000 A 
ATOM     18  C   UNL     1       1.624   4.207  20.784  0.00  0.00    +0.000 A 
ATOM     19  C   UNL     1       1.793   5.432  20.120  0.00  0.00    +0.000 A 
ATOM     20  C   UNL     1       2.307   5.458  18.803  0.00  0.00    +0.000 A 
ATOM     21  C   UNL     1       2.480   6.772  18.072  0.00  0.00    +0.000 C 
ATOM     22  C   UNL     1       1.749   7.950  18.724  0.00  0.00    +0.000 C 
ATOM     23  C   UNL     1       1.966   7.952  20.232  0.00  0.00    +0.000 C 
ATOM     24  C   UNL     1       1.364   6.690  20.837  0.00  0.00    +0.000 C 
ENDBRANCH  14  15
ENDBRANCH   5  14
TORSDOF 4
ENDMDL
