MODEL 1
REMARK VINA RESULT:      -7.8      0.000      0.000
REMARK  Name = 
REMARK  6 active torsions:
REMARK  status: ('A' for Active; 'I' for Inactive)
REMARK    1  A    between atoms: C_1  and  O_2
REMARK    2  A    between atoms: O_2  and  C_3
REMARK    3  A    between atoms: C_6  and  N_7
REMARK    4  A    between atoms: C_11  and  C_13
REMARK    5  A    between atoms: C_13  and  N_14
REMARK    6  A    between atoms: N_21  and  C_22
REMARK                            x       y       z     vdW  Elec       q    Type
REMARK                         _______ _______ _______ _____ _____    ______ ____
ROOT
ATOM      1  C   UNL     1       0.827  11.979  20.810  0.00  0.00    +0.000 C 
ENDROOT
BRANCH   1   2
ATOM      2  N   UNL     1      -0.589  12.282  20.970  0.00  0.00    +0.000 N 
ATOM      3  C   UNL     1      -1.383  12.451  19.841  0.00  0.00    +0.000 A 
ATOM      4  N   UNL     1      -2.671  12.615  19.834  0.00  0.00    +0.000 NA
ATOM      5  C   UNL     1      -3.243  12.574  21.065  0.00  0.00    +0.000 A 
ATOM      6  C   UNL     1      -2.582  12.328  22.242  0.00  0.00    +0.000 A 
ATOM      7  C   UNL     1      -3.557  12.330  23.238  0.00  0.00    +0.000 A 
ATOM      8  N   UNL     1      -4.768  12.618  22.756  0.00  0.00    +0.000 NA
ATOM      9  N   UNL     1      -4.587  12.762  21.399  0.00  0.00    +0.000 N 
ATOM     10  C   UNL     1      -1.164  12.116  22.232  0.00  0.00    +0.000 A 
ATOM     11  O   UNL     1      -0.542  11.801  23.242  0.00  0.00    +0.000 OA
BRANCH   9  12
ATOM     12  C   UNL     1      -5.702  13.058  20.558  0.00  0.00    +0.000 A 
ATOM     13  C   UNL     1      -6.405  12.005  19.945  0.00  0.00    +0.000 A 
ATOM     14  C   UNL     1      -7.491  12.273  19.106  0.00  0.00    +0.000 A 
ATOM     15  C   UNL     1      -7.881  13.587  18.867  0.00  0.00    +0.000 A 
ATOM     16  C   UNL     1      -7.194  14.636  19.473  0.00  0.00    +0.000 A 
ATOM     17  C   UNL     1      -6.114  14.373  20.319  0.00  0.00    +0.000 A 
ENDBRANCH   9  12
ENDBRANCH   1   2
BRANCH   1  22
ATOM     18  N   UNL     1       2.441   7.471  19.080  0.00  0.00    +0.000 N 
ATOM     19  C   UNL     1       2.517   8.466  17.994  0.00  0.00    +0.000 C 
ATOM     20  C   UNL     1       1.259   9.347  18.000  0.00  0.00    +0.000 C 
ATOM     21  N   UNL     1       1.042   9.954  19.323  0.00  0.00    +0.000 N 
ATOM     22  C   UNL     1       1.169  11.321  19.470  0.00  0.00    +0.000 C 
ATOM     23  O   UNL     1       1.567  12.035  18.543  0.00  0.00    +0.000 OA
ATOM     24  C   UNL     1       0.962   8.969  20.412  0.00  0.00    +0.000 C 
ATOM     25  C   UNL     1       2.194   8.026  20.426  0.00  0.00    +0.000 C 
BRANCH  18  29
ATOM     26  C   UNL     1       2.358   3.307  18.349  0.00  0.00    +0.000 A 
ATOM     27  C   UNL     1       3.185   3.842  19.331  0.00  0.00    +0.000 A 
ATOM     28  C   UNL     1       3.198   5.221  19.578  0.00  0.00    +0.000 A 
ATOM     29  C   UNL     1       2.406   6.112  18.840  0.00  0.00    +0.000 A 
ATOM     30  C   UNL     1       1.604   5.549  17.835  0.00  0.00    +0.000 A 
ATOM     31  C   UNL     1       1.574   4.167  17.589  0.00  0.00    +0.000 A 
BRANCH  26  33
ATOM     32  C   UNL     1       3.621   1.338  18.657  0.00  0.00    +0.000 C 
ATOM     33  O   UNL     1       2.422   1.951  18.195  0.00  0.00    +0.000 OA
ENDBRANCH  26  33
ENDBRANCH  18  29
ENDBRANCH   1  22
TORSDOF 5
ENDMDL
MODEL 2
REMARK VINA RESULT:      -7.6      3.183     11.242
REMARK  Name = 
REMARK  6 active torsions:
REMARK  status: ('A' for Active; 'I' for Inactive)
REMARK    1  A    between atoms: C_1  and  O_2
REMARK    2  A    between atoms: O_2  and  C_3
REMARK    3  A    between atoms: C_6  and  N_7
REMARK    4  A    between atoms: C_11  and  C_13
REMARK    5  A    between atoms: C_13  and  N_14
REMARK    6  A    between atoms: N_21  and  C_22
REMARK                            x       y       z     vdW  Elec       q    Type
REMARK                         _______ _______ _______ _____ _____    ______ ____
ROOT
ATOM      1  C   UNL     1       1.645   7.545  20.762  0.00  0.00    +0.000 C 
ENDROOT
BRANCH   1   2
ATOM      2  N   UNL     1       2.263   6.694  19.754  0.00  0.00    +0.000 N 
ATOM      3  C   UNL     1       3.241   7.222  18.919  0.00  0.00    +0.000 A 
ATOM      4  N   UNL     1       3.948   6.555  18.057  0.00  0.00    +0.000 NA
ATOM      5  C   UNL     1       3.689   5.223  18.039  0.00  0.00    +0.000 A 
ATOM      6  C   UNL     1       2.813   4.570  18.869  0.00  0.00    +0.000 A 
ATOM      7  C   UNL     1       2.901   3.220  18.537  0.00  0.00    +0.000 A 
ATOM      8  N   UNL     1       3.733   3.007  17.514  0.00  0.00    +0.000 NA
ATOM      9  N   UNL     1       4.238   4.247  17.202  0.00  0.00    +0.000 N 
ATOM     10  C   UNL     1       2.063   5.313  19.839  0.00  0.00    +0.000 A 
ATOM     11  O   UNL     1       1.339   4.767  20.667  0.00  0.00    +0.000 OA
BRANCH   9  12
ATOM     12  C   UNL     1       5.193   4.385  16.148  0.00  0.00    +0.000 A 
ATOM     13  C   UNL     1       4.837   4.014  14.839  0.00  0.00    +0.000 A 
ATOM     14  C   UNL     1       5.760   4.127  13.796  0.00  0.00    +0.000 A 
ATOM     15  C   UNL     1       7.043   4.604  14.046  0.00  0.00    +0.000 A 
ATOM     16  C   UNL     1       7.404   4.978  15.339  0.00  0.00    +0.000 A 
ATOM     17  C   UNL     1       6.481   4.875  16.384  0.00  0.00    +0.000 A 
ENDBRANCH   9  12
ENDBRANCH   1   2
BRANCH   1  22
ATOM     18  N   UNL     1      -1.377  11.370  22.228  0.00  0.00    +0.000 N 
ATOM     19  C   UNL     1      -1.066  11.516  20.794  0.00  0.00    +0.000 C 
ATOM     20  C   UNL     1       0.419  11.214  20.545  0.00  0.00    +0.000 C 
ATOM     21  N   UNL     1       0.789   9.895  21.083  0.00  0.00    +0.000 N 
ATOM     22  C   UNL     1       1.140   8.883  20.212  0.00  0.00    +0.000 C 
ATOM     23  O   UNL     1       1.047   9.023  18.988  0.00  0.00    +0.000 OA
ATOM     24  C   UNL     1       0.485   9.741  22.514  0.00  0.00    +0.000 C 
ATOM     25  C   UNL     1      -0.997  10.075  22.825  0.00  0.00    +0.000 C 
BRANCH  18  29
ATOM     26  C   UNL     1      -2.722  14.604  24.597  0.00  0.00    +0.000 A 
ATOM     27  C   UNL     1      -3.551  13.517  24.339  0.00  0.00    +0.000 A 
ATOM     28  C   UNL     1      -3.094  12.442  23.564  0.00  0.00    +0.000 A 
ATOM     29  C   UNL     1      -1.809  12.427  23.005  0.00  0.00    +0.000 A 
ATOM     30  C   UNL     1      -1.005  13.549  23.257  0.00  0.00    +0.000 A 
ATOM     31  C   UNL     1      -1.448  14.625  24.042  0.00  0.00    +0.000 A 
BRANCH  26  33
ATOM     32  C   UNL     1      -3.131  16.914  24.853  0.00  0.00    +0.000 C 
ATOM     33  O   UNL     1      -3.267  15.593  25.366  0.00  0.00    +0.000 OA
ENDBRANCH  26  33
ENDBRANCH  18  29
ENDBRANCH   1  22
TORSDOF 5
ENDMDL
MODEL 3
REMARK VINA RESULT:      -7.2      3.513     11.351
REMARK  Name = 
REMARK  6 active torsions:
REMARK  status: ('A' for Active; 'I' for Inactive)
REMARK    1  A    between atoms: C_1  and  O_2
REMARK    2  A    between atoms: O_2  and  C_3
REMARK    3  A    between atoms: C_6  and  N_7
REMARK    4  A    between atoms: C_11  and  C_13
REMARK    5  A    between atoms: C_13  and  N_14
REMARK    6  A    between atoms: N_21  and  C_22
REMARK                            x       y       z     vdW  Elec       q    Type
REMARK                         _______ _______ _______ _____ _____    ______ ____
ROOT
ATOM      1  C   UNL     1       2.300   7.728  19.542  0.00  0.00    +0.000 C 
ENDROOT
BRANCH   1   2
ATOM      2  N   UNL     1       2.900   6.809  18.585  0.00  0.00    +0.000 N 
ATOM      3  C   UNL     1       3.724   7.307  17.582  0.00  0.00    +0.000 A 
ATOM      4  N   UNL     1       4.407   6.598  16.735  0.00  0.00    +0.000 NA
ATOM      5  C   UNL     1       4.294   5.257  16.916  0.00  0.00    +0.000 A 
ATOM      6  C   UNL     1       3.584   4.645  17.918  0.00  0.00    +0.000 A 
ATOM      7  C   UNL     1       3.784   3.276  17.750  0.00  0.00    +0.000 A 
ATOM      8  N   UNL     1       4.524   3.004  16.673  0.00  0.00    +0.000 NA
ATOM      9  N   UNL     1       4.858   4.232  16.150  0.00  0.00    +0.000 N 
ATOM     10  C   UNL     1       2.861   5.441  18.866  0.00  0.00    +0.000 A 
ATOM     11  O   UNL     1       2.289   4.948  19.835  0.00  0.00    +0.000 OA
BRANCH   9  12
ATOM     12  C   UNL     1       5.678   4.313  14.984  0.00  0.00    +0.000 A 
ATOM     13  C   UNL     1       5.263   3.677  13.800  0.00  0.00    +0.000 A 
ATOM     14  C   UNL     1       6.058   3.732  12.652  0.00  0.00    +0.000 A 
ATOM     15  C   UNL     1       7.271   4.413  12.673  0.00  0.00    +0.000 A 
ATOM     16  C   UNL     1       7.689   5.049  13.840  0.00  0.00    +0.000 A 
ATOM     17  C   UNL     1       6.894   5.005  14.988  0.00  0.00    +0.000 A 
ENDBRANCH   9  12
ENDBRANCH   1   2
BRANCH   1  22
ATOM     18  N   UNL     1      -1.083  11.295  20.867  0.00  0.00    +0.000 N 
ATOM     19  C   UNL     1      -0.959  11.262  19.398  0.00  0.00    +0.000 C 
ATOM     20  C   UNL     1       0.517  11.125  18.998  0.00  0.00    +0.000 C 
ATOM     21  N   UNL     1       1.140   9.965  19.655  0.00  0.00    +0.000 N 
ATOM     22  C   UNL     1       1.541   8.888  18.889  0.00  0.00    +0.000 C 
ATOM     23  O   UNL     1       1.291   8.827  17.681  0.00  0.00    +0.000 OA
ATOM     24  C   UNL     1       1.024   9.991  21.121  0.00  0.00    +0.000 C 
ATOM     25  C   UNL     1      -0.447  10.168  21.578  0.00  0.00    +0.000 C 
BRANCH  18  29
ATOM     26  C   UNL     1      -2.604  14.637  22.964  0.00  0.00    +0.000 A 
ATOM     27  C   UNL     1      -1.666  13.794  23.551  0.00  0.00    +0.000 A 
ATOM     28  C   UNL     1      -1.156  12.696  22.846  0.00  0.00    +0.000 A 
ATOM     29  C   UNL     1      -1.580  12.390  21.545  0.00  0.00    +0.000 A 
ATOM     30  C   UNL     1      -2.548  13.240  20.988  0.00  0.00    +0.000 A 
ATOM     31  C   UNL     1      -3.056  14.350  21.682  0.00  0.00    +0.000 A 
BRANCH  26  33
ATOM     32  C   UNL     1      -3.210  15.381  25.119  0.00  0.00    +0.000 C 
ATOM     33  O   UNL     1      -3.030  15.678  23.739  0.00  0.00    +0.000 OA
ENDBRANCH  26  33
ENDBRANCH  18  29
ENDBRANCH   1  22
TORSDOF 5
ENDMDL
MODEL 4
REMARK VINA RESULT:      -7.2      3.372     11.309
REMARK  Name = 
REMARK  6 active torsions:
REMARK  status: ('A' for Active; 'I' for Inactive)
REMARK    1  A    between atoms: C_1  and  O_2
REMARK    2  A    between atoms: O_2  and  C_3
REMARK    3  A    between atoms: C_6  and  N_7
REMARK    4  A    between atoms: C_11  and  C_13
REMARK    5  A    between atoms: C_13  and  N_14
REMARK    6  A    between atoms: N_21  and  C_22
REMARK                            x       y       z     vdW  Elec       q    Type
REMARK                         _______ _______ _______ _____ _____    ______ ____
ROOT
ATOM      1  C   UNL     1       1.965   7.909  19.849  0.00  0.00    +0.000 C 
ENDROOT
BRANCH   1   2
ATOM      2  N   UNL     1       2.585   6.970  18.924  0.00  0.00    +0.000 N 
ATOM      3  C   UNL     1       3.439   7.447  17.936  0.00  0.00    +0.000 A 
ATOM      4  N   UNL     1       4.140   6.720  17.120  0.00  0.00    +0.000 NA
ATOM      5  C   UNL     1       4.014   5.383  17.319  0.00  0.00    +0.000 A 
ATOM      6  C   UNL     1       3.273   4.791  18.311  0.00  0.00    +0.000 A 
ATOM      7  C   UNL     1       3.469   3.419  18.171  0.00  0.00    +0.000 A 
ATOM      8  N   UNL     1       4.237   3.125  17.120  0.00  0.00    +0.000 NA
ATOM      9  N   UNL     1       4.592   4.342  16.586  0.00  0.00    +0.000 N 
ATOM     10  C   UNL     1       2.530   5.607  19.226  0.00  0.00    +0.000 A 
ATOM     11  O   UNL     1       1.929   5.133  20.187  0.00  0.00    +0.000 OA
BRANCH   9  12
ATOM     12  C   UNL     1       5.444   4.398  15.441  0.00  0.00    +0.000 A 
ATOM     13  C   UNL     1       6.666   5.090  15.522  0.00  0.00    +0.000 A 
ATOM     14  C   UNL     1       7.509   5.169  14.410  0.00  0.00    +0.000 A 
ATOM     15  C   UNL     1       7.142   4.567  13.210  0.00  0.00    +0.000 A 
ATOM     16  C   UNL     1       5.935   3.876  13.122  0.00  0.00    +0.000 A 
ATOM     17  C   UNL     1       5.093   3.786  14.234  0.00  0.00    +0.000 A 
ENDBRANCH   9  12
ENDBRANCH   1   2
BRANCH   1  22
ATOM     18  N   UNL     1      -1.134  11.765  21.051  0.00  0.00    +0.000 N 
ATOM     19  C   UNL     1      -1.000  11.685  19.585  0.00  0.00    +0.000 C 
ATOM     20  C   UNL     1       0.464  11.422  19.204  0.00  0.00    +0.000 C 
ATOM     21  N   UNL     1       0.986  10.232  19.895  0.00  0.00    +0.000 N 
ATOM     22  C   UNL     1       1.306   9.109  19.160  0.00  0.00    +0.000 C 
ATOM     23  O   UNL     1       1.064   9.037  17.951  0.00  0.00    +0.000 OA
ATOM     24  C   UNL     1       0.860  10.304  21.359  0.00  0.00    +0.000 C 
ATOM     25  C   UNL     1      -0.597  10.609  21.795  0.00  0.00    +0.000 C 
BRANCH  18  29
ATOM     26  C   UNL     1      -2.408  15.268  23.048  0.00  0.00    +0.000 A 
ATOM     27  C   UNL     1      -1.817  14.222  23.750  0.00  0.00    +0.000 A 
ATOM     28  C   UNL     1      -1.385  13.070  23.081  0.00  0.00    +0.000 A 
ATOM     29  C   UNL     1      -1.548  12.913  21.697  0.00  0.00    +0.000 A 
ATOM     30  C   UNL     1      -2.174  13.970  21.018  0.00  0.00    +0.000 A 
ATOM     31  C   UNL     1      -2.599  15.134  21.678  0.00  0.00    +0.000 A 
BRANCH  26  33
ATOM     32  C   UNL     1      -3.694  16.061  24.860  0.00  0.00    +0.000 C 
ATOM     33  O   UNL     1      -2.788  16.344  23.799  0.00  0.00    +0.000 OA
ENDBRANCH  26  33
ENDBRANCH  18  29
ENDBRANCH   1  22
TORSDOF 5
ENDMDL
MODEL 5
REMARK VINA RESULT:      -7.1      2.808     10.831
REMARK  Name = 
REMARK  6 active torsions:
REMARK  status: ('A' for Active; 'I' for Inactive)
REMARK    1  A    between atoms: C_1  and  O_2
REMARK    2  A    between atoms: O_2  and  C_3
REMARK    3  A    between atoms: C_6  and  N_7
REMARK    4  A    between atoms: C_11  and  C_13
REMARK    5  A    between atoms: C_13  and  N_14
REMARK    6  A    between atoms: N_21  and  C_22
REMARK                            x       y       z     vdW  Elec       q    Type
REMARK                         _______ _______ _______ _____ _____    ______ ____
ROOT
ATOM      1  C   UNL     1       0.685  11.461  18.977  0.00  0.00    +0.000 C 
ENDROOT
BRANCH   1   2
ATOM      2  N   UNL     1       1.147  10.080  18.944  0.00  0.00    +0.000 N 
ATOM      3  C   UNL     1       1.910   9.639  17.868  0.00  0.00    +0.000 A 
ATOM      4  N   UNL     1       2.475   8.474  17.763  0.00  0.00    +0.000 NA
ATOM      5  C   UNL     1       2.299   7.672  18.843  0.00  0.00    +0.000 A 
ATOM      6  C   UNL     1       1.643   8.020  19.997  0.00  0.00    +0.000 A 
ATOM      7  C   UNL     1       1.747   6.921  20.846  0.00  0.00    +0.000 A 
ATOM      8  N   UNL     1       2.375   5.895  20.267  0.00  0.00    +0.000 NA
ATOM      9  N   UNL     1       2.734   6.355  19.021  0.00  0.00    +0.000 N 
ATOM     10  C   UNL     1       1.051   9.321  20.113  0.00  0.00    +0.000 A 
ATOM     11  O   UNL     1       0.537   9.715  21.156  0.00  0.00    +0.000 OA
BRANCH   9  12
ATOM     12  C   UNL     1       3.456   5.506  18.127  0.00  0.00    +0.000 A 
ATOM     13  C   UNL     1       4.556   6.022  17.418  0.00  0.00    +0.000 A 
ATOM     14  C   UNL     1       5.267   5.212  16.529  0.00  0.00    +0.000 A 
ATOM     15  C   UNL     1       4.888   3.888  16.333  0.00  0.00    +0.000 A 
ATOM     16  C   UNL     1       3.802   3.366  17.033  0.00  0.00    +0.000 A 
ATOM     17  C   UNL     1       3.093   4.169  17.931  0.00  0.00    +0.000 A 
ENDBRANCH   9  12
ENDBRANCH   1   2
BRANCH   1  22
ATOM     18  N   UNL     1      -2.531  13.425  22.399  0.00  0.00    +0.000 N 
ATOM     19  C   UNL     1      -3.284  12.592  21.443  0.00  0.00    +0.000 C 
ATOM     20  C   UNL     1      -2.781  12.845  20.014  0.00  0.00    +0.000 C 
ATOM     21  N   UNL     1      -1.325  12.653  19.923  0.00  0.00    +0.000 N 
ATOM     22  C   UNL     1      -0.827  11.601  19.181  0.00  0.00    +0.000 C 
ATOM     23  O   UNL     1      -1.573  10.753  18.681  0.00  0.00    +0.000 OA
ATOM     24  C   UNL     1      -0.565  13.483  20.870  0.00  0.00    +0.000 C 
ATOM     25  C   UNL     1      -1.063  13.293  22.327  0.00  0.00    +0.000 C 
BRANCH  18  29
ATOM     26  C   UNL     1      -4.379  16.428  24.733  0.00  0.00    +0.000 A 
ATOM     27  C   UNL     1      -4.766  16.212  23.414  0.00  0.00    +0.000 A 
ATOM     28  C   UNL     1      -4.159  15.206  22.650  0.00  0.00    +0.000 A 
ATOM     29  C   UNL     1      -3.134  14.401  23.167  0.00  0.00    +0.000 A 
ATOM     30  C   UNL     1      -2.743  14.661  24.490  0.00  0.00    +0.000 A 
ATOM     31  C   UNL     1      -3.353  15.659  25.267  0.00  0.00    +0.000 A 
BRANCH  26  33
ATOM     32  C   UNL     1      -4.297  18.630  25.577  0.00  0.00    +0.000 C 
ATOM     33  O   UNL     1      -5.039  17.431  25.385  0.00  0.00    +0.000 OA
ENDBRANCH  26  33
ENDBRANCH  18  29
ENDBRANCH   1  22
TORSDOF 5
ENDMDL
MODEL 6
REMARK VINA RESULT:      -7.1      2.756     10.842
REMARK  Name = 
REMARK  6 active torsions:
REMARK  status: ('A' for Active; 'I' for Inactive)
REMARK    1  A    between atoms: C_1  and  O_2
REMARK    2  A    between atoms: O_2  and  C_3
REMARK    3  A    between atoms: C_6  and  N_7
REMARK    4  A    between atoms: C_11  and  C_13
REMARK    5  A    between atoms: C_13  and  N_14
REMARK    6  A    between atoms: N_21  and  C_22
REMARK                            x       y       z     vdW  Elec       q    Type
REMARK                         _______ _______ _______ _____ _____    ______ ____
ROOT
ATOM      1  C   UNL     1       1.000  11.201  19.792  0.00  0.00    +0.000 C 
ENDROOT
BRANCH   1   2
ATOM      2  N   UNL     1       1.494   9.837  19.657  0.00  0.00    +0.000 N 
ATOM      3  C   UNL     1       1.186   8.898  20.635  0.00  0.00    +0.000 A 
ATOM      4  N   UNL     1       1.466   7.631  20.589  0.00  0.00    +0.000 NA
ATOM      5  C   UNL     1       2.083   7.240  19.444  0.00  0.00    +0.000 A 
ATOM      6  C   UNL     1       2.362   8.050  18.373  0.00  0.00    +0.000 A 
ATOM      7  C   UNL     1       2.947   7.229  17.411  0.00  0.00    +0.000 A 
ATOM      8  N   UNL     1       3.099   5.976  17.845  0.00  0.00    +0.000 NA
ATOM      9  N   UNL     1       2.554   5.967  19.108  0.00  0.00    +0.000 N 
ATOM     10  C   UNL     1       2.019   9.441  18.424  0.00  0.00    +0.000 A 
ATOM     11  O   UNL     1       2.161  10.187  17.459  0.00  0.00    +0.000 OA
BRANCH   9  12
ATOM     12  C   UNL     1       2.528   4.757  19.867  0.00  0.00    +0.000 A 
ATOM     13  C   UNL     1       1.387   4.439  20.625  0.00  0.00    +0.000 A 
ATOM     14  C   UNL     1       1.347   3.267  21.385  0.00  0.00    +0.000 A 
ATOM     15  C   UNL     1       2.441   2.407  21.403  0.00  0.00    +0.000 A 
ATOM     16  C   UNL     1       3.574   2.711  20.651  0.00  0.00    +0.000 A 
ATOM     17  C   UNL     1       3.616   3.877  19.882  0.00  0.00    +0.000 A 
ENDBRANCH   9  12
ENDBRANCH   1   2
BRANCH   1  22
ATOM     18  N   UNL     1      -2.539  13.355  22.750  0.00  0.00    +0.000 N 
ATOM     19  C   UNL     1      -3.187  12.402  21.829  0.00  0.00    +0.000 C 
ATOM     20  C   UNL     1      -2.582  12.536  20.424  0.00  0.00    +0.000 C 
ATOM     21  N   UNL     1      -1.117  12.395  20.462  0.00  0.00    +0.000 N 
ATOM     22  C   UNL     1      -0.527  11.298  19.868  0.00  0.00    +0.000 C 
ATOM     23  O   UNL     1      -1.203  10.375  19.401  0.00  0.00    +0.000 OA
ATOM     24  C   UNL     1      -0.462  13.344  21.376  0.00  0.00    +0.000 C 
ATOM     25  C   UNL     1      -1.066  13.276  22.802  0.00  0.00    +0.000 C 
BRANCH  18  29
ATOM     26  C   UNL     1      -4.656  16.471  24.671  0.00  0.00    +0.000 A 
ATOM     27  C   UNL     1      -3.465  15.987  25.201  0.00  0.00    +0.000 A 
ATOM     28  C   UNL     1      -2.761  14.963  24.553  0.00  0.00    +0.000 A 
ATOM     29  C   UNL     1      -3.232  14.375  23.370  0.00  0.00    +0.000 A 
ATOM     30  C   UNL     1      -4.451  14.862  22.874  0.00  0.00    +0.000 A 
ATOM     31  C   UNL     1      -5.158  15.896  23.509  0.00  0.00    +0.000 A 
BRANCH  26  33
ATOM     32  C   UNL     1      -4.454  18.624  25.615  0.00  0.00    +0.000 C 
ATOM     33  O   UNL     1      -5.256  17.471  25.382  0.00  0.00    +0.000 OA
ENDBRANCH  26  33
ENDBRANCH  18  29
ENDBRANCH   1  22
TORSDOF 5
ENDMDL
MODEL 7
REMARK VINA RESULT:      -7.0      3.705     10.956
REMARK  Name = 
REMARK  6 active torsions:
REMARK  status: ('A' for Active; 'I' for Inactive)
REMARK    1  A    between atoms: C_1  and  O_2
REMARK    2  A    between atoms: O_2  and  C_3
REMARK    3  A    between atoms: C_6  and  N_7
REMARK    4  A    between atoms: C_11  and  C_13
REMARK    5  A    between atoms: C_13  and  N_14
REMARK    6  A    between atoms: N_21  and  C_22
REMARK                            x       y       z     vdW  Elec       q    Type
REMARK                         _______ _______ _______ _____ _____    ______ ____
ROOT
ATOM      1  C   UNL     1       0.536  10.209  18.817  0.00  0.00    +0.000 C 
ENDROOT
BRANCH   1   2
ATOM      2  N   UNL     1       1.350   9.004  18.735  0.00  0.00    +0.000 N 
ATOM      3  C   UNL     1       2.270   8.870  17.701  0.00  0.00    +0.000 A 
ATOM      4  N   UNL     1       3.130   7.906  17.568  0.00  0.00    +0.000 NA
ATOM      5  C   UNL     1       3.106   6.997  18.576  0.00  0.00    +0.000 A 
ATOM      6  C   UNL     1       2.308   7.064  19.691  0.00  0.00    +0.000 A 
ATOM      7  C   UNL     1       2.647   5.962  20.473  0.00  0.00    +0.000 A 
ATOM      8  N   UNL     1       3.562   5.188  19.884  0.00  0.00    +0.000 NA
ATOM      9  N   UNL     1       3.864   5.829  18.704  0.00  0.00    +0.000 N 
ATOM     10  C   UNL     1       1.385   8.151  19.841  0.00  0.00    +0.000 A 
ATOM     11  O   UNL     1       0.719   8.308  20.859  0.00  0.00    +0.000 OA
BRANCH   9  12
ATOM     12  C   UNL     1       4.841   5.276  17.821  0.00  0.00    +0.000 A 
ATOM     13  C   UNL     1       6.208   5.457  18.101  0.00  0.00    +0.000 A 
ATOM     14  C   UNL     1       7.180   4.936  17.242  0.00  0.00    +0.000 A 
ATOM     15  C   UNL     1       6.802   4.238  16.100  0.00  0.00    +0.000 A 
ATOM     16  C   UNL     1       5.451   4.050  15.817  0.00  0.00    +0.000 A 
ATOM     17  C   UNL     1       4.475   4.561  16.677  0.00  0.00    +0.000 A 
ENDBRANCH   9  12
ENDBRANCH   1   2
BRANCH   1  22
ATOM     18  N   UNL     1      -0.068  14.360  21.702  0.00  0.00    +0.000 N 
ATOM     19  C   UNL     1       1.131  14.522  20.859  0.00  0.00    +0.000 C 
ATOM     20  C   UNL     1       1.932  13.212  20.828  0.00  0.00    +0.000 C 
ATOM     21  N   UNL     1       1.085  12.082  20.414  0.00  0.00    +0.000 N 
ATOM     22  C   UNL     1       1.329  11.462  19.205  0.00  0.00    +0.000 C 
ATOM     23  O   UNL     1       2.169  11.900  18.412  0.00  0.00    +0.000 OA
ATOM     24  C   UNL     1      -0.112  11.911  21.251  0.00  0.00    +0.000 C 
ATOM     25  C   UNL     1      -0.937  13.220  21.347  0.00  0.00    +0.000 C 
BRANCH  18  29
ATOM     26  C   UNL     1      -0.704  16.593  25.236  0.00  0.00    +0.000 A 
ATOM     27  C   UNL     1      -1.349  15.376  25.036  0.00  0.00    +0.000 A 
ATOM     28  C   UNL     1      -1.123  14.635  23.869  0.00  0.00    +0.000 A 
ATOM     29  C   UNL     1      -0.268  15.091  22.856  0.00  0.00    +0.000 A 
ATOM     30  C   UNL     1       0.345  16.335  23.070  0.00  0.00    +0.000 A 
ATOM     31  C   UNL     1       0.136  17.080  24.242  0.00  0.00    +0.000 A 
BRANCH  26  33
ATOM     32  C   UNL     1      -0.230  16.813  27.537  0.00  0.00    +0.000 C 
ATOM     33  O   UNL     1      -0.993  17.230  26.410  0.00  0.00    +0.000 OA
ENDBRANCH  26  33
ENDBRANCH  18  29
ENDBRANCH   1  22
TORSDOF 5
ENDMDL
MODEL 8
REMARK VINA RESULT:      -6.9      5.592      7.662
REMARK  Name = 
REMARK  6 active torsions:
REMARK  status: ('A' for Active; 'I' for Inactive)
REMARK    1  A    between atoms: C_1  and  O_2
REMARK    2  A    between atoms: O_2  and  C_3
REMARK    3  A    between atoms: C_6  and  N_7
REMARK    4  A    between atoms: C_11  and  C_13
REMARK    5  A    between atoms: C_13  and  N_14
REMARK    6  A    between atoms: N_21  and  C_22
REMARK                            x       y       z     vdW  Elec       q    Type
REMARK                         _______ _______ _______ _____ _____    ______ ____
ROOT
ATOM      1  C   UNL     1       1.518  16.612  20.652  0.00  0.00    +0.000 C 
ENDROOT
BRANCH   1   2
ATOM      2  N   UNL     1       0.712  15.420  20.427  0.00  0.00    +0.000 N 
ATOM      3  C   UNL     1       0.221  15.157  19.153  0.00  0.00    +0.000 A 
ATOM      4  N   UNL     1      -0.414  14.084  18.788  0.00  0.00    +0.000 NA
ATOM      5  C   UNL     1      -0.549  13.158  19.771  0.00  0.00    +0.000 A 
ATOM      6  C   UNL     1      -0.037  13.261  21.039  0.00  0.00    +0.000 A 
ATOM      7  C   UNL     1      -0.371  12.074  21.687  0.00  0.00    +0.000 A 
ATOM      8  N   UNL     1      -1.107  11.270  20.917  0.00  0.00    +0.000 NA
ATOM      9  N   UNL     1      -1.217  11.931  19.715  0.00  0.00    +0.000 N 
ATOM     10  C   UNL     1       0.690  14.437  21.419  0.00  0.00    +0.000 A 
ATOM     11  O   UNL     1       1.249  14.538  22.508  0.00  0.00    +0.000 OA
BRANCH   9  12
ATOM     12  C   UNL     1      -1.936  11.334  18.635  0.00  0.00    +0.000 A 
ATOM     13  C   UNL     1      -3.279  11.688  18.417  0.00  0.00    +0.000 A 
ATOM     14  C   UNL     1      -4.005  11.106  17.374  0.00  0.00    +0.000 A 
ATOM     15  C   UNL     1      -3.404  10.164  16.545  0.00  0.00    +0.000 A 
ATOM     16  C   UNL     1      -2.072   9.809  16.750  0.00  0.00    +0.000 A 
ATOM     17  C   UNL     1      -1.339  10.396  17.785  0.00  0.00    +0.000 A 
ENDBRANCH   9  12
ENDBRANCH   1   2
BRANCH   1  22
ATOM     18  N   UNL     1       6.409  15.788  19.505  0.00  0.00    +0.000 N 
ATOM     19  C   UNL     1       5.842  16.763  18.554  0.00  0.00    +0.000 C 
ATOM     20  C   UNL     1       4.437  16.319  18.121  0.00  0.00    +0.000 C 
ATOM     21  N   UNL     1       3.572  16.084  19.289  0.00  0.00    +0.000 N 
ATOM     22  C   UNL     1       2.496  16.918  19.513  0.00  0.00    +0.000 C 
ATOM     23  O   UNL     1       2.304  17.924  18.821  0.00  0.00    +0.000 OA
ATOM     24  C   UNL     1       4.128  15.110  20.241  0.00  0.00    +0.000 C 
ATOM     25  C   UNL     1       5.566  15.493  20.680  0.00  0.00    +0.000 C 
BRANCH  18  29
ATOM     26  C   UNL     1       9.908  13.568  18.662  0.00  0.00    +0.000 A 
ATOM     27  C   UNL     1       9.882  14.489  19.705  0.00  0.00    +0.000 A 
ATOM     28  C   UNL     1       8.715  15.212  19.987  0.00  0.00    +0.000 A 
ATOM     29  C   UNL     1       7.547  15.057  19.228  0.00  0.00    +0.000 A 
ATOM     30  C   UNL     1       7.610  14.144  18.164  0.00  0.00    +0.000 A 
ATOM     31  C   UNL     1       8.770  13.406  17.880  0.00  0.00    +0.000 A 
BRANCH  26  33
ATOM     32  C   UNL     1      11.070  11.516  18.727  0.00  0.00    +0.000 C 
ATOM     33  O   UNL     1      11.095  12.917  18.477  0.00  0.00    +0.000 OA
ENDBRANCH  26  33
ENDBRANCH  18  29
ENDBRANCH   1  22
TORSDOF 5
ENDMDL
MODEL 9
REMARK VINA RESULT:      -6.8      3.599      5.032
REMARK  Name = 
REMARK  6 active torsions:
REMARK  status: ('A' for Active; 'I' for Inactive)
REMARK    1  A    between atoms: C_1  and  O_2
REMARK    2  A    between atoms: O_2  and  C_3
REMARK    3  A    between atoms: C_6  and  N_7
REMARK    4  A    between atoms: C_11  and  C_13
REMARK    5  A    between atoms: C_13  and  N_14
REMARK    6  A    between atoms: N_21  and  C_22
REMARK                            x       y       z     vdW  Elec       q    Type
REMARK                         _______ _______ _______ _____ _____    ______ ____
ROOT
ATOM      1  C   UNL     1      -1.146  10.227  19.577  0.00  0.00    +0.000 C 
ENDROOT
BRANCH   1   2
ATOM      2  N   UNL     1      -0.824  11.647  19.552  0.00  0.00    +0.000 N 
ATOM      3  C   UNL     1      -0.428  12.237  18.357  0.00  0.00    +0.000 A 
ATOM      4  N   UNL     1      -0.218  13.505  18.167  0.00  0.00    +0.000 NA
ATOM      5  C   UNL     1      -0.454  14.277  19.259  0.00  0.00    +0.000 A 
ATOM      6  C   UNL     1      -0.928  13.827  20.466  0.00  0.00    +0.000 A 
ATOM      7  C   UNL     1      -1.066  14.955  21.271  0.00  0.00    +0.000 A 
ATOM      8  N   UNL     1      -0.652  16.065  20.655  0.00  0.00    +0.000 NA
ATOM      9  N   UNL     1      -0.278  15.657  19.396  0.00  0.00    +0.000 N 
ATOM     10  C   UNL     1      -1.187  12.429  20.652  0.00  0.00    +0.000 A 
ATOM     11  O   UNL     1      -1.699  11.988  21.677  0.00  0.00    +0.000 OA
BRANCH   9  12
ATOM     12  C   UNL     1       0.203  16.612  18.449  0.00  0.00    +0.000 A 
ATOM     13  C   UNL     1       1.583  16.702  18.197  0.00  0.00    +0.000 A 
ATOM     14  C   UNL     1       2.076  17.639  17.284  0.00  0.00    +0.000 A 
ATOM     15  C   UNL     1       1.202  18.494  16.620  0.00  0.00    +0.000 A 
ATOM     16  C   UNL     1      -0.168  18.409  16.860  0.00  0.00    +0.000 A 
ATOM     17  C   UNL     1      -0.666  17.468  17.764  0.00  0.00    +0.000 A 
ENDBRANCH   9  12
ENDBRANCH   1   2
BRANCH   1  22
ATOM     18  N   UNL     1       2.539   6.795  18.826  0.00  0.00    +0.000 N 
ATOM     19  C   UNL     1       2.194   6.835  20.260  0.00  0.00    +0.000 C 
ATOM     20  C   UNL     1       2.011   8.290  20.716  0.00  0.00    +0.000 C 
ATOM     21  N   UNL     1       1.033   8.992  19.869  0.00  0.00    +0.000 N 
ATOM     22  C   UNL     1      -0.172   9.388  20.412  0.00  0.00    +0.000 C 
ATOM     23  O   UNL     1      -0.497   9.072  21.561  0.00  0.00    +0.000 OA
ATOM     24  C   UNL     1       1.371   8.960  18.437  0.00  0.00    +0.000 C 
ATOM     25  C   UNL     1       1.606   7.512  17.935  0.00  0.00    +0.000 C 
BRANCH  18  29
ATOM     26  C   UNL     1       6.212   5.264  17.398  0.00  0.00    +0.000 A 
ATOM     27  C   UNL     1       5.320   5.894  16.536  0.00  0.00    +0.000 A 
ATOM     28  C   UNL     1       4.110   6.411  17.018  0.00  0.00    +0.000 A 
ATOM     29  C   UNL     1       3.741   6.297  18.367  0.00  0.00    +0.000 A 
ATOM     30  C   UNL     1       4.647   5.632  19.207  0.00  0.00    +0.000 A 
ATOM     31  C   UNL     1       5.867   5.121  18.736  0.00  0.00    +0.000 A 
BRANCH  26  33
ATOM     32  C   UNL     1       7.455   4.977  15.413  0.00  0.00    +0.000 C 
ATOM     33  O   UNL     1       7.362   4.802  16.822  0.00  0.00    +0.000 OA
ENDBRANCH  26  33
ENDBRANCH  18  29
ENDBRANCH   1  22
TORSDOF 5
ENDMDL
