MODEL 1
REMARK VINA RESULT:      -8.1      0.000      0.000
REMARK  Name = 
REMARK  9 active torsions:
REMARK  status: ('A' for Active; 'I' for Inactive)
REMARK    1  A    between atoms: C_1  and  C_2
REMARK    2  A    between atoms: C_2  and  C_3
REMARK    3  A    between atoms: N_8  and  S_9
REMARK    4  A    between atoms: S_9  and  C_12
REMARK    5  A    between atoms: C_15  and  S_16
REMARK    6  A    between atoms: S_16  and  N_19
REMARK    7  A    between atoms: N_22  and  S_23
REMARK    8  A    between atoms: S_23  and  C_26
REMARK    9  A    between atoms: C_26  and  C_27
REMARK                            x       y       z     vdW  Elec       q    Type
REMARK                         _______ _______ _______ _____ _____    ______ ____
ROOT
ATOM      1  C   UNL     1       1.348   8.189  20.408  0.00  0.00    +0.000 A 
ATOM      2  C   UNL     1       1.826   8.122  19.094  0.00  0.00    +0.000 A 
ATOM      3  C   UNL     1       2.117   6.871  18.524  0.00  0.00    +0.000 A 
ATOM      4  C   UNL     1       1.974   5.700  19.287  0.00  0.00    +0.000 A 
ATOM      5  C   UNL     1       1.491   5.784  20.600  0.00  0.00    +0.000 A 
ATOM      6  C   UNL     1       1.191   7.027  21.167  0.00  0.00    +0.000 A 
ENDROOT
BRANCH   1   7
ATOM      7  S   UNL     1       0.957   9.758  21.170  0.00  0.00    +0.000 S 
ATOM      8  O   UNL     1       2.068  10.106  22.031  0.00  0.00    +0.000 OA
ATOM      9  O   UNL     1      -0.384   9.603  21.693  0.00  0.00    +0.000 OA
BRANCH   7  15
ATOM     10  C   UNL     1      -0.491  11.308  19.447  0.00  0.00    +0.000 C 
ATOM     11  C   UNL     1      -0.494  12.389  18.347  0.00  0.00    +0.000 C 
ATOM     12  C   UNL     1       0.286  13.625  18.746  0.00  0.00    +0.000 C 
ATOM     13  C   UNL     1       1.703  13.216  19.095  0.00  0.00    +0.000 C 
ATOM     14  C   UNL     1       1.725  12.178  20.215  0.00  0.00    +0.000 C 
ATOM     15  N   UNL     1       0.940  10.940  19.865  0.00  0.00    +0.000 NA
BRANCH  10  17
ATOM     16  C   UNL     1      -1.435  10.025  17.423  0.00  0.00    +0.000 C 
ATOM     17  C   UNL     1      -1.312  10.106  18.940  0.00  0.00    +0.000 C 
ENDBRANCH  10  17
ENDBRANCH   7  15
ENDBRANCH   1   7
BRANCH   4  18
ATOM     18  S   UNL     1       2.099   4.082  18.515  0.00  0.00    +0.000 S 
ATOM     19  O   UNL     1       1.680   3.126  19.519  0.00  0.00    +0.000 OA
ATOM     20  O   UNL     1       1.381   4.200  17.254  0.00  0.00    +0.000 OA
BRANCH  18  21
ATOM     21  N   UNL     1       3.708   3.769  18.163  0.00  0.00    +0.000 NA
ATOM     22  C   UNL     1       4.262   4.056  16.830  0.00  0.00    +0.000 C 
ATOM     23  C   UNL     1       4.816   5.478  16.775  0.00  0.00    +0.000 C 
ATOM     24  N   UNL     1       5.748   5.819  17.904  0.00  0.00    +0.000 NA
ATOM     25  C   UNL     1       5.369   5.257  19.251  0.00  0.00    +0.000 C 
ATOM     26  C   UNL     1       4.764   3.853  19.193  0.00  0.00    +0.000 C 
BRANCH  24  27
ATOM     27  S   UNL     1       7.403   5.754  17.540  0.00  0.00    +0.000 S 
ATOM     28  O   UNL     1       7.943   4.546  18.131  0.00  0.00    +0.000 OA
ATOM     29  O   UNL     1       7.518   6.009  16.122  0.00  0.00    +0.000 OA
BRANCH  27  30
ATOM     30  C   UNL     1       8.054   7.157  18.457  0.00  0.00    +0.000 C 
ATOM     31  C   UNL     1       7.824   8.441  17.685  0.00  0.00    +0.000 C 
ENDBRANCH  27  30
ENDBRANCH  24  27
ENDBRANCH  18  21
ENDBRANCH   4  18
TORSDOF 7
ENDMDL
MODEL 2
REMARK VINA RESULT:      -8.1      1.207      2.023
REMARK  Name = 
REMARK  9 active torsions:
REMARK  status: ('A' for Active; 'I' for Inactive)
REMARK    1  A    between atoms: C_1  and  C_2
REMARK    2  A    between atoms: C_2  and  C_3
REMARK    3  A    between atoms: N_8  and  S_9
REMARK    4  A    between atoms: S_9  and  C_12
REMARK    5  A    between atoms: C_15  and  S_16
REMARK    6  A    between atoms: S_16  and  N_19
REMARK    7  A    between atoms: N_22  and  S_23
REMARK    8  A    between atoms: S_23  and  C_26
REMARK    9  A    between atoms: C_26  and  C_27
REMARK                            x       y       z     vdW  Elec       q    Type
REMARK                         _______ _______ _______ _____ _____    ______ ____
ROOT
ATOM      1  C   UNL     1       1.376   8.583  19.862  0.00  0.00    +0.000 A 
ATOM      2  C   UNL     1       1.845   8.283  18.577  0.00  0.00    +0.000 A 
ATOM      3  C   UNL     1       2.125   6.950  18.233  0.00  0.00    +0.000 A 
ATOM      4  C   UNL     1       1.979   5.932  19.190  0.00  0.00    +0.000 A 
ATOM      5  C   UNL     1       1.506   6.247  20.471  0.00  0.00    +0.000 A 
ATOM      6  C   UNL     1       1.217   7.572  20.814  0.00  0.00    +0.000 A 
ENDROOT
BRANCH   1   7
ATOM      7  S   UNL     1       1.000  10.263  20.340  0.00  0.00    +0.000 S 
ATOM      8  O   UNL     1       1.764  11.137  19.474  0.00  0.00    +0.000 OA
ATOM      9  O   UNL     1       1.162  10.295  21.778  0.00  0.00    +0.000 OA
BRANCH   7  15
ATOM     10  C   UNL     1      -1.153  11.944  20.257  0.00  0.00    +0.000 C 
ATOM     11  C   UNL     1      -2.622  12.169  19.846  0.00  0.00    +0.000 C 
ATOM     12  C   UNL     1      -2.876  11.832  18.390  0.00  0.00    +0.000 C 
ATOM     13  C   UNL     1      -2.461  10.395  18.143  0.00  0.00    +0.000 C 
ATOM     14  C   UNL     1      -0.994  10.167  18.504  0.00  0.00    +0.000 C 
ATOM     15  N   UNL     1      -0.696  10.513  19.940  0.00  0.00    +0.000 NA
BRANCH  10  17
ATOM     16  C   UNL     1      -0.290  13.642  21.991  0.00  0.00    +0.000 C 
ATOM     17  C   UNL     1      -1.009  12.320  21.745  0.00  0.00    +0.000 C 
ENDBRANCH  10  17
ENDBRANCH   7  15
ENDBRANCH   1   7
BRANCH   4  18
ATOM     18  S   UNL     1       2.090   4.203  18.712  0.00  0.00    +0.000 S 
ATOM     19  O   UNL     1       1.714   3.438  19.884  0.00  0.00    +0.000 OA
ATOM     20  O   UNL     1       1.326   4.094  17.478  0.00  0.00    +0.000 OA
BRANCH  18  21
ATOM     21  N   UNL     1       3.687   3.833  18.362  0.00  0.00    +0.000 NA
ATOM     22  C   UNL     1       4.216   3.973  16.996  0.00  0.00    +0.000 C 
ATOM     23  C   UNL     1       4.784   5.374  16.782  0.00  0.00    +0.000 C 
ATOM     24  N   UNL     1       5.743   5.819  17.850  0.00  0.00    +0.000 NA
ATOM     25  C   UNL     1       5.386   5.406  19.256  0.00  0.00    +0.000 C 
ATOM     26  C   UNL     1       4.766   4.012  19.357  0.00  0.00    +0.000 C 
BRANCH  24  27
ATOM     27  S   UNL     1       7.389   5.695  17.462  0.00  0.00    +0.000 S 
ATOM     28  O   UNL     1       7.886   4.452  18.017  0.00  0.00    +0.000 OA
ATOM     29  O   UNL     1       7.497   5.981  16.049  0.00  0.00    +0.000 OA
BRANCH  27  30
ATOM     30  C   UNL     1       8.109   7.048  18.403  0.00  0.00    +0.000 C 
ATOM     31  C   UNL     1       7.863   8.367  17.698  0.00  0.00    +0.000 C 
ENDBRANCH  27  30
ENDBRANCH  24  27
ENDBRANCH  18  21
ENDBRANCH   4  18
TORSDOF 7
ENDMDL
MODEL 3
REMARK VINA RESULT:      -7.9      1.622      2.569
REMARK  Name = 
REMARK  9 active torsions:
REMARK  status: ('A' for Active; 'I' for Inactive)
REMARK    1  A    between atoms: C_1  and  C_2
REMARK    2  A    between atoms: C_2  and  C_3
REMARK    3  A    between atoms: N_8  and  S_9
REMARK    4  A    between atoms: S_9  and  C_12
REMARK    5  A    between atoms: C_15  and  S_16
REMARK    6  A    between atoms: S_16  and  N_19
REMARK    7  A    between atoms: N_22  and  S_23
REMARK    8  A    between atoms: S_23  and  C_26
REMARK    9  A    between atoms: C_26  and  C_27
REMARK                            x       y       z     vdW  Elec       q    Type
REMARK                         _______ _______ _______ _____ _____    ______ ____
ROOT
ATOM      1  C   UNL     1       1.489   8.682  19.607  0.00  0.00    +0.000 A 
ATOM      2  C   UNL     1       1.937   8.100  18.414  0.00  0.00    +0.000 A 
ATOM      3  C   UNL     1       2.252   6.731  18.384  0.00  0.00    +0.000 A 
ATOM      4  C   UNL     1       2.163   5.964  19.557  0.00  0.00    +0.000 A 
ATOM      5  C   UNL     1       1.710   6.560  20.743  0.00  0.00    +0.000 A 
ATOM      6  C   UNL     1       1.386   7.920  20.773  0.00  0.00    +0.000 A 
ENDROOT
BRANCH   1   7
ATOM      7  S   UNL     1       1.070  10.417  19.688  0.00  0.00    +0.000 S 
ATOM      8  O   UNL     1       1.756  11.076  18.597  0.00  0.00    +0.000 OA
ATOM      9  O   UNL     1       1.299  10.799  21.066  0.00  0.00    +0.000 OA
BRANCH   7  15
ATOM     10  C   UNL     1      -1.182  11.951  19.476  0.00  0.00    +0.000 C 
ATOM     11  C   UNL     1      -2.677  12.037  19.104  0.00  0.00    +0.000 C 
ATOM     12  C   UNL     1      -2.963  11.489  17.721  0.00  0.00    +0.000 C 
ATOM     13  C   UNL     1      -2.473  10.056  17.653  0.00  0.00    +0.000 C 
ATOM     14  C   UNL     1      -0.983   9.960  17.974  0.00  0.00    +0.000 C 
ATOM     15  N   UNL     1      -0.652  10.516  19.335  0.00  0.00    +0.000 NA
BRANCH  10  17
ATOM     16  C   UNL     1      -2.207  12.338  21.806  0.00  0.00    +0.000 C 
ATOM     17  C   UNL     1      -1.005  12.536  20.890  0.00  0.00    +0.000 C 
ENDBRANCH  10  17
ENDBRANCH   7  15
ENDBRANCH   1   7
BRANCH   4  18
ATOM     18  S   UNL     1       2.318   4.174  19.496  0.00  0.00    +0.000 S 
ATOM     19  O   UNL     1       2.132   3.709  20.855  0.00  0.00    +0.000 OA
ATOM     20  O   UNL     1       1.419   3.746  18.434  0.00  0.00    +0.000 OA
BRANCH  18  21
ATOM     21  N   UNL     1       3.881   3.777  19.038  0.00  0.00    +0.000 NA
ATOM     22  C   UNL     1       4.166   3.247  17.695  0.00  0.00    +0.000 C 
ATOM     23  C   UNL     1       4.467   4.385  16.722  0.00  0.00    +0.000 C 
ATOM     24  N   UNL     1       5.497   5.362  17.217  0.00  0.00    +0.000 NA
ATOM     25  C   UNL     1       5.429   5.685  18.689  0.00  0.00    +0.000 C 
ATOM     26  C   UNL     1       5.058   4.493  19.573  0.00  0.00    +0.000 C 
BRANCH  24  27
ATOM     27  S   UNL     1       7.063   5.160  16.599  0.00  0.00    +0.000 S 
ATOM     28  O   UNL     1       7.519   6.446  16.110  0.00  0.00    +0.000 OA
ATOM     29  O   UNL     1       7.807   4.435  17.604  0.00  0.00    +0.000 OA
BRANCH  27  30
ATOM     30  C   UNL     1       6.781   4.095  15.177  0.00  0.00    +0.000 C 
ATOM     31  C   UNL     1       7.011   4.864  13.892  0.00  0.00    +0.000 C 
ENDBRANCH  27  30
ENDBRANCH  24  27
ENDBRANCH  18  21
ENDBRANCH   4  18
TORSDOF 7
ENDMDL
MODEL 4
REMARK VINA RESULT:      -7.5      2.213      8.591
REMARK  Name = 
REMARK  9 active torsions:
REMARK  status: ('A' for Active; 'I' for Inactive)
REMARK    1  A    between atoms: C_1  and  C_2
REMARK    2  A    between atoms: C_2  and  C_3
REMARK    3  A    between atoms: N_8  and  S_9
REMARK    4  A    between atoms: S_9  and  C_12
REMARK    5  A    between atoms: C_15  and  S_16
REMARK    6  A    between atoms: S_16  and  N_19
REMARK    7  A    between atoms: N_22  and  S_23
REMARK    8  A    between atoms: S_23  and  C_26
REMARK    9  A    between atoms: C_26  and  C_27
REMARK                            x       y       z     vdW  Elec       q    Type
REMARK                         _______ _______ _______ _____ _____    ______ ____
ROOT
ATOM      1  C   UNL     1       2.704   5.399  18.980  0.00  0.00    +0.000 A 
ATOM      2  C   UNL     1       2.102   5.164  20.223  0.00  0.00    +0.000 A 
ATOM      3  C   UNL     1       1.551   6.237  20.941  0.00  0.00    +0.000 A 
ATOM      4  C   UNL     1       1.647   7.545  20.437  0.00  0.00    +0.000 A 
ATOM      5  C   UNL     1       2.249   7.763  19.190  0.00  0.00    +0.000 A 
ATOM      6  C   UNL     1       2.790   6.696  18.467  0.00  0.00    +0.000 A 
ENDROOT
BRANCH   1   7
ATOM      7  S   UNL     1       3.410   4.062  18.027  0.00  0.00    +0.000 S 
ATOM      8  O   UNL     1       2.387   3.599  17.113  0.00  0.00    +0.000 OA
ATOM      9  O   UNL     1       4.009   3.175  19.002  0.00  0.00    +0.000 OA
BRANCH   7  15
ATOM     10  C   UNL     1       6.059   4.645  17.696  0.00  0.00    +0.000 C 
ATOM     11  C   UNL     1       7.169   5.227  16.796  0.00  0.00    +0.000 C 
ATOM     12  C   UNL     1       7.166   4.622  15.407  0.00  0.00    +0.000 C 
ATOM     13  C   UNL     1       5.800   4.836  14.785  0.00  0.00    +0.000 C 
ATOM     14  C   UNL     1       4.694   4.226  15.643  0.00  0.00    +0.000 C 
ATOM     15  N   UNL     1       4.677   4.785  17.042  0.00  0.00    +0.000 NA
BRANCH  10  17
ATOM     16  C   UNL     1       7.578   5.671  19.505  0.00  0.00    +0.000 C 
ATOM     17  C   UNL     1       6.158   5.322  19.077  0.00  0.00    +0.000 C 
ENDBRANCH  10  17
ENDBRANCH   7  15
ENDBRANCH   1   7
BRANCH   4  18
ATOM     18  S   UNL     1       0.742   8.893  21.206  0.00  0.00    +0.000 S 
ATOM     19  O   UNL     1      -0.551   8.351  21.572  0.00  0.00    +0.000 OA
ATOM     20  O   UNL     1       1.638   9.429  22.222  0.00  0.00    +0.000 OA
BRANCH  18  21
ATOM     21  N   UNL     1       0.479  10.095  20.068  0.00  0.00    +0.000 NA
ATOM     22  C   UNL     1      -0.883  10.549  19.746  0.00  0.00    +0.000 C 
ATOM     23  C   UNL     1      -1.291  11.707  20.653  0.00  0.00    +0.000 C 
ATOM     24  N   UNL     1      -0.283  12.820  20.721  0.00  0.00    +0.000 NA
ATOM     25  C   UNL     1       1.162  12.387  20.729  0.00  0.00    +0.000 C 
ATOM     26  C   UNL     1       1.455  11.180  19.837  0.00  0.00    +0.000 C 
BRANCH  24  27
ATOM     27  S   UNL     1      -0.619  14.180  19.766  0.00  0.00    +0.000 S 
ATOM     28  O   UNL     1      -0.582  13.769  18.376  0.00  0.00    +0.000 OA
ATOM     29  O   UNL     1      -1.797  14.795  20.334  0.00  0.00    +0.000 OA
BRANCH  27  30
ATOM     30  C   UNL     1       0.811  15.227  20.072  0.00  0.00    +0.000 C 
ATOM     31  C   UNL     1       1.275  15.872  18.781  0.00  0.00    +0.000 C 
ENDBRANCH  27  30
ENDBRANCH  24  27
ENDBRANCH  18  21
ENDBRANCH   4  18
TORSDOF 7
ENDMDL
MODEL 5
REMARK VINA RESULT:      -7.5      2.237      3.276
REMARK  Name = 
REMARK  9 active torsions:
REMARK  status: ('A' for Active; 'I' for Inactive)
REMARK    1  A    between atoms: C_1  and  C_2
REMARK    2  A    between atoms: C_2  and  C_3
REMARK    3  A    between atoms: N_8  and  S_9
REMARK    4  A    between atoms: S_9  and  C_12
REMARK    5  A    between atoms: C_15  and  S_16
REMARK    6  A    between atoms: S_16  and  N_19
REMARK    7  A    between atoms: N_22  and  S_23
REMARK    8  A    between atoms: S_23  and  C_26
REMARK    9  A    between atoms: C_26  and  C_27
REMARK                            x       y       z     vdW  Elec       q    Type
REMARK                         _______ _______ _______ _____ _____    ______ ____
ROOT
ATOM      1  C   UNL     1       0.714   9.832  19.693  0.00  0.00    +0.000 A 
ATOM      2  C   UNL     1       1.342   9.488  18.490  0.00  0.00    +0.000 A 
ATOM      3  C   UNL     1       2.016   8.259  18.385  0.00  0.00    +0.000 A 
ATOM      4  C   UNL     1       2.099   7.405  19.498  0.00  0.00    +0.000 A 
ATOM      5  C   UNL     1       1.463   7.763  20.694  0.00  0.00    +0.000 A 
ATOM      6  C   UNL     1       0.783   8.980  20.799  0.00  0.00    +0.000 A 
ENDROOT
BRANCH   1   7
ATOM      7  S   UNL     1      -0.162  11.379  19.869  0.00  0.00    +0.000 S 
ATOM      8  O   UNL     1       0.372  12.290  18.878  0.00  0.00    +0.000 OA
ATOM      9  O   UNL     1      -0.111  11.687  21.283  0.00  0.00    +0.000 OA
BRANCH   7  15
ATOM     10  C   UNL     1      -2.702  12.309  19.482  0.00  0.00    +0.000 C 
ATOM     11  C   UNL     1      -4.144  12.021  19.015  0.00  0.00    +0.000 C 
ATOM     12  C   UNL     1      -4.194  11.413  17.627  0.00  0.00    +0.000 C 
ATOM     13  C   UNL     1      -3.362  10.145  17.620  0.00  0.00    +0.000 C 
ATOM     14  C   UNL     1      -1.920  10.422  18.038  0.00  0.00    +0.000 C 
ATOM     15  N   UNL     1      -1.828  11.049  19.405  0.00  0.00    +0.000 NA
BRANCH  10  17
ATOM     16  C   UNL     1      -3.217  14.382  20.920  0.00  0.00    +0.000 C 
ATOM     17  C   UNL     1      -2.770  12.925  20.893  0.00  0.00    +0.000 C 
ENDBRANCH  10  17
ENDBRANCH   7  15
ENDBRANCH   1   7
BRANCH   4  18
ATOM     18  S   UNL     1       2.735   5.733  19.324  0.00  0.00    +0.000 S 
ATOM     19  O   UNL     1       2.565   5.104  20.618  0.00  0.00    +0.000 OA
ATOM     20  O   UNL     1       2.080   5.192  18.142  0.00  0.00    +0.000 OA
BRANCH  18  21
ATOM     21  N   UNL     1       4.381   5.805  19.013  0.00  0.00    +0.000 NA
ATOM     22  C   UNL     1       5.187   4.578  18.911  0.00  0.00    +0.000 C 
ATOM     23  C   UNL     1       5.218   4.074  17.470  0.00  0.00    +0.000 C 
ATOM     24  N   UNL     1       5.586   5.123  16.459  0.00  0.00    +0.000 NA
ATOM     25  C   UNL     1       5.023   6.499  16.718  0.00  0.00    +0.000 C 
ATOM     26  C   UNL     1       4.976   6.884  18.198  0.00  0.00    +0.000 C 
BRANCH  24  27
ATOM     27  S   UNL     1       7.193   5.096  15.918  0.00  0.00    +0.000 S 
ATOM     28  O   UNL     1       7.733   6.434  16.056  0.00  0.00    +0.000 OA
ATOM     29  O   UNL     1       7.820   3.965  16.562  0.00  0.00    +0.000 OA
BRANCH  27  30
ATOM     30  C   UNL     1       7.001   4.756  14.162  0.00  0.00    +0.000 C 
ATOM     31  C   UNL     1       5.700   4.019  13.909  0.00  0.00    +0.000 C 
ENDBRANCH  27  30
ENDBRANCH  24  27
ENDBRANCH  18  21
ENDBRANCH   4  18
TORSDOF 7
ENDMDL
MODEL 6
REMARK VINA RESULT:      -7.4      2.354      3.380
REMARK  Name = 
REMARK  9 active torsions:
REMARK  status: ('A' for Active; 'I' for Inactive)
REMARK    1  A    between atoms: C_1  and  C_2
REMARK    2  A    between atoms: C_2  and  C_3
REMARK    3  A    between atoms: N_8  and  S_9
REMARK    4  A    between atoms: S_9  and  C_12
REMARK    5  A    between atoms: C_15  and  S_16
REMARK    6  A    between atoms: S_16  and  N_19
REMARK    7  A    between atoms: N_22  and  S_23
REMARK    8  A    between atoms: S_23  and  C_26
REMARK    9  A    between atoms: C_26  and  C_27
REMARK                            x       y       z     vdW  Elec       q    Type
REMARK                         _______ _______ _______ _____ _____    ______ ____
ROOT
ATOM      1  C   UNL     1       1.010  10.080  19.686  0.00  0.00    +0.000 A 
ATOM      2  C   UNL     1       1.019   9.254  20.817  0.00  0.00    +0.000 A 
ATOM      3  C   UNL     1       1.452   7.923  20.702  0.00  0.00    +0.000 A 
ATOM      4  C   UNL     1       1.828   7.412  19.448  0.00  0.00    +0.000 A 
ATOM      5  C   UNL     1       1.816   8.252  18.326  0.00  0.00    +0.000 A 
ATOM      6  C   UNL     1       1.395   9.580  18.439  0.00  0.00    +0.000 A 
ENDROOT
BRANCH   1   7
ATOM      7  S   UNL     1       0.474  11.782  19.789  0.00  0.00    +0.000 S 
ATOM      8  O   UNL     1       0.613  12.356  18.467  0.00  0.00    +0.000 OA
ATOM      9  O   UNL     1       1.175  12.333  20.930  0.00  0.00    +0.000 OA
BRANCH   7  15
ATOM     10  C   UNL     1      -1.620  12.613  21.335  0.00  0.00    +0.000 C 
ATOM     11  C   UNL     1      -3.141  12.606  21.592  0.00  0.00    +0.000 C 
ATOM     12  C   UNL     1      -3.939  12.999  20.364  0.00  0.00    +0.000 C 
ATOM     13  C   UNL     1      -3.579  12.061  19.228  0.00  0.00    +0.000 C 
ATOM     14  C   UNL     1      -2.081  12.091  18.933  0.00  0.00    +0.000 C 
ATOM     15  N   UNL     1      -1.251  11.727  20.137  0.00  0.00    +0.000 NA
BRANCH  10  17
ATOM     16  C   UNL     1      -1.411  10.899  23.245  0.00  0.00    +0.000 C 
ATOM     17  C   UNL     1      -0.912  12.206  22.642  0.00  0.00    +0.000 C 
ENDBRANCH  10  17
ENDBRANCH   7  15
ENDBRANCH   1   7
BRANCH   4  18
ATOM     18  S   UNL     1       2.615   5.802  19.313  0.00  0.00    +0.000 S 
ATOM     19  O   UNL     1       2.485   5.182  20.616  0.00  0.00    +0.000 OA
ATOM     20  O   UNL     1       2.028   5.184  18.133  0.00  0.00    +0.000 OA
BRANCH  18  21
ATOM     21  N   UNL     1       4.252   6.017  19.020  0.00  0.00    +0.000 NA
ATOM     22  C   UNL     1       5.198   4.897  19.143  0.00  0.00    +0.000 C 
ATOM     23  C   UNL     1       5.340   4.166  17.810  0.00  0.00    +0.000 C 
ATOM     24  N   UNL     1       5.620   5.069  16.640  0.00  0.00    +0.000 NA
ATOM     25  C   UNL     1       4.892   6.390  16.652  0.00  0.00    +0.000 C 
ATOM     26  C   UNL     1       4.747   7.009  18.043  0.00  0.00    +0.000 C 
BRANCH  24  27
ATOM     27  S   UNL     1       7.237   5.145  16.138  0.00  0.00    +0.000 S 
ATOM     28  O   UNL     1       7.658   6.531  16.195  0.00  0.00    +0.000 OA
ATOM     29  O   UNL     1       7.940   4.118  16.872  0.00  0.00    +0.000 OA
BRANCH  27  30
ATOM     30  C   UNL     1       7.124   4.672  14.406  0.00  0.00    +0.000 C 
ATOM     31  C   UNL     1       5.867   3.859  14.165  0.00  0.00    +0.000 C 
ENDBRANCH  27  30
ENDBRANCH  24  27
ENDBRANCH  18  21
ENDBRANCH   4  18
TORSDOF 7
ENDMDL
MODEL 7
REMARK VINA RESULT:      -7.3      1.888      2.841
REMARK  Name = 
REMARK  9 active torsions:
REMARK  status: ('A' for Active; 'I' for Inactive)
REMARK    1  A    between atoms: C_1  and  C_2
REMARK    2  A    between atoms: C_2  and  C_3
REMARK    3  A    between atoms: N_8  and  S_9
REMARK    4  A    between atoms: S_9  and  C_12
REMARK    5  A    between atoms: C_15  and  S_16
REMARK    6  A    between atoms: S_16  and  N_19
REMARK    7  A    between atoms: N_22  and  S_23
REMARK    8  A    between atoms: S_23  and  C_26
REMARK    9  A    between atoms: C_26  and  C_27
REMARK                            x       y       z     vdW  Elec       q    Type
REMARK                         _______ _______ _______ _____ _____    ______ ____
ROOT
ATOM      1  C   UNL     1       1.519   8.698  19.138  0.00  0.00    +0.000 A 
ATOM      2  C   UNL     1       1.865   7.921  18.025  0.00  0.00    +0.000 A 
ATOM      3  C   UNL     1       2.216   6.572  18.203  0.00  0.00    +0.000 A 
ATOM      4  C   UNL     1       2.264   6.022  19.495  0.00  0.00    +0.000 A 
ATOM      5  C   UNL     1       1.911   6.813  20.598  0.00  0.00    +0.000 A 
ATOM      6  C   UNL     1       1.553   8.153  20.424  0.00  0.00    +0.000 A 
ENDROOT
BRANCH   1   7
ATOM      7  S   UNL     1       1.058  10.415  18.957  0.00  0.00    +0.000 S 
ATOM      8  O   UNL     1      -0.176  10.452  18.200  0.00  0.00    +0.000 OA
ATOM      9  O   UNL     1       2.254  11.083  18.487  0.00  0.00    +0.000 OA
BRANCH   7  15
ATOM     10  C   UNL     1       0.088  12.406  20.559  0.00  0.00    +0.000 C 
ATOM     11  C   UNL     1      -0.302  12.872  21.977  0.00  0.00    +0.000 C 
ATOM     12  C   UNL     1      -1.249  11.908  22.664  0.00  0.00    +0.000 C 
ATOM     13  C   UNL     1      -0.602  10.537  22.706  0.00  0.00    +0.000 C 
ATOM     14  C   UNL     1      -0.250  10.043  21.304  0.00  0.00    +0.000 C 
ATOM     15  N   UNL     1       0.673  10.987  20.578  0.00  0.00    +0.000 NA
BRANCH  10  17
ATOM     16  C   UNL     1       0.399  14.361  18.911  0.00  0.00    +0.000 C 
ATOM     17  C   UNL     1       1.042  13.456  19.955  0.00  0.00    +0.000 C 
ENDBRANCH  10  17
ENDBRANCH   7  15
ENDBRANCH   1   7
BRANCH   4  18
ATOM     18  S   UNL     1       2.466   4.252  19.731  0.00  0.00    +0.000 S 
ATOM     19  O   UNL     1       2.432   4.032  21.162  0.00  0.00    +0.000 OA
ATOM     20  O   UNL     1       1.478   3.632  18.859  0.00  0.00    +0.000 OA
BRANCH  18  21
ATOM     21  N   UNL     1       3.986   3.799  19.189  0.00  0.00    +0.000 NA
ATOM     22  C   UNL     1       4.171   3.214  17.851  0.00  0.00    +0.000 C 
ATOM     23  C   UNL     1       4.435   4.308  16.819  0.00  0.00    +0.000 C 
ATOM     24  N   UNL     1       5.518   5.275  17.211  0.00  0.00    +0.000 NA
ATOM     25  C   UNL     1       5.553   5.652  18.671  0.00  0.00    +0.000 C 
ATOM     26  C   UNL     1       5.212   4.503  19.621  0.00  0.00    +0.000 C 
BRANCH  24  27
ATOM     27  S   UNL     1       7.035   5.011  16.502  0.00  0.00    +0.000 S 
ATOM     28  O   UNL     1       7.482   6.263  15.924  0.00  0.00    +0.000 OA
ATOM     29  O   UNL     1       7.830   4.316  17.489  0.00  0.00    +0.000 OA
BRANCH  27  30
ATOM     30  C   UNL     1       6.639   3.889  15.153  0.00  0.00    +0.000 C 
ATOM     31  C   UNL     1       6.681   4.625  13.829  0.00  0.00    +0.000 C 
ENDBRANCH  27  30
ENDBRANCH  24  27
ENDBRANCH  18  21
ENDBRANCH   4  18
TORSDOF 7
ENDMDL
MODEL 8
REMARK VINA RESULT:      -7.2      1.234      2.200
REMARK  Name = 
REMARK  9 active torsions:
REMARK  status: ('A' for Active; 'I' for Inactive)
REMARK    1  A    between atoms: C_1  and  C_2
REMARK    2  A    between atoms: C_2  and  C_3
REMARK    3  A    between atoms: N_8  and  S_9
REMARK    4  A    between atoms: S_9  and  C_12
REMARK    5  A    between atoms: C_15  and  S_16
REMARK    6  A    between atoms: S_16  and  N_19
REMARK    7  A    between atoms: N_22  and  S_23
REMARK    8  A    between atoms: S_23  and  C_26
REMARK    9  A    between atoms: C_26  and  C_27
REMARK                            x       y       z     vdW  Elec       q    Type
REMARK                         _______ _______ _______ _____ _____    ______ ____
ROOT
ATOM      1  C   UNL     1       1.650   7.969  19.406  0.00  0.00    +0.000 A 
ATOM      2  C   UNL     1       1.536   7.143  20.531  0.00  0.00    +0.000 A 
ATOM      3  C   UNL     1       1.694   5.754  20.392  0.00  0.00    +0.000 A 
ATOM      4  C   UNL     1       1.916   5.196  19.122  0.00  0.00    +0.000 A 
ATOM      5  C   UNL     1       2.031   6.037  18.006  0.00  0.00    +0.000 A 
ATOM      6  C   UNL     1       1.884   7.420  18.143  0.00  0.00    +0.000 A 
ENDROOT
BRANCH   1   7
ATOM      7  S   UNL     1       1.464   9.742  19.538  0.00  0.00    +0.000 S 
ATOM      8  O   UNL     1       2.195  10.333  18.437  0.00  0.00    +0.000 OA
ATOM      9  O   UNL     1       1.787  10.056  20.914  0.00  0.00    +0.000 OA
BRANCH   7  15
ATOM     10  C   UNL     1      -0.607  11.523  19.599  0.00  0.00    +0.000 C 
ATOM     11  C   UNL     1      -2.088  11.820  19.284  0.00  0.00    +0.000 C 
ATOM     12  C   UNL     1      -2.450  11.504  17.847  0.00  0.00    +0.000 C 
ATOM     13  C   UNL     1      -2.121  10.050  17.570  0.00  0.00    +0.000 C 
ATOM     14  C   UNL     1      -0.647   9.751  17.835  0.00  0.00    +0.000 C 
ATOM     15  N   UNL     1      -0.240  10.074  19.250  0.00  0.00    +0.000 NA
BRANCH  10  17
ATOM     16  C   UNL     1      -1.591  11.841  21.958  0.00  0.00    +0.000 C 
ATOM     17  C   UNL     1      -0.349  11.884  21.076  0.00  0.00    +0.000 C 
ENDBRANCH  10  17
ENDBRANCH   7  15
ENDBRANCH   1   7
BRANCH   4  18
ATOM     18  S   UNL     1       2.366   3.464  18.948  0.00  0.00    +0.000 S 
ATOM     19  O   UNL     1       2.135   2.859  20.244  0.00  0.00    +0.000 OA
ATOM     20  O   UNL     1       1.648   2.996  17.771  0.00  0.00    +0.000 OA
BRANCH  18  21
ATOM     21  N   UNL     1       4.007   3.356  18.627  0.00  0.00    +0.000 NA
ATOM     22  C   UNL     1       4.506   3.282  17.245  0.00  0.00    +0.000 C 
ATOM     23  C   UNL     1       4.775   4.682  16.696  0.00  0.00    +0.000 C 
ATOM     24  N   UNL     1       5.614   5.545  17.597  0.00  0.00    +0.000 NA
ATOM     25  C   UNL     1       5.339   5.401  19.073  0.00  0.00    +0.000 C 
ATOM     26  C   UNL     1       5.019   3.971  19.511  0.00  0.00    +0.000 C 
BRANCH  24  27
ATOM     27  S   UNL     1       7.253   5.670  17.181  0.00  0.00    +0.000 S 
ATOM     28  O   UNL     1       7.897   4.417  17.520  0.00  0.00    +0.000 OA
ATOM     29  O   UNL     1       7.292   6.192  15.834  0.00  0.00    +0.000 OA
BRANCH  27  30
ATOM     30  C   UNL     1       7.845   6.924  18.327  0.00  0.00    +0.000 C 
ATOM     31  C   UNL     1       7.822   8.289  17.670  0.00  0.00    +0.000 C 
ENDBRANCH  27  30
ENDBRANCH  24  27
ENDBRANCH  18  21
ENDBRANCH   4  18
TORSDOF 7
ENDMDL
MODEL 9
REMARK VINA RESULT:      -7.2      2.325      8.718
REMARK  Name = 
REMARK  9 active torsions:
REMARK  status: ('A' for Active; 'I' for Inactive)
REMARK    1  A    between atoms: C_1  and  C_2
REMARK    2  A    between atoms: C_2  and  C_3
REMARK    3  A    between atoms: N_8  and  S_9
REMARK    4  A    between atoms: S_9  and  C_12
REMARK    5  A    between atoms: C_15  and  S_16
REMARK    6  A    between atoms: S_16  and  N_19
REMARK    7  A    between atoms: N_22  and  S_23
REMARK    8  A    between atoms: S_23  and  C_26
REMARK    9  A    between atoms: C_26  and  C_27
REMARK                            x       y       z     vdW  Elec       q    Type
REMARK                         _______ _______ _______ _____ _____    ______ ____
ROOT
ATOM      1  C   UNL     1       2.690   5.408  18.971  0.00  0.00    +0.000 A 
ATOM      2  C   UNL     1       2.087   5.169  20.212  0.00  0.00    +0.000 A 
ATOM      3  C   UNL     1       1.548   6.243  20.940  0.00  0.00    +0.000 A 
ATOM      4  C   UNL     1       1.659   7.554  20.446  0.00  0.00    +0.000 A 
ATOM      5  C   UNL     1       2.264   7.776  19.201  0.00  0.00    +0.000 A 
ATOM      6  C   UNL     1       2.792   6.708  18.469  0.00  0.00    +0.000 A 
ENDROOT
BRANCH   1   7
ATOM      7  S   UNL     1       3.381   4.071  18.007  0.00  0.00    +0.000 S 
ATOM      8  O   UNL     1       2.357   3.636  17.080  0.00  0.00    +0.000 OA
ATOM      9  O   UNL     1       3.959   3.162  18.975  0.00  0.00    +0.000 OA
BRANCH   7  15
ATOM     10  C   UNL     1       6.048   4.567  17.675  0.00  0.00    +0.000 C 
ATOM     11  C   UNL     1       7.172   5.142  16.789  0.00  0.00    +0.000 C 
ATOM     12  C   UNL     1       7.135   4.593  15.377  0.00  0.00    +0.000 C 
ATOM     13  C   UNL     1       5.773   4.882  14.776  0.00  0.00    +0.000 C 
ATOM     14  C   UNL     1       4.652   4.280  15.620  0.00  0.00    +0.000 C 
ATOM     15  N   UNL     1       4.667   4.785  17.040  0.00  0.00    +0.000 NA
BRANCH  10  17
ATOM     16  C   UNL     1       7.550   5.792  19.371  0.00  0.00    +0.000 C 
ATOM     17  C   UNL     1       6.182   5.185  19.081  0.00  0.00    +0.000 C 
ENDBRANCH  10  17
ENDBRANCH   7  15
ENDBRANCH   1   7
BRANCH   4  18
ATOM     18  S   UNL     1       0.770   8.906  21.228  0.00  0.00    +0.000 S 
ATOM     19  O   UNL     1      -0.522   8.371  21.605  0.00  0.00    +0.000 OA
ATOM     20  O   UNL     1       1.679   9.434  22.235  0.00  0.00    +0.000 OA
BRANCH  18  21
ATOM     21  N   UNL     1       0.504  10.112  20.094  0.00  0.00    +0.000 NA
ATOM     22  C   UNL     1      -0.854  10.610  19.822  0.00  0.00    +0.000 C 
ATOM     23  C   UNL     1      -1.188  11.784  20.739  0.00  0.00    +0.000 C 
ATOM     24  N   UNL     1      -0.142  12.863  20.763  0.00  0.00    +0.000 NA
ATOM     25  C   UNL     1       1.288  12.382  20.717  0.00  0.00    +0.000 C 
ATOM     26  C   UNL     1       1.506  11.163  19.820  0.00  0.00    +0.000 C 
BRANCH  24  27
ATOM     27  S   UNL     1      -0.469  14.230  19.814  0.00  0.00    +0.000 S 
ATOM     28  O   UNL     1       0.569  15.209  20.068  0.00  0.00    +0.000 OA
ATOM     29  O   UNL     1      -0.730  13.745  18.478  0.00  0.00    +0.000 OA
BRANCH  27  30
ATOM     30  C   UNL     1      -1.997  14.843  20.538  0.00  0.00    +0.000 C 
ATOM     31  C   UNL     1      -1.697  15.690  21.758  0.00  0.00    +0.000 C 
ENDBRANCH  27  30
ENDBRANCH  24  27
ENDBRANCH  18  21
ENDBRANCH   4  18
TORSDOF 7
ENDMDL
