MODEL 1
REMARK VINA RESULT:      -7.0      0.000      0.000
REMARK  Name = 
REMARK  5 active torsions:
REMARK  status: ('A' for Active; 'I' for Inactive)
REMARK    1  A    between atoms: C_2  and  C_3
REMARK    2  A    between atoms: C_5  and  N_6
REMARK    3  A    between atoms: CA_9  and  C_10
REMARK    4  A    between atoms: C_10  and  OXT_12
REMARK    5  A    between atoms: C_16  and  N_17
REMARK                            x       y       z     vdW  Elec       q    Type
REMARK                         _______ _______ _______ _____ _____    ______ ____
ROOT
ATOM      1  C   UNL     1       3.630   5.191  18.799  0.00  0.00    +0.000 A 
ATOM      2  C   UNL     1       2.758   6.068  19.484  0.00  0.00    +0.000 A 
ATOM      3  C   UNL     1       2.535   7.370  19.025  0.00  0.00    +0.000 A 
ATOM      4  C   UNL     1       3.184   7.780  17.861  0.00  0.00    +0.000 A 
ATOM      5  C   UNL     1       4.056   6.905  17.190  0.00  0.00    +0.000 A 
ATOM      6  C   UNL     1       4.318   5.596  17.635  0.00  0.00    +0.000 A 
ENDROOT
BRANCH   3   7
ATOM      7  N   UNL     1       1.677   8.255  19.741  0.00  0.00    +0.000 N 
ATOM      8  C   UNL     1       1.099   9.424  19.284  0.00  0.00    +0.000 A 
ATOM      9  N   UNL     1       0.370  10.030  20.200  0.00  0.00    +0.000 NA
ATOM     10  CA  UNL     1       0.469   9.223  21.317  0.00  0.00    +0.000 A 
ATOM     11  C   UNL     1       1.260   8.128  21.046  0.00  0.00    +0.000 A 
BRANCH  10  12
ATOM     12  C   UNL     1      -0.188   9.549  22.574  0.00  0.00    +0.000 C 
ATOM     13  O   UNL     1      -0.049  10.602  23.181  0.00  0.00    +0.000 OA
BRANCH  12  14
ATOM     14  OXT UNL     1      -0.989   8.541  23.010  0.00  0.00    +0.000 OA
ATOM     15  HXT UNL     1      -1.206   8.731  23.951  0.00  0.00    +0.000 HD
ENDBRANCH  12  14
ENDBRANCH  10  12
ENDBRANCH   3   7
BRANCH   6  16
ATOM     16  N   UNL     1       5.217   4.777  16.966  0.00  0.00    +0.000 N 
ATOM     17  C   UNL     1       6.673   4.881  17.098  0.00  0.00    +0.000 C 
ATOM     18  C   UNL     1       7.182   4.849  15.664  0.00  0.00    +0.000 C 
ATOM     19  C   UNL     1       6.204   3.915  14.977  0.00  0.00    +0.000 C 
ATOM     20  C   UNL     1       4.864   4.219  15.649  0.00  0.00    +0.000 C 
ENDBRANCH   6  16
BRANCH   1  22
ATOM     21  N   UNL     1       3.913   2.823  19.828  0.00  0.00    +0.000 NA
ATOM     22  C   UNL     1       3.813   3.893  19.389  0.00  0.00    +0.000 C 
ENDBRANCH   1  22
TORSDOF 5
ENDMDL
MODEL 2
REMARK VINA RESULT:      -6.9      3.571      7.335
REMARK  Name = 
REMARK  5 active torsions:
REMARK  status: ('A' for Active; 'I' for Inactive)
REMARK    1  A    between atoms: C_2  and  C_3
REMARK    2  A    between atoms: C_5  and  N_6
REMARK    3  A    between atoms: CA_9  and  C_10
REMARK    4  A    between atoms: C_10  and  OXT_12
REMARK    5  A    between atoms: C_16  and  N_17
REMARK                            x       y       z     vdW  Elec       q    Type
REMARK                         _______ _______ _______ _____ _____    ______ ____
ROOT
ATOM      1  C   UNL     1       1.166   8.793  20.344  0.00  0.00    +0.000 A 
ATOM      2  C   UNL     1       1.935   7.613  20.227  0.00  0.00    +0.000 A 
ATOM      3  C   UNL     1       2.488   7.229  19.001  0.00  0.00    +0.000 A 
ATOM      4  C   UNL     1       2.274   8.048  17.895  0.00  0.00    +0.000 A 
ATOM      5  C   UNL     1       1.501   9.216  18.016  0.00  0.00    +0.000 A 
ATOM      6  C   UNL     1       0.915   9.623  19.230  0.00  0.00    +0.000 A 
ENDROOT
BRANCH   3   7
ATOM      7  N   UNL     1       3.236   6.021  18.890  0.00  0.00    +0.000 N 
ATOM      8  C   UNL     1       4.479   5.848  18.309  0.00  0.00    +0.000 A 
ATOM      9  N   UNL     1       4.895   4.599  18.347  0.00  0.00    +0.000 NA
ATOM     10  CA  UNL     1       3.881   3.911  18.984  0.00  0.00    +0.000 A 
ATOM     11  C   UNL     1       2.863   4.771  19.330  0.00  0.00    +0.000 A 
BRANCH  10  12
ATOM     12  C   UNL     1       3.941   2.475  19.218  0.00  0.00    +0.000 C 
ATOM     13  O   UNL     1       3.099   1.671  18.841  0.00  0.00    +0.000 OA
BRANCH  12  14
ATOM     14  OXT UNL     1       5.053   2.114  19.911  0.00  0.00    +0.000 OA
ATOM     15  HXT UNL     1       5.108   2.705  20.696  0.00  0.00    +0.000 HD
ENDBRANCH  12  14
ENDBRANCH  10  12
ENDBRANCH   3   7
BRANCH   6  16
ATOM     16  N   UNL     1       0.124  10.761  19.300  0.00  0.00    +0.000 N 
ATOM     17  C   UNL     1      -1.307  10.785  18.984  0.00  0.00    +0.000 C 
ATOM     18  C   UNL     1      -1.470  11.994  18.075  0.00  0.00    +0.000 C 
ATOM     19  C   UNL     1      -0.448  12.972  18.624  0.00  0.00    +0.000 C 
ATOM     20  C   UNL     1       0.720  12.086  19.056  0.00  0.00    +0.000 C 
ENDBRANCH   6  16
BRANCH   1  22
ATOM     21  N   UNL     1       0.136   9.328  22.668  0.00  0.00    +0.000 NA
ATOM     22  C   UNL     1       0.615   9.063  21.644  0.00  0.00    +0.000 C 
ENDBRANCH   1  22
TORSDOF 5
ENDMDL
MODEL 3
REMARK VINA RESULT:      -6.8      3.826      7.430
REMARK  Name = 
REMARK  5 active torsions:
REMARK  status: ('A' for Active; 'I' for Inactive)
REMARK    1  A    between atoms: C_2  and  C_3
REMARK    2  A    between atoms: C_5  and  N_6
REMARK    3  A    between atoms: CA_9  and  C_10
REMARK    4  A    between atoms: C_10  and  OXT_12
REMARK    5  A    between atoms: C_16  and  N_17
REMARK                            x       y       z     vdW  Elec       q    Type
REMARK                         _______ _______ _______ _____ _____    ______ ____
ROOT
ATOM      1  C   UNL     1       0.991   9.277  20.942  0.00  0.00    +0.000 A 
ATOM      2  C   UNL     1       1.472   7.948  20.980  0.00  0.00    +0.000 A 
ATOM      3  C   UNL     1       1.972   7.327  19.831  0.00  0.00    +0.000 A 
ATOM      4  C   UNL     1       1.999   8.057  18.645  0.00  0.00    +0.000 A 
ATOM      5  C   UNL     1       1.512   9.375  18.613  0.00  0.00    +0.000 A 
ATOM      6  C   UNL     1       0.985  10.024  19.745  0.00  0.00    +0.000 A 
ENDROOT
BRANCH   3   7
ATOM      7  N   UNL     1       2.426   5.976  19.877  0.00  0.00    +0.000 N 
ATOM      8  C   UNL     1       1.724   4.864  20.301  0.00  0.00    +0.000 A 
ATOM      9  N   UNL     1       2.433   3.754  20.241  0.00  0.00    +0.000 NA
ATOM     10  CA  UNL     1       3.664   4.151  19.754  0.00  0.00    +0.000 A 
ATOM     11  C   UNL     1       3.669   5.508  19.519  0.00  0.00    +0.000 A 
BRANCH  10  12
ATOM     12  C   UNL     1       4.760   3.215  19.551  0.00  0.00    +0.000 C 
ATOM     13  O   UNL     1       4.842   2.113  20.076  0.00  0.00    +0.000 OA
BRANCH  12  14
ATOM     14  OXT UNL     1       5.699   3.702  18.699  0.00  0.00    +0.000 OA
ATOM     15  HXT UNL     1       6.240   2.937  18.397  0.00  0.00    +0.000 HD
ENDBRANCH  12  14
ENDBRANCH  10  12
ENDBRANCH   3   7
BRANCH   6  16
ATOM     16  N   UNL     1       0.476  11.313  19.663  0.00  0.00    +0.000 N 
ATOM     17  C   UNL     1      -0.922  11.622  19.349  0.00  0.00    +0.000 C 
ATOM     18  C   UNL     1      -0.837  12.707  18.286  0.00  0.00    +0.000 C 
ATOM     19  C   UNL     1       0.398  13.488  18.696  0.00  0.00    +0.000 C 
ATOM     20  C   UNL     1       1.348  12.422  19.241  0.00  0.00    +0.000 C 
ENDBRANCH   6  16
BRANCH   1  22
ATOM     21  N   UNL     1      -0.013  10.172  23.165  0.00  0.00    +0.000 NA
ATOM     22  C   UNL     1       0.463   9.794  22.175  0.00  0.00    +0.000 C 
ENDBRANCH   1  22
TORSDOF 5
ENDMDL
MODEL 4
REMARK VINA RESULT:      -6.7      3.773      7.556
REMARK  Name = 
REMARK  5 active torsions:
REMARK  status: ('A' for Active; 'I' for Inactive)
REMARK    1  A    between atoms: C_2  and  C_3
REMARK    2  A    between atoms: C_5  and  N_6
REMARK    3  A    between atoms: CA_9  and  C_10
REMARK    4  A    between atoms: C_10  and  OXT_12
REMARK    5  A    between atoms: C_16  and  N_17
REMARK                            x       y       z     vdW  Elec       q    Type
REMARK                         _______ _______ _______ _____ _____    ______ ____
ROOT
ATOM      1  C   UNL     1       1.021   8.840  20.309  0.00  0.00    +0.000 A 
ATOM      2  C   UNL     1       1.914   7.748  20.222  0.00  0.00    +0.000 A 
ATOM      3  C   UNL     1       2.534   7.414  19.013  0.00  0.00    +0.000 A 
ATOM      4  C   UNL     1       2.260   8.197  17.894  0.00  0.00    +0.000 A 
ATOM      5  C   UNL     1       1.366   9.277  17.985  0.00  0.00    +0.000 A 
ATOM      6  C   UNL     1       0.711   9.629  19.180  0.00  0.00    +0.000 A 
ENDROOT
BRANCH   3   7
ATOM      7  N   UNL     1       3.409   6.292  18.933  0.00  0.00    +0.000 N 
ATOM      8  C   UNL     1       3.361   5.129  19.679  0.00  0.00    +0.000 A 
ATOM      9  N   UNL     1       4.329   4.286  19.381  0.00  0.00    +0.000 NA
ATOM     10  CA  UNL     1       5.053   4.921  18.390  0.00  0.00    +0.000 A 
ATOM     11  C   UNL     1       4.495   6.146  18.100  0.00  0.00    +0.000 A 
BRANCH  10  12
ATOM     12  C   UNL     1       6.235   4.324  17.786  0.00  0.00    +0.000 C 
ATOM     13  O   UNL     1       7.370   4.414  18.236  0.00  0.00    +0.000 OA
BRANCH  12  14
ATOM     14  OXT UNL     1       5.942   3.643  16.647  0.00  0.00    +0.000 OA
ATOM     15  HXT UNL     1       5.593   4.298  16.000  0.00  0.00    +0.000 HD
ENDBRANCH  12  14
ENDBRANCH  10  12
ENDBRANCH   3   7
BRANCH   6  16
ATOM     16  N   UNL     1      -0.197  10.678  19.220  0.00  0.00    +0.000 N 
ATOM     17  C   UNL     1      -1.556  10.605  18.674  0.00  0.00    +0.000 C 
ATOM     18  C   UNL     1      -1.704  11.883  17.863  0.00  0.00    +0.000 C 
ATOM     19  C   UNL     1      -0.889  12.887  18.658  0.00  0.00    +0.000 C 
ATOM     20  C   UNL     1       0.285  12.070  19.196  0.00  0.00    +0.000 C 
ENDBRANCH   6  16
BRANCH   1  22
ATOM     21  N   UNL     1      -0.018   9.252  22.653  0.00  0.00    +0.000 NA
ATOM     22  C   UNL     1       0.414   9.061  21.593  0.00  0.00    +0.000 C 
ENDBRANCH   1  22
TORSDOF 5
ENDMDL
MODEL 5
REMARK VINA RESULT:      -6.6      3.577      7.345
REMARK  Name = 
REMARK  5 active torsions:
REMARK  status: ('A' for Active; 'I' for Inactive)
REMARK    1  A    between atoms: C_2  and  C_3
REMARK    2  A    between atoms: C_5  and  N_6
REMARK    3  A    between atoms: CA_9  and  C_10
REMARK    4  A    between atoms: C_10  and  OXT_12
REMARK    5  A    between atoms: C_16  and  N_17
REMARK                            x       y       z     vdW  Elec       q    Type
REMARK                         _______ _______ _______ _____ _____    ______ ____
ROOT
ATOM      1  C   UNL     1       1.210   8.698  20.172  0.00  0.00    +0.000 A 
ATOM      2  C   UNL     1       1.962   7.503  20.092  0.00  0.00    +0.000 A 
ATOM      3  C   UNL     1       2.663   7.166  18.930  0.00  0.00    +0.000 A 
ATOM      4  C   UNL     1       2.615   8.047  17.851  0.00  0.00    +0.000 A 
ATOM      5  C   UNL     1       1.859   9.230  17.935  0.00  0.00    +0.000 A 
ATOM      6  C   UNL     1       1.127   9.590  19.082  0.00  0.00    +0.000 A 
ENDROOT
BRANCH   3   7
ATOM      7  N   UNL     1       3.392   5.944  18.852  0.00  0.00    +0.000 N 
ATOM      8  C   UNL     1       4.646   5.743  18.305  0.00  0.00    +0.000 A 
ATOM      9  N   UNL     1       5.039   4.487  18.368  0.00  0.00    +0.000 NA
ATOM     10  CA  UNL     1       3.997   3.824  18.986  0.00  0.00    +0.000 A 
ATOM     11  C   UNL     1       2.986   4.707  19.295  0.00  0.00    +0.000 A 
BRANCH  10  12
ATOM     12  C   UNL     1       4.025   2.390  19.236  0.00  0.00    +0.000 C 
ATOM     13  O   UNL     1       3.204   1.591  18.808  0.00  0.00    +0.000 OA
BRANCH  12  14
ATOM     14  OXT UNL     1       5.081   2.026  20.010  0.00  0.00    +0.000 OA
ATOM     15  HXT UNL     1       5.784   2.702  19.878  0.00  0.00    +0.000 HD
ENDBRANCH  12  14
ENDBRANCH  10  12
ENDBRANCH   3   7
BRANCH   6  16
ATOM     16  N   UNL     1       0.360  10.746  19.110  0.00  0.00    +0.000 N 
ATOM     17  C   UNL     1       0.719  11.949  19.867  0.00  0.00    +0.000 C 
ATOM     18  C   UNL     1      -0.561  12.330  20.596  0.00  0.00    +0.000 C 
ATOM     19  C   UNL     1      -1.644  11.933  19.611  0.00  0.00    +0.000 C 
ATOM     20  C   UNL     1      -1.103  10.663  18.954  0.00  0.00    +0.000 C 
ENDBRANCH   6  16
BRANCH   1  22
ATOM     21  N   UNL     1      -0.105   9.037  22.386  0.00  0.00    +0.000 NA
ATOM     22  C   UNL     1       0.498   8.917  21.402  0.00  0.00    +0.000 C 
ENDBRANCH   1  22
TORSDOF 5
ENDMDL
MODEL 6
REMARK VINA RESULT:      -6.6      3.750      7.419
REMARK  Name = 
REMARK  5 active torsions:
REMARK  status: ('A' for Active; 'I' for Inactive)
REMARK    1  A    between atoms: C_2  and  C_3
REMARK    2  A    between atoms: C_5  and  N_6
REMARK    3  A    between atoms: CA_9  and  C_10
REMARK    4  A    between atoms: C_10  and  OXT_12
REMARK    5  A    between atoms: C_16  and  N_17
REMARK                            x       y       z     vdW  Elec       q    Type
REMARK                         _______ _______ _______ _____ _____    ______ ____
ROOT
ATOM      1  C   UNL     1       1.378   8.704  20.507  0.00  0.00    +0.000 A 
ATOM      2  C   UNL     1       1.980   7.430  20.390  0.00  0.00    +0.000 A 
ATOM      3  C   UNL     1       2.411   6.945  19.150  0.00  0.00    +0.000 A 
ATOM      4  C   UNL     1       2.245   7.757  18.030  0.00  0.00    +0.000 A 
ATOM      5  C   UNL     1       1.639   9.019  18.152  0.00  0.00    +0.000 A 
ATOM      6  C   UNL     1       1.177   9.530  19.380  0.00  0.00    +0.000 A 
ENDROOT
BRANCH   3   7
ATOM      7  N   UNL     1       2.989   5.647  19.042  0.00  0.00    +0.000 N 
ATOM      8  C   UNL     1       4.294   5.279  19.310  0.00  0.00    +0.000 A 
ATOM      9  N   UNL     1       4.524   4.000  19.090  0.00  0.00    +0.000 NA
ATOM     10  CA  UNL     1       3.313   3.496  18.655  0.00  0.00    +0.000 A 
ATOM     11  C   UNL     1       2.363   4.493  18.629  0.00  0.00    +0.000 A 
BRANCH  10  12
ATOM     12  C   UNL     1       3.139   2.099  18.284  0.00  0.00    +0.000 C 
ATOM     13  O   UNL     1       3.841   1.180  18.681  0.00  0.00    +0.000 OA
BRANCH  12  14
ATOM     14  OXT UNL     1       2.094   1.921  17.434  0.00  0.00    +0.000 OA
ATOM     15  HXT UNL     1       2.046   2.721  16.863  0.00  0.00    +0.000 HD
ENDBRANCH  12  14
ENDBRANCH  10  12
ENDBRANCH   3   7
BRANCH   6  16
ATOM     16  N   UNL     1       0.547  10.764  19.453  0.00  0.00    +0.000 N 
ATOM     17  C   UNL     1       1.163  11.966  20.024  0.00  0.00    +0.000 C 
ATOM     18  C   UNL     1       0.093  12.535  20.944  0.00  0.00    +0.000 C 
ATOM     19  C   UNL     1      -1.195  12.198  20.217  0.00  0.00    +0.000 C 
ATOM     20  C   UNL     1      -0.919  10.835  19.582  0.00  0.00    +0.000 C 
ENDBRANCH   6  16
BRANCH   1  22
ATOM     21  N   UNL     1       0.624   9.429  22.884  0.00  0.00    +0.000 NA
ATOM     22  C   UNL     1       0.939   9.077  21.823  0.00  0.00    +0.000 C 
ENDBRANCH   1  22
TORSDOF 5
ENDMDL
MODEL 7
REMARK VINA RESULT:      -6.4      3.669      7.637
REMARK  Name = 
REMARK  5 active torsions:
REMARK  status: ('A' for Active; 'I' for Inactive)
REMARK    1  A    between atoms: C_2  and  C_3
REMARK    2  A    between atoms: C_5  and  N_6
REMARK    3  A    between atoms: CA_9  and  C_10
REMARK    4  A    between atoms: C_10  and  OXT_12
REMARK    5  A    between atoms: C_16  and  N_17
REMARK                            x       y       z     vdW  Elec       q    Type
REMARK                         _______ _______ _______ _____ _____    ______ ____
ROOT
ATOM      1  C   UNL     1       0.869   9.435  20.815  0.00  0.00    +0.000 A 
ATOM      2  C   UNL     1       1.493   8.167  20.837  0.00  0.00    +0.000 A 
ATOM      3  C   UNL     1       2.014   7.597  19.672  0.00  0.00    +0.000 A 
ATOM      4  C   UNL     1       1.918   8.319  18.484  0.00  0.00    +0.000 A 
ATOM      5  C   UNL     1       1.289   9.576  18.467  0.00  0.00    +0.000 A 
ATOM      6  C   UNL     1       0.737  10.171  19.618  0.00  0.00    +0.000 A 
ENDROOT
BRANCH   3   7
ATOM      7  N   UNL     1       2.614   6.304  19.702  0.00  0.00    +0.000 N 
ATOM      8  C   UNL     1       2.099   5.147  20.256  0.00  0.00    +0.000 A 
ATOM      9  N   UNL     1       2.911   4.116  20.139  0.00  0.00    +0.000 NA
ATOM     10  CA  UNL     1       4.016   4.613  19.477  0.00  0.00    +0.000 A 
ATOM     11  C   UNL     1       3.844   5.950  19.196  0.00  0.00    +0.000 A 
BRANCH  10  12
ATOM     12  C   UNL     1       5.171   3.785  19.160  0.00  0.00    +0.000 C 
ATOM     13  O   UNL     1       6.166   4.175  18.564  0.00  0.00    +0.000 OA
BRANCH  12  14
ATOM     14  OXT UNL     1       5.026   2.509  19.605  0.00  0.00    +0.000 OA
ATOM     15  HXT UNL     1       5.895   2.062  19.489  0.00  0.00    +0.000 HD
ENDBRANCH  12  14
ENDBRANCH  10  12
ENDBRANCH   3   7
BRANCH   6  16
ATOM     16  N   UNL     1       0.088  11.395  19.552  0.00  0.00    +0.000 N 
ATOM     17  C   UNL     1       0.664  12.654  20.036  0.00  0.00    +0.000 C 
ATOM     18  C   UNL     1      -0.451  13.285  20.857  0.00  0.00    +0.000 C 
ATOM     19  C   UNL     1      -1.703  12.863  20.112  0.00  0.00    +0.000 C 
ATOM     20  C   UNL     1      -1.383  11.453  19.615  0.00  0.00    +0.000 C 
ENDBRANCH   6  16
BRANCH   1  22
ATOM     21  N   UNL     1      -0.107  10.331  23.050  0.00  0.00    +0.000 NA
ATOM     22  C   UNL     1       0.334   9.899  22.066  0.00  0.00    +0.000 C 
ENDBRANCH   1  22
TORSDOF 5
ENDMDL
MODEL 8
REMARK VINA RESULT:      -6.4      3.945      7.317
REMARK  Name = 
REMARK  5 active torsions:
REMARK  status: ('A' for Active; 'I' for Inactive)
REMARK    1  A    between atoms: C_2  and  C_3
REMARK    2  A    between atoms: C_5  and  N_6
REMARK    3  A    between atoms: CA_9  and  C_10
REMARK    4  A    between atoms: C_10  and  OXT_12
REMARK    5  A    between atoms: C_16  and  N_17
REMARK                            x       y       z     vdW  Elec       q    Type
REMARK                         _______ _______ _______ _____ _____    ______ ____
ROOT
ATOM      1  C   UNL     1       1.248   9.037  20.402  0.00  0.00    +0.000 A 
ATOM      2  C   UNL     1       1.626   7.694  20.625  0.00  0.00    +0.000 A 
ATOM      3  C   UNL     1       2.087   6.889  19.579  0.00  0.00    +0.000 A 
ATOM      4  C   UNL     1       2.181   7.450  18.307  0.00  0.00    +0.000 A 
ATOM      5  C   UNL     1       1.796   8.785  18.090  0.00  0.00    +0.000 A 
ATOM      6  C   UNL     1       1.310   9.617  19.117  0.00  0.00    +0.000 A 
ENDROOT
BRANCH   3   7
ATOM      7  N   UNL     1       2.436   5.527  19.811  0.00  0.00    +0.000 N 
ATOM      8  C   UNL     1       2.092   4.740  20.895  0.00  0.00    +0.000 A 
ATOM      9  N   UNL     1       2.591   3.522  20.826  0.00  0.00    +0.000 NA
ATOM     10  CA  UNL     1       3.299   3.501  19.640  0.00  0.00    +0.000 A 
ATOM     11  C   UNL     1       3.205   4.719  19.005  0.00  0.00    +0.000 A 
BRANCH  10  12
ATOM     12  C   UNL     1       4.027   2.323  19.189  0.00  0.00    +0.000 C 
ATOM     13  O   UNL     1       3.707   1.628  18.235  0.00  0.00    +0.000 OA
BRANCH  12  14
ATOM     14  OXT UNL     1       5.122   2.073  19.954  0.00  0.00    +0.000 OA
ATOM     15  HXT UNL     1       4.936   2.432  20.852  0.00  0.00    +0.000 HD
ENDBRANCH  12  14
ENDBRANCH  10  12
ENDBRANCH   3   7
BRANCH   6  16
ATOM     16  N   UNL     1       0.902  10.917  18.854  0.00  0.00    +0.000 N 
ATOM     17  C   UNL     1       1.635  12.109  19.291  0.00  0.00    +0.000 C 
ATOM     18  C   UNL     1       0.565  13.005  19.898  0.00  0.00    +0.000 C 
ATOM     19  C   UNL     1      -0.650  12.715  19.037  0.00  0.00    +0.000 C 
ATOM     20  C   UNL     1      -0.532  11.224  18.718  0.00  0.00    +0.000 C 
ENDBRANCH   6  16
BRANCH   1  22
ATOM     21  N   UNL     1       0.294  10.342  22.436  0.00  0.00    +0.000 NA
ATOM     22  C   UNL     1       0.750   9.753  21.545  0.00  0.00    +0.000 C 
ENDBRANCH   1  22
TORSDOF 5
ENDMDL
MODEL 9
REMARK VINA RESULT:      -6.4      1.120      1.465
REMARK  Name = 
REMARK  5 active torsions:
REMARK  status: ('A' for Active; 'I' for Inactive)
REMARK    1  A    between atoms: C_2  and  C_3
REMARK    2  A    between atoms: C_5  and  N_6
REMARK    3  A    between atoms: CA_9  and  C_10
REMARK    4  A    between atoms: C_10  and  OXT_12
REMARK    5  A    between atoms: C_16  and  N_17
REMARK                            x       y       z     vdW  Elec       q    Type
REMARK                         _______ _______ _______ _____ _____    ______ ____
ROOT
ATOM      1  C   UNL     1       3.791   5.004  18.785  0.00  0.00    +0.000 A 
ATOM      2  C   UNL     1       2.933   5.837  19.538  0.00  0.00    +0.000 A 
ATOM      3  C   UNL     1       2.635   7.138  19.117  0.00  0.00    +0.000 A 
ATOM      4  C   UNL     1       3.194   7.589  17.924  0.00  0.00    +0.000 A 
ATOM      5  C   UNL     1       4.053   6.758  17.184  0.00  0.00    +0.000 A 
ATOM      6  C   UNL     1       4.389   5.452  17.588  0.00  0.00    +0.000 A 
ENDROOT
BRANCH   3   7
ATOM      7  N   UNL     1       1.792   7.978  19.901  0.00  0.00    +0.000 N 
ATOM      8  C   UNL     1       1.229   7.697  21.132  0.00  0.00    +0.000 A 
ATOM      9  N   UNL     1       0.476   8.677  21.589  0.00  0.00    +0.000 NA
ATOM     10  CA  UNL     1       0.544   9.655  20.616  0.00  0.00    +0.000 A 
ATOM     11  C   UNL     1       1.353   9.242  19.581  0.00  0.00    +0.000 A 
BRANCH  10  12
ATOM     12  C   UNL     1      -0.172  10.917  20.728  0.00  0.00    +0.000 C 
ATOM     13  O   UNL     1      -1.080  11.272  19.989  0.00  0.00    +0.000 OA
BRANCH  12  14
ATOM     14  OXT UNL     1       0.281  11.674  21.762  0.00  0.00    +0.000 OA
ATOM     15  HXT UNL     1      -0.486  12.188  22.102  0.00  0.00    +0.000 HD
ENDBRANCH  12  14
ENDBRANCH  10  12
ENDBRANCH   3   7
BRANCH   6  16
ATOM     16  N   UNL     1       5.273   4.677  16.850  0.00  0.00    +0.000 N 
ATOM     17  C   UNL     1       6.732   4.763  16.968  0.00  0.00    +0.000 C 
ATOM     18  C   UNL     1       7.222   4.830  15.529  0.00  0.00    +0.000 C 
ATOM     19  C   UNL     1       6.227   3.954  14.791  0.00  0.00    +0.000 C 
ATOM     20  C   UNL     1       4.900   4.217  15.502  0.00  0.00    +0.000 C 
ENDBRANCH   6  16
BRANCH   1  22
ATOM     21  N   UNL     1       4.299   2.638  19.730  0.00  0.00    +0.000 NA
ATOM     22  C   UNL     1       4.056   3.704  19.339  0.00  0.00    +0.000 C 
ENDBRANCH   1  22
TORSDOF 5
ENDMDL
