MODEL 1
REMARK VINA RESULT:      -5.9      0.000      0.000
REMARK  Name = 
REMARK  5 active torsions:
REMARK  status: ('A' for Active; 'I' for Inactive)
REMARK    1  A    between atoms: C_1  and  S_2
REMARK    2  A    between atoms: S_2  and  C_3
REMARK    3  A    between atoms: C_4  and  C_5
REMARK    4  A    between atoms: N_9  and  N_10
REMARK    5  A    between atoms: C_14  and  C_15
REMARK                            x       y       z     vdW  Elec       q    Type
REMARK                         _______ _______ _______ _____ _____    ______ ____
ROOT
ATOM      1  C   UNL     1       3.607   4.326  19.209  0.00  0.00    +0.000 A 
ATOM      2  C   UNL     1       2.690   4.719  20.134  0.00  0.00    +0.000 A 
ATOM      3  C   UNL     1       2.103   6.105  20.107  0.00  0.00    +0.000 A 
ATOM      4  O   UNL     1       1.260   6.457  20.931  0.00  0.00    +0.000 OA
ATOM      5  N   UNL     1       2.573   6.967  19.099  0.00  0.00    +0.000 N 
ATOM      6  C   UNL     1       3.481   6.492  18.190  0.00  0.00    +0.000 A 
ATOM      7  N   UNL     1       4.039   7.164  17.149  0.00  0.00    +0.000 N 
ATOM      8  N   UNL     1       4.840   6.385  16.396  0.00  0.00    +0.000 NA
ATOM      9  C   UNL     1       4.811   5.186  17.007  0.00  0.00    +0.000 A 
ATOM     10  C   UNL     1       5.578   4.060  16.411  0.00  0.00    +0.000 C 
ATOM     11  C   UNL     1       3.996   5.225  18.167  0.00  0.00    +0.000 A 
ATOM     12  H   UNL     1       3.907   8.136  16.894  0.00  0.00    +0.000 HD
ENDROOT
BRANCH   5  13
ATOM     13  N   UNL     1       2.126   8.291  19.001  0.00  0.00    +0.000 N 
ATOM     14  H   UNL     1       2.108   8.661  19.961  0.00  0.00    +0.000 HD
ATOM     15  H   UNL     1       1.141   8.270  18.729  0.00  0.00    +0.000 HD
ENDBRANCH   5  13
BRANCH   1  17
ATOM     16  C   UNL     1       3.192   1.825  18.182  0.00  0.00    +0.000 C 
ATOM     17  S   UNL     1       4.343   2.738  19.244  0.00  0.00    +0.000 S 
ENDBRANCH   1  17
BRANCH   2  18
ATOM     18  C   UNL     1       2.285   3.767  21.247  0.00  0.00    +0.000 C 
ATOM     19  N   UNL     1       1.948   2.977  22.170  0.00  0.00    +0.000 NA
ENDBRANCH   2  18
TORSDOF 3
ENDMDL
MODEL 2
REMARK VINA RESULT:      -5.7      2.268      3.739
REMARK  Name = 
REMARK  5 active torsions:
REMARK  status: ('A' for Active; 'I' for Inactive)
REMARK    1  A    between atoms: C_1  and  S_2
REMARK    2  A    between atoms: S_2  and  C_3
REMARK    3  A    between atoms: C_4  and  C_5
REMARK    4  A    between atoms: N_9  and  N_10
REMARK    5  A    between atoms: C_14  and  C_15
REMARK                            x       y       z     vdW  Elec       q    Type
REMARK                         _______ _______ _______ _____ _____    ______ ____
ROOT
ATOM      1  C   UNL     1       3.208   5.113  19.697  0.00  0.00    +0.000 A 
ATOM      2  C   UNL     1       4.146   4.360  19.062  0.00  0.00    +0.000 A 
ATOM      3  C   UNL     1       4.823   4.851  17.811  0.00  0.00    +0.000 A 
ATOM      4  O   UNL     1       5.684   4.180  17.245  0.00  0.00    +0.000 OA
ATOM      5  N   UNL     1       4.413   6.109  17.328  0.00  0.00    +0.000 N 
ATOM      6  C   UNL     1       3.479   6.819  18.035  0.00  0.00    +0.000 A 
ATOM      7  N   UNL     1       2.970   8.042  17.735  0.00  0.00    +0.000 N 
ATOM      8  N   UNL     1       2.122   8.498  18.678  0.00  0.00    +0.000 NA
ATOM      9  C   UNL     1       2.070   7.508  19.588  0.00  0.00    +0.000 A 
ATOM     10  C   UNL     1       1.233   7.694  20.803  0.00  0.00    +0.000 C 
ATOM     11  C   UNL     1       2.882   6.412  19.196  0.00  0.00    +0.000 A 
ATOM     12  H   UNL     1       3.165   8.616  16.924  0.00  0.00    +0.000 HD
ENDROOT
BRANCH   5  13
ATOM     13  N   UNL     1       4.946   6.649  16.150  0.00  0.00    +0.000 N 
ATOM     14  H   UNL     1       5.666   7.324  16.443  0.00  0.00    +0.000 HD
ATOM     15  H   UNL     1       4.226   7.231  15.719  0.00  0.00    +0.000 HD
ENDBRANCH   5  13
BRANCH   1  17
ATOM     16  C   UNL     1       0.915   3.781  20.365  0.00  0.00    +0.000 C 
ATOM     17  S   UNL     1       2.370   4.547  21.126  0.00  0.00    +0.000 S 
ENDBRANCH   1  17
BRANCH   2  18
ATOM     18  C   UNL     1       4.484   2.974  19.589  0.00  0.00    +0.000 C 
ATOM     19  N   UNL     1       4.765   1.826  20.027  0.00  0.00    +0.000 NA
ENDBRANCH   2  18
TORSDOF 3
ENDMDL
MODEL 3
REMARK VINA RESULT:      -5.5      1.976      4.021
REMARK  Name = 
REMARK  5 active torsions:
REMARK  status: ('A' for Active; 'I' for Inactive)
REMARK    1  A    between atoms: C_1  and  S_2
REMARK    2  A    between atoms: S_2  and  C_3
REMARK    3  A    between atoms: C_4  and  C_5
REMARK    4  A    between atoms: N_9  and  N_10
REMARK    5  A    between atoms: C_14  and  C_15
REMARK                            x       y       z     vdW  Elec       q    Type
REMARK                         _______ _______ _______ _____ _____    ______ ____
ROOT
ATOM      1  C   UNL     1       3.762   4.396  18.452  0.00  0.00    +0.000 A 
ATOM      2  C   UNL     1       4.372   5.013  17.405  0.00  0.00    +0.000 A 
ATOM      3  C   UNL     1       4.165   6.480  17.139  0.00  0.00    +0.000 A 
ATOM      4  O   UNL     1       4.730   7.044  16.204  0.00  0.00    +0.000 OA
ATOM      5  N   UNL     1       3.292   7.160  18.009  0.00  0.00    +0.000 N 
ATOM      6  C   UNL     1       2.732   6.475  19.055  0.00  0.00    +0.000 A 
ATOM      7  N   UNL     1       1.881   6.956  19.998  0.00  0.00    +0.000 N 
ATOM      8  N   UNL     1       1.572   6.040  20.937  0.00  0.00    +0.000 NA
ATOM      9  C   UNL     1       2.228   4.931  20.551  0.00  0.00    +0.000 A 
ATOM     10  C   UNL     1       2.131   3.710  21.395  0.00  0.00    +0.000 C 
ATOM     11  C   UNL     1       2.938   5.153  19.343  0.00  0.00    +0.000 A 
ATOM     12  H   UNL     1       1.489   7.888  20.065  0.00  0.00    +0.000 HD
ENDROOT
BRANCH   5  13
ATOM     13  N   UNL     1       2.995   8.517  17.834  0.00  0.00    +0.000 N 
ATOM     14  H   UNL     1       3.896   8.996  17.703  0.00  0.00    +0.000 HD
ATOM     15  H   UNL     1       2.652   8.880  18.726  0.00  0.00    +0.000 HD
ENDBRANCH   5  13
BRANCH   1  17
ATOM     16  C   UNL     1       2.460   2.046  17.936  0.00  0.00    +0.000 C 
ATOM     17  S   UNL     1       3.945   2.682  18.758  0.00  0.00    +0.000 S 
ENDBRANCH   1  17
BRANCH   2  18
ATOM     18  C   UNL     1       5.237   4.204  16.452  0.00  0.00    +0.000 C 
ATOM     19  N   UNL     1       5.956   3.535  15.662  0.00  0.00    +0.000 NA
ENDBRANCH   2  18
TORSDOF 3
ENDMDL
MODEL 4
REMARK VINA RESULT:      -5.5      2.618      4.858
REMARK  Name = 
REMARK  5 active torsions:
REMARK  status: ('A' for Active; 'I' for Inactive)
REMARK    1  A    between atoms: C_1  and  S_2
REMARK    2  A    between atoms: S_2  and  C_3
REMARK    3  A    between atoms: C_4  and  C_5
REMARK    4  A    between atoms: N_9  and  N_10
REMARK    5  A    between atoms: C_14  and  C_15
REMARK                            x       y       z     vdW  Elec       q    Type
REMARK                         _______ _______ _______ _____ _____    ______ ____
ROOT
ATOM      1  C   UNL     1       2.957   5.395  19.166  0.00  0.00    +0.000 A 
ATOM      2  C   UNL     1       3.625   6.209  18.304  0.00  0.00    +0.000 A 
ATOM      3  C   UNL     1       5.002   5.855  17.809  0.00  0.00    +0.000 A 
ATOM      4  O   UNL     1       5.600   6.580  17.016  0.00  0.00    +0.000 OA
ATOM      5  N   UNL     1       5.561   4.662  18.304  0.00  0.00    +0.000 N 
ATOM      6  C   UNL     1       4.817   3.883  19.151  0.00  0.00    +0.000 A 
ATOM      7  N   UNL     1       5.178   2.703  19.721  0.00  0.00    +0.000 N 
ATOM      8  N   UNL     1       4.186   2.151  20.446  0.00  0.00    +0.000 NA
ATOM      9  C   UNL     1       3.175   3.034  20.357  0.00  0.00    +0.000 A 
ATOM     10  C   UNL     1       1.887   2.718  21.031  0.00  0.00    +0.000 C 
ATOM     11  C   UNL     1       3.549   4.161  19.582  0.00  0.00    +0.000 A 
ATOM     12  H   UNL     1       6.066   2.222  19.645  0.00  0.00    +0.000 HD
ENDROOT
BRANCH   5  13
ATOM     13  N   UNL     1       6.850   4.252  17.942  0.00  0.00    +0.000 N 
ATOM     14  H   UNL     1       7.255   3.803  18.774  0.00  0.00    +0.000 HD
ATOM     15  H   UNL     1       7.420   5.091  17.814  0.00  0.00    +0.000 HD
ENDBRANCH   5  13
BRANCH   1  17
ATOM     16  C   UNL     1       1.810   7.188  20.883  0.00  0.00    +0.000 C 
ATOM     17  S   UNL     1       1.376   5.803  19.797  0.00  0.00    +0.000 S 
ENDBRANCH   1  17
BRANCH   2  18
ATOM     18  C   UNL     1       3.000   7.525  17.872  0.00  0.00    +0.000 C 
ATOM     19  N   UNL     1       2.480   8.616  17.513  0.00  0.00    +0.000 NA
ENDBRANCH   2  18
TORSDOF 3
ENDMDL
MODEL 5
REMARK VINA RESULT:      -5.3     10.630     11.937
REMARK  Name = 
REMARK  5 active torsions:
REMARK  status: ('A' for Active; 'I' for Inactive)
REMARK    1  A    between atoms: C_1  and  S_2
REMARK    2  A    between atoms: S_2  and  C_3
REMARK    3  A    between atoms: C_4  and  C_5
REMARK    4  A    between atoms: N_9  and  N_10
REMARK    5  A    between atoms: C_14  and  C_15
REMARK                            x       y       z     vdW  Elec       q    Type
REMARK                         _______ _______ _______ _____ _____    ______ ____
ROOT
ATOM      1  C   UNL     1       9.670  14.296  19.092  0.00  0.00    +0.000 A 
ATOM      2  C   UNL     1      10.132  13.018  19.027  0.00  0.00    +0.000 A 
ATOM      3  C   UNL     1      11.043  12.575  17.914  0.00  0.00    +0.000 A 
ATOM      4  O   UNL     1      11.477  11.425  17.864  0.00  0.00    +0.000 OA
ATOM      5  N   UNL     1      11.363  13.541  16.942  0.00  0.00    +0.000 N 
ATOM      6  C   UNL     1      10.878  14.814  17.087  0.00  0.00    +0.000 A 
ATOM      7  N   UNL     1      11.083  15.876  16.265  0.00  0.00    +0.000 N 
ATOM      8  N   UNL     1      10.527  17.011  16.733  0.00  0.00    +0.000 NA
ATOM      9  C   UNL     1       9.920  16.640  17.875  0.00  0.00    +0.000 A 
ATOM     10  C   UNL     1       9.218  17.674  18.681  0.00  0.00    +0.000 C 
ATOM     11  C   UNL     1      10.084  15.252  18.111  0.00  0.00    +0.000 A 
ATOM     12  H   UNL     1      11.596  15.897  15.391  0.00  0.00    +0.000 HD
ENDROOT
BRANCH   5  13
ATOM     13  N   UNL     1      12.172  13.231  15.841  0.00  0.00    +0.000 N 
ATOM     14  H   UNL     1      12.838  12.517  16.164  0.00  0.00    +0.000 HD
ATOM     15  H   UNL     1      12.760  14.044  15.645  0.00  0.00    +0.000 HD
ENDBRANCH   5  13
BRANCH   1  17
ATOM     16  C   UNL     1       7.006  14.817  19.431  0.00  0.00    +0.000 C 
ATOM     17  S   UNL     1       8.571  14.827  20.346  0.00  0.00    +0.000 S 
ENDBRANCH   1  17
BRANCH   2  18
ATOM     18  C   UNL     1       9.682  12.000  20.063  0.00  0.00    +0.000 C 
ATOM     19  N   UNL     1       9.309  11.155  20.921  0.00  0.00    +0.000 NA
ENDBRANCH   2  18
TORSDOF 3
ENDMDL
MODEL 6
REMARK VINA RESULT:      -5.2      2.496      4.619
REMARK  Name = 
REMARK  5 active torsions:
REMARK  status: ('A' for Active; 'I' for Inactive)
REMARK    1  A    between atoms: C_1  and  S_2
REMARK    2  A    between atoms: S_2  and  C_3
REMARK    3  A    between atoms: C_4  and  C_5
REMARK    4  A    between atoms: N_9  and  N_10
REMARK    5  A    between atoms: C_14  and  C_15
REMARK                            x       y       z     vdW  Elec       q    Type
REMARK                         _______ _______ _______ _____ _____    ______ ____
ROOT
ATOM      1  C   UNL     1       3.994   5.703  17.685  0.00  0.00    +0.000 A 
ATOM      2  C   UNL     1       4.315   4.381  17.686  0.00  0.00    +0.000 A 
ATOM      3  C   UNL     1       3.817   3.461  18.768  0.00  0.00    +0.000 A 
ATOM      4  O   UNL     1       4.091   2.262  18.761  0.00  0.00    +0.000 OA
ATOM      5  N   UNL     1       3.033   4.046  19.779  0.00  0.00    +0.000 N 
ATOM      6  C   UNL     1       2.733   5.381  19.697  0.00  0.00    +0.000 A 
ATOM      7  N   UNL     1       1.989   6.116  20.564  0.00  0.00    +0.000 N 
ATOM      8  N   UNL     1       1.819   7.388  20.155  0.00  0.00    +0.000 NA
ATOM      9  C   UNL     1       2.511   7.464  19.003  0.00  0.00    +0.000 A 
ATOM     10  C   UNL     1       2.513   8.748  18.252  0.00  0.00    +0.000 C 
ATOM     11  C   UNL     1       3.137   6.228  18.702  0.00  0.00    +0.000 A 
ATOM     12  H   UNL     1       1.564   5.812  21.432  0.00  0.00    +0.000 HD
ENDROOT
BRANCH   5  13
ATOM     13  N   UNL     1       2.547   3.294  20.857  0.00  0.00    +0.000 N 
ATOM     14  H   UNL     1       1.621   2.948  20.572  0.00  0.00    +0.000 HD
ATOM     15  H   UNL     1       2.342   3.939  21.622  0.00  0.00    +0.000 HD
ENDBRANCH   5  13
BRANCH   1  17
ATOM     16  C   UNL     1       6.217   7.213  17.174  0.00  0.00    +0.000 C 
ATOM     17  S   UNL     1       4.598   6.807  16.468  0.00  0.00    +0.000 S 
ENDBRANCH   1  17
BRANCH   2  18
ATOM     18  C   UNL     1       5.235   3.827  16.610  0.00  0.00    +0.000 C 
ATOM     19  N   UNL     1       5.997   3.368  15.717  0.00  0.00    +0.000 NA
ENDBRANCH   2  18
TORSDOF 3
ENDMDL
MODEL 7
REMARK VINA RESULT:      -5.2      2.810      4.754
REMARK  Name = 
REMARK  5 active torsions:
REMARK  status: ('A' for Active; 'I' for Inactive)
REMARK    1  A    between atoms: C_1  and  S_2
REMARK    2  A    between atoms: S_2  and  C_3
REMARK    3  A    between atoms: C_4  and  C_5
REMARK    4  A    between atoms: N_9  and  N_10
REMARK    5  A    between atoms: C_14  and  C_15
REMARK                            x       y       z     vdW  Elec       q    Type
REMARK                         _______ _______ _______ _____ _____    ______ ____
ROOT
ATOM      1  C   UNL     1       2.732   4.964  18.443  0.00  0.00    +0.000 A 
ATOM      2  C   UNL     1       3.413   5.898  17.727  0.00  0.00    +0.000 A 
ATOM      3  C   UNL     1       4.557   5.508  16.829  0.00  0.00    +0.000 A 
ATOM      4  O   UNL     1       5.162   6.349  16.167  0.00  0.00    +0.000 OA
ATOM      5  N   UNL     1       4.892   4.142  16.796  0.00  0.00    +0.000 N 
ATOM      6  C   UNL     1       4.145   3.257  17.529  0.00  0.00    +0.000 A 
ATOM      7  N   UNL     1       4.308   1.911  17.616  0.00  0.00    +0.000 N 
ATOM      8  N   UNL     1       3.355   1.320  18.364  0.00  0.00    +0.000 NA
ATOM      9  C   UNL     1       2.585   2.337  18.790  0.00  0.00    +0.000 A 
ATOM     10  C   UNL     1       1.397   2.032  19.633  0.00  0.00    +0.000 C 
ATOM     11  C   UNL     1       3.075   3.581  18.318  0.00  0.00    +0.000 A 
ATOM     12  H   UNL     1       5.028   1.342  17.188  0.00  0.00    +0.000 HD
ENDROOT
BRANCH   5  13
ATOM     13  N   UNL     1       5.963   3.670  16.026  0.00  0.00    +0.000 N 
ATOM     14  H   UNL     1       5.625   3.632  15.055  0.00  0.00    +0.000 HD
ATOM     15  H   UNL     1       6.116   2.689  16.270  0.00  0.00    +0.000 HD
ENDBRANCH   5  13
BRANCH   1  17
ATOM     16  C   UNL     1       2.245   5.131  21.130  0.00  0.00    +0.000 C 
ATOM     17  S   UNL     1       1.430   5.392  19.532  0.00  0.00    +0.000 S 
ENDBRANCH   1  17
BRANCH   2  18
ATOM     18  C   UNL     1       3.054   7.368  17.870  0.00  0.00    +0.000 C 
ATOM     19  N   UNL     1       2.758   8.588  17.988  0.00  0.00    +0.000 NA
ENDBRANCH   2  18
TORSDOF 3
ENDMDL
MODEL 8
REMARK VINA RESULT:      -5.2      1.762      4.154
REMARK  Name = 
REMARK  5 active torsions:
REMARK  status: ('A' for Active; 'I' for Inactive)
REMARK    1  A    between atoms: C_1  and  S_2
REMARK    2  A    between atoms: S_2  and  C_3
REMARK    3  A    between atoms: C_4  and  C_5
REMARK    4  A    between atoms: N_9  and  N_10
REMARK    5  A    between atoms: C_14  and  C_15
REMARK                            x       y       z     vdW  Elec       q    Type
REMARK                         _______ _______ _______ _____ _____    ______ ____
ROOT
ATOM      1  C   UNL     1       3.933   5.221  18.139  0.00  0.00    +0.000 A 
ATOM      2  C   UNL     1       3.885   6.467  17.594  0.00  0.00    +0.000 A 
ATOM      3  C   UNL     1       3.073   7.563  18.228  0.00  0.00    +0.000 A 
ATOM      4  O   UNL     1       3.043   8.695  17.747  0.00  0.00    +0.000 OA
ATOM      5  N   UNL     1       2.353   7.221  19.388  0.00  0.00    +0.000 N 
ATOM      6  C   UNL     1       2.469   5.952  19.891  0.00  0.00    +0.000 A 
ATOM      7  N   UNL     1       1.865   5.442  20.996  0.00  0.00    +0.000 N 
ATOM      8  N   UNL     1       2.250   4.178  21.261  0.00  0.00    +0.000 NA
ATOM      9  C   UNL     1       3.102   3.871  20.266  0.00  0.00    +0.000 A 
ATOM     10  C   UNL     1       3.750   2.532  20.266  0.00  0.00    +0.000 C 
ATOM     11  C   UNL     1       3.234   4.951  19.357  0.00  0.00    +0.000 A 
ATOM     12  H   UNL     1       1.202   5.899  21.610  0.00  0.00    +0.000 HD
ENDROOT
BRANCH   5  13
ATOM     13  N   UNL     1       1.533   8.151  20.042  0.00  0.00    +0.000 N 
ATOM     14  H   UNL     1       2.045   9.043  20.032  0.00  0.00    +0.000 HD
ATOM     15  H   UNL     1       1.500   7.898  21.031  0.00  0.00    +0.000 HD
ENDBRANCH   5  13
BRANCH   1  17
ATOM     16  C   UNL     1       6.517   4.362  17.882  0.00  0.00    +0.000 C 
ATOM     17  S   UNL     1       4.830   3.913  17.398  0.00  0.00    +0.000 S 
ENDBRANCH   1  17
BRANCH   2  18
ATOM     18  C   UNL     1       4.619   6.749  16.293  0.00  0.00    +0.000 C 
ATOM     19  N   UNL     1       5.229   6.984  15.215  0.00  0.00    +0.000 NA
ENDBRANCH   2  18
TORSDOF 3
ENDMDL
MODEL 9
REMARK VINA RESULT:      -5.1      1.880      2.498
REMARK  Name = 
REMARK  5 active torsions:
REMARK  status: ('A' for Active; 'I' for Inactive)
REMARK    1  A    between atoms: C_1  and  S_2
REMARK    2  A    between atoms: S_2  and  C_3
REMARK    3  A    between atoms: C_4  and  C_5
REMARK    4  A    between atoms: N_9  and  N_10
REMARK    5  A    between atoms: C_14  and  C_15
REMARK                            x       y       z     vdW  Elec       q    Type
REMARK                         _______ _______ _______ _____ _____    ______ ____
ROOT
ATOM      1  C   UNL     1       4.348   4.797  18.524  0.00  0.00    +0.000 A 
ATOM      2  C   UNL     1       3.850   4.131  19.601  0.00  0.00    +0.000 A 
ATOM      3  C   UNL     1       2.780   4.741  20.466  0.00  0.00    +0.000 A 
ATOM      4  O   UNL     1       2.315   4.133  21.429  0.00  0.00    +0.000 OA
ATOM      5  N   UNL     1       2.350   6.035  20.116  0.00  0.00    +0.000 N 
ATOM      6  C   UNL     1       2.882   6.632  19.004  0.00  0.00    +0.000 A 
ATOM      7  N   UNL     1       2.589   7.862  18.506  0.00  0.00    +0.000 N 
ATOM      8  N   UNL     1       3.234   8.123  17.352  0.00  0.00    +0.000 NA
ATOM      9  C   UNL     1       3.987   7.029  17.134  0.00  0.00    +0.000 A 
ATOM     10  C   UNL     1       4.821   6.966  15.905  0.00  0.00    +0.000 C 
ATOM     11  C   UNL     1       3.824   6.082  18.178  0.00  0.00    +0.000 A 
ATOM     12  H   UNL     1       1.959   8.555  18.891  0.00  0.00    +0.000 HD
ENDROOT
BRANCH   5  13
ATOM     13  N   UNL     1       1.386   6.715  20.872  0.00  0.00    +0.000 N 
ATOM     14  H   UNL     1       1.851   6.995  21.746  0.00  0.00    +0.000 HD
ATOM     15  H   UNL     1       0.687   6.034  21.174  0.00  0.00    +0.000 HD
ENDBRANCH   5  13
BRANCH   1  17
ATOM     16  C   UNL     1       7.054   5.028  18.200  0.00  0.00    +0.000 C 
ATOM     17  S   UNL     1       5.626   4.135  17.528  0.00  0.00    +0.000 S 
ENDBRANCH   1  17
BRANCH   2  18
ATOM     18  C   UNL     1       4.416   2.771  19.974  0.00  0.00    +0.000 C 
ATOM     19  N   UNL     1       4.885   1.643  20.285  0.00  0.00    +0.000 NA
ENDBRANCH   2  18
TORSDOF 3
ENDMDL
