MODEL 1
REMARK VINA RESULT:      -7.4      0.000      0.000
REMARK  Name = 
REMARK  8 active torsions:
REMARK  status: ('A' for Active; 'I' for Inactive)
REMARK    1  A    between atoms: C_1  and  C_2
REMARK    2  A    between atoms: C_5  and  C_6
REMARK    3  A    between atoms: C_6  and  S_7
REMARK    4  A    between atoms: S_7  and  C_10
REMARK    5  A    between atoms: C_10  and  C_11
REMARK    6  A    between atoms: C_11  and  C_12
REMARK    7  A    between atoms: C_11  and  O_13
REMARK    8  A    between atoms: C_11  and  C_14
REMARK                            x       y       z     vdW  Elec       q    Type
REMARK                         _______ _______ _______ _____ _____    ______ ____
ROOT
ATOM      1  C   UNL     1       3.681   4.783  19.660  0.00  0.00    +0.000 C 
ENDROOT
BRANCH   1   2
ATOM      2  S   UNL     1       4.147   3.180  19.053  0.00  0.00    +0.000 S 
ATOM      3  O   UNL     1       2.888   2.462  18.914  0.00  0.00    +0.000 OA
ATOM      4  O   UNL     1       5.175   2.646  19.928  0.00  0.00    +0.000 OA
BRANCH   2   5
ATOM      5  C   UNL     1       4.833   3.399  17.406  0.00  0.00    +0.000 C 
BRANCH   5  10
ATOM      6  C   UNL     1       7.931   8.354  17.652  0.00  0.00    +0.000 C 
ATOM      7  C   UNL     1       7.161   7.069  17.559  0.00  0.00    +0.000 A 
ATOM      8  C   UNL     1       7.650   5.891  18.130  0.00  0.00    +0.000 A 
ATOM      9  C   UNL     1       6.914   4.703  18.055  0.00  0.00    +0.000 A 
ATOM     10  C   UNL     1       5.668   4.666  17.411  0.00  0.00    +0.000 A 
ATOM     11  C   UNL     1       5.183   5.848  16.834  0.00  0.00    +0.000 A 
ATOM     12  C   UNL     1       5.923   7.037  16.907  0.00  0.00    +0.000 A 
ENDBRANCH   5  10
ENDBRANCH   2   5
ENDBRANCH   1   2
BRANCH   1  13
ATOM     13  C   UNL     1       2.225   5.258  19.554  0.00  0.00    +0.000 C 
ATOM     14  C   UNL     1       1.277   4.604  20.569  0.00  0.00    +0.000 C 
BRANCH  13  15
ATOM     15  C   UNL     1       2.051   6.776  19.430  0.00  0.00    +0.000 A 
ATOM     16  C   UNL     1       2.301   7.424  18.198  0.00  0.00    +0.000 A 
ATOM     17  C   UNL     1       2.033   8.786  18.019  0.00  0.00    +0.000 A 
ATOM     18  C   UNL     1       1.512   9.533  19.068  0.00  0.00    +0.000 A 
ATOM     19 CL   UNL     1       1.157  11.201  18.851  0.00  0.00    +0.000 Cl
ATOM     20  C   UNL     1       1.258   8.925  20.293  0.00  0.00    +0.000 A 
ATOM     21  C   UNL     1       1.525   7.563  20.471  0.00  0.00    +0.000 A 
ENDBRANCH  13  15
BRANCH  13  22
ATOM     22  O   UNL     1       1.766   4.772  18.265  0.00  0.00    +0.000 OA
ATOM     23  H   UNL     1       0.939   5.232  18.034  0.00  0.00    +0.000 HD
ENDBRANCH  13  22
ENDBRANCH   1  13
TORSDOF 6
ENDMDL
MODEL 2
REMARK VINA RESULT:      -7.3      0.957      1.798
REMARK  Name = 
REMARK  8 active torsions:
REMARK  status: ('A' for Active; 'I' for Inactive)
REMARK    1  A    between atoms: C_1  and  C_2
REMARK    2  A    between atoms: C_5  and  C_6
REMARK    3  A    between atoms: C_6  and  S_7
REMARK    4  A    between atoms: S_7  and  C_10
REMARK    5  A    between atoms: C_10  and  C_11
REMARK    6  A    between atoms: C_11  and  C_12
REMARK    7  A    between atoms: C_11  and  O_13
REMARK    8  A    between atoms: C_11  and  C_14
REMARK                            x       y       z     vdW  Elec       q    Type
REMARK                         _______ _______ _______ _____ _____    ______ ____
ROOT
ATOM      1  C   UNL     1       3.654   4.169  19.091  0.00  0.00    +0.000 C 
ENDROOT
BRANCH   1   2
ATOM      2  S   UNL     1       3.427   3.101  17.690  0.00  0.00    +0.000 S 
ATOM      3  O   UNL     1       2.348   3.718  16.931  0.00  0.00    +0.000 OA
ATOM      4  O   UNL     1       3.265   1.743  18.177  0.00  0.00    +0.000 OA
BRANCH   2   5
ATOM      5  C   UNL     1       4.917   3.191  16.688  0.00  0.00    +0.000 C 
BRANCH   5  10
ATOM      6  C   UNL     1       7.736   8.225  17.652  0.00  0.00    +0.000 C 
ATOM      7  C   UNL     1       6.984   6.944  17.433  0.00  0.00    +0.000 A 
ATOM      8  C   UNL     1       5.829   6.911  16.647  0.00  0.00    +0.000 A 
ATOM      9  C   UNL     1       5.147   5.708  16.431  0.00  0.00    +0.000 A 
ATOM     10  C   UNL     1       5.607   4.507  16.993  0.00  0.00    +0.000 A 
ATOM     11  C   UNL     1       6.763   4.545  17.786  0.00  0.00    +0.000 A 
ATOM     12  C   UNL     1       7.443   5.751  18.004  0.00  0.00    +0.000 A 
ENDBRANCH   5  10
ENDBRANCH   2   5
ENDBRANCH   1   2
BRANCH   1  13
ATOM     13  C   UNL     1       2.438   4.706  19.860  0.00  0.00    +0.000 C 
ATOM     14  C   UNL     1       2.435   4.351  21.353  0.00  0.00    +0.000 C 
BRANCH  13  15
ATOM     15  C   UNL     1       2.088   6.170  19.568  0.00  0.00    +0.000 A 
ATOM     16  C   UNL     1       1.584   7.001  20.596  0.00  0.00    +0.000 A 
ATOM     17  C   UNL     1       1.373   8.370  20.393  0.00  0.00    +0.000 A 
ATOM     18  C   UNL     1       1.657   8.939  19.158  0.00  0.00    +0.000 A 
ATOM     19 CL   UNL     1       1.424  10.624  18.906  0.00  0.00    +0.000 Cl
ATOM     20  C   UNL     1       2.152   8.148  18.127  0.00  0.00    +0.000 A 
ATOM     21  C   UNL     1       2.363   6.780  18.330  0.00  0.00    +0.000 A 
ENDBRANCH  13  15
BRANCH  13  22
ATOM     22  O   UNL     1       1.301   3.986  19.314  0.00  0.00    +0.000 OA
ATOM     23  H   UNL     1       0.918   3.430  20.015  0.00  0.00    +0.000 HD
ENDBRANCH  13  22
ENDBRANCH   1  13
TORSDOF 6
ENDMDL
MODEL 3
REMARK VINA RESULT:      -7.3      0.309      1.069
REMARK  Name = 
REMARK  8 active torsions:
REMARK  status: ('A' for Active; 'I' for Inactive)
REMARK    1  A    between atoms: C_1  and  C_2
REMARK    2  A    between atoms: C_5  and  C_6
REMARK    3  A    between atoms: C_6  and  S_7
REMARK    4  A    between atoms: S_7  and  C_10
REMARK    5  A    between atoms: C_10  and  C_11
REMARK    6  A    between atoms: C_11  and  C_12
REMARK    7  A    between atoms: C_11  and  O_13
REMARK    8  A    between atoms: C_11  and  C_14
REMARK                            x       y       z     vdW  Elec       q    Type
REMARK                         _______ _______ _______ _____ _____    ______ ____
ROOT
ATOM      1  C   UNL     1       3.724   4.931  19.659  0.00  0.00    +0.000 C 
ENDROOT
BRANCH   1   2
ATOM      2  S   UNL     1       4.257   3.376  18.986  0.00  0.00    +0.000 S 
ATOM      3  O   UNL     1       3.021   2.677  18.661  0.00  0.00    +0.000 OA
ATOM      4  O   UNL     1       5.187   2.773  19.923  0.00  0.00    +0.000 OA
BRANCH   2   5
ATOM      5  C   UNL     1       5.113   3.714  17.442  0.00  0.00    +0.000 C 
BRANCH   5  10
ATOM      6  C   UNL     1       8.175   8.681  17.846  0.00  0.00    +0.000 C 
ATOM      7  C   UNL     1       7.362   7.422  17.769  0.00  0.00    +0.000 A 
ATOM      8  C   UNL     1       6.191   7.364  17.008  0.00  0.00    +0.000 A 
ATOM      9  C   UNL     1       5.451   6.178  16.926  0.00  0.00    +0.000 A 
ATOM     10  C   UNL     1       5.868   5.020  17.601  0.00  0.00    +0.000 A 
ATOM     11  C   UNL     1       7.040   5.084  18.369  0.00  0.00    +0.000 A 
ATOM     12  C   UNL     1       7.778   6.273  18.452  0.00  0.00    +0.000 A 
ENDBRANCH   5  10
ENDBRANCH   2   5
ENDBRANCH   1   2
BRANCH   1  13
ATOM     13  C   UNL     1       2.264   5.383  19.506  0.00  0.00    +0.000 C 
ATOM     14  C   UNL     1       1.292   4.693  20.473  0.00  0.00    +0.000 C 
BRANCH  13  15
ATOM     15  C   UNL     1       2.067   6.899  19.402  0.00  0.00    +0.000 A 
ATOM     16  C   UNL     1       2.313   7.568  18.180  0.00  0.00    +0.000 A 
ATOM     17  C   UNL     1       2.024   8.929  18.020  0.00  0.00    +0.000 A 
ATOM     18  C   UNL     1       1.487   9.653  19.077  0.00  0.00    +0.000 A 
ATOM     19 CL   UNL     1       1.106  11.317  18.882  0.00  0.00    +0.000 Cl
ATOM     20  C   UNL     1       1.236   9.023  20.292  0.00  0.00    +0.000 A 
ATOM     21  C   UNL     1       1.525   7.664  20.452  0.00  0.00    +0.000 A 
ENDBRANCH  13  15
BRANCH  13  22
ATOM     22  O   UNL     1       1.863   4.913  18.192  0.00  0.00    +0.000 OA
ATOM     23  H   UNL     1       2.628   4.487  17.766  0.00  0.00    +0.000 HD
ENDBRANCH  13  22
ENDBRANCH   1  13
TORSDOF 6
ENDMDL
MODEL 4
REMARK VINA RESULT:      -7.2      0.934      1.059
REMARK  Name = 
REMARK  8 active torsions:
REMARK  status: ('A' for Active; 'I' for Inactive)
REMARK    1  A    between atoms: C_1  and  C_2
REMARK    2  A    between atoms: C_5  and  C_6
REMARK    3  A    between atoms: C_6  and  S_7
REMARK    4  A    between atoms: S_7  and  C_10
REMARK    5  A    between atoms: C_10  and  C_11
REMARK    6  A    between atoms: C_11  and  C_12
REMARK    7  A    between atoms: C_11  and  O_13
REMARK    8  A    between atoms: C_11  and  C_14
REMARK                            x       y       z     vdW  Elec       q    Type
REMARK                         _______ _______ _______ _____ _____    ______ ____
ROOT
ATOM      1  C   UNL     1       3.663   4.286  19.041  0.00  0.00    +0.000 C 
ENDROOT
BRANCH   1   2
ATOM      2  S   UNL     1       3.378   3.181  17.680  0.00  0.00    +0.000 S 
ATOM      3  O   UNL     1       2.365   3.849  16.874  0.00  0.00    +0.000 OA
ATOM      4  O   UNL     1       3.101   1.862  18.218  0.00  0.00    +0.000 OA
BRANCH   2   5
ATOM      5  C   UNL     1       4.889   3.113  16.708  0.00  0.00    +0.000 C 
BRANCH   5  10
ATOM      6  C   UNL     1       7.602   8.202  17.684  0.00  0.00    +0.000 C 
ATOM      7  C   UNL     1       6.935   6.887  17.406  0.00  0.00    +0.000 A 
ATOM      8  C   UNL     1       7.423   5.699  17.958  0.00  0.00    +0.000 A 
ATOM      9  C   UNL     1       6.781   4.480  17.710  0.00  0.00    +0.000 A 
ATOM     10  C   UNL     1       5.632   4.421  16.905  0.00  0.00    +0.000 A 
ATOM     11  C   UNL     1       5.149   5.614  16.349  0.00  0.00    +0.000 A 
ATOM     12  C   UNL     1       5.795   6.833  16.596  0.00  0.00    +0.000 A 
ENDBRANCH   5  10
ENDBRANCH   2   5
ENDBRANCH   1   2
BRANCH   1  13
ATOM     13  C   UNL     1       2.481   4.848  19.844  0.00  0.00    +0.000 C 
ATOM     14  C   UNL     1       2.441   4.385  21.307  0.00  0.00    +0.000 C 
BRANCH  13  15
ATOM     15  C   UNL     1       2.234   6.350  19.660  0.00  0.00    +0.000 A 
ATOM     16  C   UNL     1       2.503   6.969  18.417  0.00  0.00    +0.000 A 
ATOM     17  C   UNL     1       2.172   8.309  18.180  0.00  0.00    +0.000 A 
ATOM     18  C   UNL     1       1.569   9.061  19.181  0.00  0.00    +0.000 A 
ATOM     19 CL   UNL     1       1.138  10.700  18.891  0.00  0.00    +0.000 Cl
ATOM     20  C   UNL     1       1.295   8.481  20.414  0.00  0.00    +0.000 A 
ATOM     21  C   UNL     1       1.625   7.142  20.651  0.00  0.00    +0.000 A 
ENDBRANCH  13  15
BRANCH  13  22
ATOM     22  O   UNL     1       1.302   4.249  19.242  0.00  0.00    +0.000 OA
ATOM     23  H   UNL     1       1.584   3.672  18.510  0.00  0.00    +0.000 HD
ENDBRANCH  13  22
ENDBRANCH   1  13
TORSDOF 6
ENDMDL
MODEL 5
REMARK VINA RESULT:      -7.2      0.910      1.077
REMARK  Name = 
REMARK  8 active torsions:
REMARK  status: ('A' for Active; 'I' for Inactive)
REMARK    1  A    between atoms: C_1  and  C_2
REMARK    2  A    between atoms: C_5  and  C_6
REMARK    3  A    between atoms: C_6  and  S_7
REMARK    4  A    between atoms: S_7  and  C_10
REMARK    5  A    between atoms: C_10  and  C_11
REMARK    6  A    between atoms: C_11  and  C_12
REMARK    7  A    between atoms: C_11  and  O_13
REMARK    8  A    between atoms: C_11  and  C_14
REMARK                            x       y       z     vdW  Elec       q    Type
REMARK                         _______ _______ _______ _____ _____    ______ ____
ROOT
ATOM      1  C   UNL     1       4.142   5.580  18.778  0.00  0.00    +0.000 C 
ENDROOT
BRANCH   1   2
ATOM      2  S   UNL     1       4.743   3.946  18.429  0.00  0.00    +0.000 S 
ATOM      3  O   UNL     1       3.638   3.289  17.745  0.00  0.00    +0.000 OA
ATOM      4  O   UNL     1       5.252   3.378  19.663  0.00  0.00    +0.000 OA
BRANCH   2   5
ATOM      5  C   UNL     1       6.094   4.101  17.253  0.00  0.00    +0.000 C 
BRANCH   5  10
ATOM      6  C   UNL     1       8.592   9.259  18.426  0.00  0.00    +0.000 C 
ATOM      7  C   UNL     1       7.986   7.923  18.108  0.00  0.00    +0.000 A 
ATOM      8  C   UNL     1       8.256   6.801  18.897  0.00  0.00    +0.000 A 
ATOM      9  C   UNL     1       7.670   5.564  18.605  0.00  0.00    +0.000 A 
ATOM     10  C   UNL     1       6.795   5.421  17.517  0.00  0.00    +0.000 A 
ATOM     11  C   UNL     1       6.531   6.546  16.724  0.00  0.00    +0.000 A 
ATOM     12  C   UNL     1       7.122   7.783  17.016  0.00  0.00    +0.000 A 
ENDBRANCH   5  10
ENDBRANCH   2   5
ENDBRANCH   1   2
BRANCH   1  13
ATOM     13  C   UNL     1       2.692   5.791  19.239  0.00  0.00    +0.000 C 
ATOM     14  C   UNL     1       2.321   5.016  20.511  0.00  0.00    +0.000 C 
BRANCH  13  15
ATOM     15  C   UNL     1       2.223   7.250  19.240  0.00  0.00    +0.000 A 
ATOM     16  C   UNL     1       2.291   8.022  18.057  0.00  0.00    +0.000 A 
ATOM     17  C   UNL     1       1.756   9.315  17.995  0.00  0.00    +0.000 A 
ATOM     18  C   UNL     1       1.147   9.867  19.115  0.00  0.00    +0.000 A 
ATOM     19 CL   UNL     1       0.467  11.444  19.041  0.00  0.00    +0.000 Cl
ATOM     20  C   UNL     1       1.067   9.134  20.293  0.00  0.00    +0.000 A 
ATOM     21  C   UNL     1       1.601   7.842  20.355  0.00  0.00    +0.000 A 
ENDBRANCH  13  15
BRANCH  13  22
ATOM     22  O   UNL     1       1.878   5.189  18.197  0.00  0.00    +0.000 OA
ATOM     23  H   UNL     1       1.556   4.326  18.512  0.00  0.00    +0.000 HD
ENDBRANCH  13  22
ENDBRANCH   1  13
TORSDOF 6
ENDMDL
MODEL 6
REMARK VINA RESULT:      -7.1      2.196      4.992
REMARK  Name = 
REMARK  8 active torsions:
REMARK  status: ('A' for Active; 'I' for Inactive)
REMARK    1  A    between atoms: C_1  and  C_2
REMARK    2  A    between atoms: C_5  and  C_6
REMARK    3  A    between atoms: C_6  and  S_7
REMARK    4  A    between atoms: S_7  and  C_10
REMARK    5  A    between atoms: C_10  and  C_11
REMARK    6  A    between atoms: C_11  and  C_12
REMARK    7  A    between atoms: C_11  and  O_13
REMARK    8  A    between atoms: C_11  and  C_14
REMARK                            x       y       z     vdW  Elec       q    Type
REMARK                         _______ _______ _______ _____ _____    ______ ____
ROOT
ATOM      1  C   UNL     1       3.101   2.750  19.609  0.00  0.00    +0.000 C 
ENDROOT
BRANCH   1   2
ATOM      2  S   UNL     1       1.730   3.713  20.200  0.00  0.00    +0.000 S 
ATOM      3  O   UNL     1       1.074   2.853  21.175  0.00  0.00    +0.000 OA
ATOM      4  O   UNL     1       0.979   4.184  19.051  0.00  0.00    +0.000 OA
BRANCH   2   5
ATOM      5  C   UNL     1       2.399   5.127  21.084  0.00  0.00    +0.000 C 
BRANCH   5  10
ATOM      6  C   UNL     1       1.609  10.017  17.974  0.00  0.00    +0.000 C 
ATOM      7  C   UNL     1       1.782   8.745  18.750  0.00  0.00    +0.000 A 
ATOM      8  C   UNL     1       2.484   7.662  18.214  0.00  0.00    +0.000 A 
ATOM      9  C   UNL     1       2.658   6.487  18.954  0.00  0.00    +0.000 A 
ATOM     10  C   UNL     1       2.136   6.368  20.251  0.00  0.00    +0.000 A 
ATOM     11  C   UNL     1       1.427   7.454  20.784  0.00  0.00    +0.000 A 
ATOM     12  C   UNL     1       1.251   8.629  20.040  0.00  0.00    +0.000 A 
ENDBRANCH   5  10
ENDBRANCH   2   5
ENDBRANCH   1   2
BRANCH   1  13
ATOM     13  C   UNL     1       3.598   2.915  18.165  0.00  0.00    +0.000 C 
ATOM     14  C   UNL     1       2.475   2.999  17.122  0.00  0.00    +0.000 C 
BRANCH  13  15
ATOM     15  C   UNL     1       4.698   3.966  17.980  0.00  0.00    +0.000 A 
ATOM     16  C   UNL     1       4.871   4.605  16.730  0.00  0.00    +0.000 A 
ATOM     17  C   UNL     1       5.782   5.655  16.564  0.00  0.00    +0.000 A 
ATOM     18  C   UNL     1       6.545   6.087  17.642  0.00  0.00    +0.000 A 
ATOM     19 CL   UNL     1       7.649   7.391  17.454  0.00  0.00    +0.000 Cl
ATOM     20  C   UNL     1       6.400   5.476  18.883  0.00  0.00    +0.000 A 
ATOM     21  C   UNL     1       5.489   4.427  19.049  0.00  0.00    +0.000 A 
ENDBRANCH  13  15
BRANCH  13  22
ATOM     22  O   UNL     1       4.283   1.671  17.861  0.00  0.00    +0.000 OA
ATOM     23  H   UNL     1       3.677   1.095  17.362  0.00  0.00    +0.000 HD
ENDBRANCH  13  22
ENDBRANCH   1  13
TORSDOF 6
ENDMDL
MODEL 7
REMARK VINA RESULT:      -7.1      2.094      5.439
REMARK  Name = 
REMARK  8 active torsions:
REMARK  status: ('A' for Active; 'I' for Inactive)
REMARK    1  A    between atoms: C_1  and  C_2
REMARK    2  A    between atoms: C_5  and  C_6
REMARK    3  A    between atoms: C_6  and  S_7
REMARK    4  A    between atoms: S_7  and  C_10
REMARK    5  A    between atoms: C_10  and  C_11
REMARK    6  A    between atoms: C_11  and  C_12
REMARK    7  A    between atoms: C_11  and  O_13
REMARK    8  A    between atoms: C_11  and  C_14
REMARK                            x       y       z     vdW  Elec       q    Type
REMARK                         _______ _______ _______ _____ _____    ______ ____
ROOT
ATOM      1  C   UNL     1       3.111   3.569  19.847  0.00  0.00    +0.000 C 
ENDROOT
BRANCH   1   2
ATOM      2  S   UNL     1       2.082   4.982  19.534  0.00  0.00    +0.000 S 
ATOM      3  O   UNL     1       1.076   4.942  20.587  0.00  0.00    +0.000 OA
ATOM      4  O   UNL     1       1.658   4.936  18.147  0.00  0.00    +0.000 OA
BRANCH   2   5
ATOM      5  C   UNL     1       3.082   6.453  19.794  0.00  0.00    +0.000 C 
BRANCH   5  10
ATOM      6  C   UNL     1      -0.451  10.959  18.601  0.00  0.00    +0.000 C 
ATOM      7  C   UNL     1       0.482   9.829  18.925  0.00  0.00    +0.000 A 
ATOM      8  C   UNL     1       0.560   9.305  20.218  0.00  0.00    +0.000 A 
ATOM      9  C   UNL     1       1.418   8.236  20.504  0.00  0.00    +0.000 A 
ATOM     10  C   UNL     1       2.217   7.665  19.502  0.00  0.00    +0.000 A 
ATOM     11  C   UNL     1       2.141   8.198  18.207  0.00  0.00    +0.000 A 
ATOM     12  C   UNL     1       1.283   9.269  17.923  0.00  0.00    +0.000 A 
ENDBRANCH   5  10
ENDBRANCH   2   5
ENDBRANCH   1   2
BRANCH   1  13
ATOM     13  C   UNL     1       4.169   3.139  18.820  0.00  0.00    +0.000 C 
ATOM     14  C   UNL     1       3.605   2.335  17.639  0.00  0.00    +0.000 C 
BRANCH  13  15
ATOM     15  C   UNL     1       5.152   4.241  18.409  0.00  0.00    +0.000 A 
ATOM     16  C   UNL     1       4.996   4.910  17.173  0.00  0.00    +0.000 A 
ATOM     17  C   UNL     1       5.800   6.003  16.825  0.00  0.00    +0.000 A 
ATOM     18  C   UNL     1       6.781   6.448  17.703  0.00  0.00    +0.000 A 
ATOM     19 CL   UNL     1       7.757   7.803  17.296  0.00  0.00    +0.000 Cl
ATOM     20  C   UNL     1       6.960   5.809  18.925  0.00  0.00    +0.000 A 
ATOM     21  C   UNL     1       6.156   4.717  19.272  0.00  0.00    +0.000 A 
ENDBRANCH  13  15
BRANCH  13  22
ATOM     22  O   UNL     1       5.016   2.196  19.528  0.00  0.00    +0.000 OA
ATOM     23  H   UNL     1       4.452   1.615  20.070  0.00  0.00    +0.000 HD
ENDBRANCH  13  22
ENDBRANCH   1  13
TORSDOF 6
ENDMDL
MODEL 8
REMARK VINA RESULT:      -7.1      0.948      1.473
REMARK  Name = 
REMARK  8 active torsions:
REMARK  status: ('A' for Active; 'I' for Inactive)
REMARK    1  A    between atoms: C_1  and  C_2
REMARK    2  A    between atoms: C_5  and  C_6
REMARK    3  A    between atoms: C_6  and  S_7
REMARK    4  A    between atoms: S_7  and  C_10
REMARK    5  A    between atoms: C_10  and  C_11
REMARK    6  A    between atoms: C_11  and  C_12
REMARK    7  A    between atoms: C_11  and  O_13
REMARK    8  A    between atoms: C_11  and  C_14
REMARK                            x       y       z     vdW  Elec       q    Type
REMARK                         _______ _______ _______ _____ _____    ______ ____
ROOT
ATOM      1  C   UNL     1       3.712   4.257  18.988  0.00  0.00    +0.000 C 
ENDROOT
BRANCH   1   2
ATOM      2  S   UNL     1       3.462   3.077  17.685  0.00  0.00    +0.000 S 
ATOM      3  O   UNL     1       2.398   3.650  16.872  0.00  0.00    +0.000 OA
ATOM      4  O   UNL     1       3.270   1.771  18.288  0.00  0.00    +0.000 OA
BRANCH   2   5
ATOM      5  C   UNL     1       4.955   3.047  16.683  0.00  0.00    +0.000 C 
BRANCH   5  10
ATOM      6  C   UNL     1       7.588   8.179  17.657  0.00  0.00    +0.000 C 
ATOM      7  C   UNL     1       6.942   6.853  17.379  0.00  0.00    +0.000 A 
ATOM      8  C   UNL     1       7.450   5.673  17.929  0.00  0.00    +0.000 A 
ATOM      9  C   UNL     1       6.827   4.444  17.681  0.00  0.00    +0.000 A 
ATOM     10  C   UNL     1       5.678   4.366  16.880  0.00  0.00    +0.000 A 
ATOM     11  C   UNL     1       5.174   5.552  16.325  0.00  0.00    +0.000 A 
ATOM     12  C   UNL     1       5.800   6.781  16.572  0.00  0.00    +0.000 A 
ENDBRANCH   5  10
ENDBRANCH   2   5
ENDBRANCH   1   2
BRANCH   1  13
ATOM     13  C   UNL     1       2.516   4.790  19.791  0.00  0.00    +0.000 C 
ATOM     14  C   UNL     1       2.568   4.455  21.288  0.00  0.00    +0.000 C 
BRANCH  13  15
ATOM     15  C   UNL     1       2.137   6.245  19.492  0.00  0.00    +0.000 A 
ATOM     16  C   UNL     1       1.615   7.070  20.515  0.00  0.00    +0.000 A 
ATOM     17  C   UNL     1       1.376   8.434  20.306  0.00  0.00    +0.000 A 
ATOM     18  C   UNL     1       1.651   9.003  19.068  0.00  0.00    +0.000 A 
ATOM     19 CL   UNL     1       1.384  10.681  18.809  0.00  0.00    +0.000 Cl
ATOM     20  C   UNL     1       2.162   8.216  18.042  0.00  0.00    +0.000 A 
ATOM     21  C   UNL     1       2.401   6.854  18.251  0.00  0.00    +0.000 A 
ENDBRANCH  13  15
BRANCH  13  22
ATOM     22  O   UNL     1       1.372   4.048  19.293  0.00  0.00    +0.000 OA
ATOM     23  H   UNL     1       0.716   3.967  20.009  0.00  0.00    +0.000 HD
ENDBRANCH  13  22
ENDBRANCH   1  13
TORSDOF 6
ENDMDL
MODEL 9
REMARK VINA RESULT:      -7.0      1.976      5.396
REMARK  Name = 
REMARK  8 active torsions:
REMARK  status: ('A' for Active; 'I' for Inactive)
REMARK    1  A    between atoms: C_1  and  C_2
REMARK    2  A    between atoms: C_5  and  C_6
REMARK    3  A    between atoms: C_6  and  S_7
REMARK    4  A    between atoms: S_7  and  C_10
REMARK    5  A    between atoms: C_10  and  C_11
REMARK    6  A    between atoms: C_11  and  C_12
REMARK    7  A    between atoms: C_11  and  O_13
REMARK    8  A    between atoms: C_11  and  C_14
REMARK                            x       y       z     vdW  Elec       q    Type
REMARK                         _______ _______ _______ _____ _____    ______ ____
ROOT
ATOM      1  C   UNL     1       3.840   4.482  17.088  0.00  0.00    +0.000 C 
ENDROOT
BRANCH   1   2
ATOM      2  S   UNL     1       2.868   4.414  18.573  0.00  0.00    +0.000 S 
ATOM      3  O   UNL     1       3.216   3.137  19.180  0.00  0.00    +0.000 OA
ATOM      4  O   UNL     1       1.485   4.677  18.221  0.00  0.00    +0.000 OA
BRANCH   2   5
ATOM      5  C   UNL     1       3.453   5.714  19.668  0.00  0.00    +0.000 C 
BRANCH   5  10
ATOM      6  C   UNL     1       0.524  10.679  18.675  0.00  0.00    +0.000 C 
ATOM      7  C   UNL     1       1.247   9.385  18.908  0.00  0.00    +0.000 A 
ATOM      8  C   UNL     1       2.025   8.800  17.905  0.00  0.00    +0.000 A 
ATOM      9  C   UNL     1       2.712   7.604  18.140  0.00  0.00    +0.000 A 
ATOM     10  C   UNL     1       2.640   6.964  19.387  0.00  0.00    +0.000 A 
ATOM     11  C   UNL     1       1.853   7.550  20.390  0.00  0.00    +0.000 A 
ATOM     12  C   UNL     1       1.164   8.746  20.152  0.00  0.00    +0.000 A 
ENDBRANCH   5  10
ENDBRANCH   2   5
ENDBRANCH   1   2
BRANCH   1  13
ATOM     13  C   UNL     1       5.365   4.312  17.153  0.00  0.00    +0.000 C 
ATOM     14  C   UNL     1       5.960   3.551  15.960  0.00  0.00    +0.000 C 
BRANCH  13  15
ATOM     15  C   UNL     1       6.138   5.582  17.529  0.00  0.00    +0.000 A 
ATOM     16  C   UNL     1       7.184   5.524  18.479  0.00  0.00    +0.000 A 
ATOM     17  C   UNL     1       7.988   6.638  18.751  0.00  0.00    +0.000 A 
ATOM     18  C   UNL     1       7.762   7.835  18.083  0.00  0.00    +0.000 A 
ATOM     19 CL   UNL     1       8.759   9.200  18.392  0.00  0.00    +0.000 Cl
ATOM     20  C   UNL     1       6.739   7.923  17.145  0.00  0.00    +0.000 A 
ATOM     21  C   UNL     1       5.936   6.810  16.873  0.00  0.00    +0.000 A 
ENDBRANCH  13  15
BRANCH  13  22
ATOM     22  O   UNL     1       5.597   3.442  18.291  0.00  0.00    +0.000 OA
ATOM     23  H   UNL     1       6.446   2.982  18.165  0.00  0.00    +0.000 HD
ENDBRANCH  13  22
ENDBRANCH   1  13
TORSDOF 6
ENDMDL
