MODEL 1
REMARK VINA RESULT:      -7.2      0.000      0.000
REMARK  Name = 
REMARK  5 active torsions:
REMARK  status: ('A' for Active; 'I' for Inactive)
REMARK    1  A    between atoms: C_2  and  C_7
REMARK    2  A    between atoms: N_3  and  C_4
REMARK    3  A    between atoms: C_4  and  C_5
REMARK    4  A    between atoms: C_5  and  O_6
REMARK    5  A    between atoms: N_9  and  C_10
REMARK                            x       y       z     vdW  Elec       q    Type
REMARK                         _______ _______ _______ _____ _____    ______ ____
ROOT
ATOM      1  C   UNL     1       6.634   4.376  16.081  0.00  0.00    +0.000 C 
ATOM      2  C   UNL     1       5.137   4.645  16.317  0.00  0.00    +0.000 C 
ATOM      3  N   UNL     1       4.839   4.591  17.761  0.00  0.00    +0.000 N 
ATOM      4  C   UNL     1       5.695   5.457  18.580  0.00  0.00    +0.000 C 
ATOM      5  C   UNL     1       7.168   5.133  18.262  0.00  0.00    +0.000 C 
ATOM      6  O   UNL     1       7.460   5.272  16.856  0.00  0.00    +0.000 OA
ENDROOT
BRANCH   3   7
ATOM      7  C   UNL     1       3.795   3.860  18.274  0.00  0.00    +0.000 A 
ATOM      8  C   UNL     1       2.677   3.484  17.541  0.00  0.00    +0.000 A 
ATOM      9  N   UNL     1       1.648   2.730  17.993  0.00  0.00    +0.000 NA
ATOM     10  C   UNL     1       1.745   2.331  19.266  0.00  0.00    +0.000 A 
ATOM     11  N   UNL     1       2.749   2.620  20.100  0.00  0.00    +0.000 NA
ATOM     12  C   UNL     1       3.742   3.379  19.576  0.00  0.00    +0.000 A 
ENDBRANCH   3   7
BRANCH   1  14
ATOM     13  O   UNL     1       7.607   5.411  14.106  0.00  0.00    +0.000 OA
ATOM     14  C   UNL     1       6.920   4.510  14.579  0.00  0.00    +0.000 C 
ATOM     15  N   UNL     1       6.276   3.578  13.793  0.00  0.00    +0.000 N 
ATOM     16  H   UNL     1       5.829   2.799  14.263  0.00  0.00    +0.000 HD
BRANCH  15  17
ATOM     17  C   UNL     1       6.415   3.577  12.345  0.00  0.00    +0.000 C 
BRANCH  17  18
ATOM     18  C   UNL     1       5.468   2.588  11.663  0.00  0.00    +0.000 C 
BRANCH  18  19
ATOM     19  O   UNL     1       6.114   1.327  11.490  0.00  0.00    +0.000 OA
ATOM     20  H   UNL     1       6.544   1.122  12.338  0.00  0.00    +0.000 HD
ENDBRANCH  18  19
ENDBRANCH  17  18
ENDBRANCH  15  17
ENDBRANCH   1  14
TORSDOF 5
ENDMDL
MODEL 2
REMARK VINA RESULT:      -7.1      0.114      1.104
REMARK  Name = 
REMARK  5 active torsions:
REMARK  status: ('A' for Active; 'I' for Inactive)
REMARK    1  A    between atoms: C_2  and  C_7
REMARK    2  A    between atoms: N_3  and  C_4
REMARK    3  A    between atoms: C_4  and  C_5
REMARK    4  A    between atoms: C_5  and  O_6
REMARK    5  A    between atoms: N_9  and  C_10
REMARK                            x       y       z     vdW  Elec       q    Type
REMARK                         _______ _______ _______ _____ _____    ______ ____
ROOT
ATOM      1  C   UNL     1       6.647   4.392  16.153  0.00  0.00    +0.000 C 
ATOM      2  C   UNL     1       5.137   4.622  16.349  0.00  0.00    +0.000 C 
ATOM      3  N   UNL     1       4.803   4.569  17.785  0.00  0.00    +0.000 N 
ATOM      4  C   UNL     1       5.614   5.463  18.620  0.00  0.00    +0.000 C 
ATOM      5  C   UNL     1       7.103   5.176  18.342  0.00  0.00    +0.000 C 
ATOM      6  O   UNL     1       7.428   5.314  16.944  0.00  0.00    +0.000 OA
ENDROOT
BRANCH   3   7
ATOM      7  C   UNL     1       3.766   3.813  18.276  0.00  0.00    +0.000 A 
ATOM      8  C   UNL     1       3.770   3.211  19.528  0.00  0.00    +0.000 A 
ATOM      9  N   UNL     1       2.757   2.496  20.068  0.00  0.00    +0.000 NA
ATOM     10  C   UNL     1       1.670   2.371  19.299  0.00  0.00    +0.000 A 
ATOM     11  N   UNL     1       1.519   2.880  18.071  0.00  0.00    +0.000 NA
ATOM     12  C   UNL     1       2.576   3.583  17.599  0.00  0.00    +0.000 A 
ENDBRANCH   3   7
BRANCH   1  14
ATOM     13  O   UNL     1       7.703   5.397  14.206  0.00  0.00    +0.000 OA
ATOM     14  C   UNL     1       6.968   4.524  14.659  0.00  0.00    +0.000 C 
ATOM     15  N   UNL     1       6.300   3.626  13.852  0.00  0.00    +0.000 N 
ATOM     16  H   UNL     1       5.811   2.864  14.307  0.00  0.00    +0.000 HD
BRANCH  15  17
ATOM     17  C   UNL     1       6.468   3.629  12.408  0.00  0.00    +0.000 C 
BRANCH  17  18
ATOM     18  C   UNL     1       5.496   2.685  11.699  0.00  0.00    +0.000 C 
BRANCH  18  19
ATOM     19  O   UNL     1       6.088   1.396  11.541  0.00  0.00    +0.000 OA
ATOM     20  H   UNL     1       6.917   1.413  12.049  0.00  0.00    +0.000 HD
ENDBRANCH  18  19
ENDBRANCH  17  18
ENDBRANCH  15  17
ENDBRANCH   1  14
TORSDOF 5
ENDMDL
MODEL 3
REMARK VINA RESULT:      -6.6      1.671      2.146
REMARK  Name = 
REMARK  5 active torsions:
REMARK  status: ('A' for Active; 'I' for Inactive)
REMARK    1  A    between atoms: C_2  and  C_7
REMARK    2  A    between atoms: N_3  and  C_4
REMARK    3  A    between atoms: C_4  and  C_5
REMARK    4  A    between atoms: C_5  and  O_6
REMARK    5  A    between atoms: N_9  and  C_10
REMARK                            x       y       z     vdW  Elec       q    Type
REMARK                         _______ _______ _______ _____ _____    ______ ____
ROOT
ATOM      1  C   UNL     1       6.722   4.542  15.889  0.00  0.00    +0.000 C 
ATOM      2  C   UNL     1       5.835   5.733  16.296  0.00  0.00    +0.000 C 
ATOM      3  N   UNL     1       5.685   5.769  17.763  0.00  0.00    +0.000 N 
ATOM      4  C   UNL     1       6.958   5.748  18.494  0.00  0.00    +0.000 C 
ATOM      5  C   UNL     1       7.783   4.541  18.007  0.00  0.00    +0.000 C 
ATOM      6  O   UNL     1       7.990   4.568  16.580  0.00  0.00    +0.000 OA
ENDROOT
BRANCH   3   7
ATOM      7  C   UNL     1       4.464   5.898  18.379  0.00  0.00    +0.000 A 
ATOM      8  C   UNL     1       3.994   5.032  19.359  0.00  0.00    +0.000 A 
ATOM      9  N   UNL     1       2.820   5.146  20.021  0.00  0.00    +0.000 NA
ATOM     10  C   UNL     1       2.063   6.193  19.673  0.00  0.00    +0.000 A 
ATOM     11  N   UNL     1       2.371   7.103  18.743  0.00  0.00    +0.000 NA
ATOM     12  C   UNL     1       3.563   6.923  18.124  0.00  0.00    +0.000 A 
ENDBRANCH   3   7
BRANCH   1  14
ATOM     13  O   UNL     1       7.454   5.512  13.782  0.00  0.00    +0.000 OA
ATOM     14  C   UNL     1       6.914   4.579  14.366  0.00  0.00    +0.000 C 
ATOM     15  N   UNL     1       6.358   3.507  13.698  0.00  0.00    +0.000 N 
ATOM     16  H   UNL     1       6.038   2.724  14.256  0.00  0.00    +0.000 HD
BRANCH  15  17
ATOM     17  C   UNL     1       6.424   3.397  12.250  0.00  0.00    +0.000 C 
BRANCH  17  18
ATOM     18  C   UNL     1       5.310   2.522  11.674  0.00  0.00    +0.000 C 
BRANCH  18  19
ATOM     19  O   UNL     1       5.778   1.187  11.487  0.00  0.00    +0.000 OA
ATOM     20  H   UNL     1       6.301   0.968  12.277  0.00  0.00    +0.000 HD
ENDBRANCH  18  19
ENDBRANCH  17  18
ENDBRANCH  15  17
ENDBRANCH   1  14
TORSDOF 5
ENDMDL
MODEL 4
REMARK VINA RESULT:      -6.5      1.115      1.132
REMARK  Name = 
REMARK  5 active torsions:
REMARK  status: ('A' for Active; 'I' for Inactive)
REMARK    1  A    between atoms: C_2  and  C_7
REMARK    2  A    between atoms: N_3  and  C_4
REMARK    3  A    between atoms: C_4  and  C_5
REMARK    4  A    between atoms: C_5  and  O_6
REMARK    5  A    between atoms: N_9  and  C_10
REMARK                            x       y       z     vdW  Elec       q    Type
REMARK                         _______ _______ _______ _____ _____    ______ ____
ROOT
ATOM      1  C   UNL     1       6.368   5.130  15.916  0.00  0.00    +0.000 C 
ATOM      2  C   UNL     1       4.888   4.705  15.903  0.00  0.00    +0.000 C 
ATOM      3  N   UNL     1       4.260   5.029  17.198  0.00  0.00    +0.000 N 
ATOM      4  C   UNL     1       4.433   6.427  17.611  0.00  0.00    +0.000 C 
ATOM      5  C   UNL     1       5.936   6.767  17.574  0.00  0.00    +0.000 C 
ATOM      6  O   UNL     1       6.513   6.522  16.276  0.00  0.00    +0.000 OA
ENDROOT
BRANCH   3   7
ATOM      7  C   UNL     1       3.510   4.121  17.904  0.00  0.00    +0.000 A 
ATOM      8  C   UNL     1       2.125   4.040  17.837  0.00  0.00    +0.000 A 
ATOM      9  N   UNL     1       1.350   3.136  18.480  0.00  0.00    +0.000 NA
ATOM     10  C   UNL     1       2.008   2.260  19.248  0.00  0.00    +0.000 A 
ATOM     11  N   UNL     1       3.333   2.217  19.424  0.00  0.00    +0.000 NA
ATOM     12  C   UNL     1       4.041   3.153  18.747  0.00  0.00    +0.000 A 
ENDBRANCH   3   7
BRANCH   1  14
ATOM     13  O   UNL     1       7.995   5.377  14.125  0.00  0.00    +0.000 OA
ATOM     14  C   UNL     1       6.968   4.844  14.533  0.00  0.00    +0.000 C 
ATOM     15  N   UNL     1       6.214   3.992  13.753  0.00  0.00    +0.000 N 
ATOM     16  H   UNL     1       5.449   3.501  14.202  0.00  0.00    +0.000 HD
BRANCH  15  17
ATOM     17  C   UNL     1       6.623   3.634  12.404  0.00  0.00    +0.000 C 
BRANCH  17  18
ATOM     18  C   UNL     1       5.680   2.622  11.752  0.00  0.00    +0.000 C 
BRANCH  18  19
ATOM     19  O   UNL     1       4.384   3.193  11.581  0.00  0.00    +0.000 OA
ATOM     20  H   UNL     1       3.976   3.212  12.464  0.00  0.00    +0.000 HD
ENDBRANCH  18  19
ENDBRANCH  17  18
ENDBRANCH  15  17
ENDBRANCH   1  14
TORSDOF 5
ENDMDL
MODEL 5
REMARK VINA RESULT:      -6.5      1.234      1.352
REMARK  Name = 
REMARK  5 active torsions:
REMARK  status: ('A' for Active; 'I' for Inactive)
REMARK    1  A    between atoms: C_2  and  C_7
REMARK    2  A    between atoms: N_3  and  C_4
REMARK    3  A    between atoms: C_4  and  C_5
REMARK    4  A    between atoms: C_5  and  O_6
REMARK    5  A    between atoms: N_9  and  C_10
REMARK                            x       y       z     vdW  Elec       q    Type
REMARK                         _______ _______ _______ _____ _____    ______ ____
ROOT
ATOM      1  C   UNL     1       6.425   4.427  16.282  0.00  0.00    +0.000 C 
ATOM      2  C   UNL     1       5.235   5.090  17.002  0.00  0.00    +0.000 C 
ATOM      3  N   UNL     1       5.367   4.910  18.460  0.00  0.00    +0.000 N 
ATOM      4  C   UNL     1       6.659   5.349  19.002  0.00  0.00    +0.000 C 
ATOM      5  C   UNL     1       7.784   4.653  18.210  0.00  0.00    +0.000 C 
ATOM      6  O   UNL     1       7.686   4.910  16.794  0.00  0.00    +0.000 OA
ENDROOT
BRANCH   3   7
ATOM      7  C   UNL     1       4.336   4.453  19.245  0.00  0.00    +0.000 A 
ATOM      8  C   UNL     1       3.332   5.266  19.757  0.00  0.00    +0.000 A 
ATOM      9  N   UNL     1       2.278   4.853  20.497  0.00  0.00    +0.000 NA
ATOM     10  C   UNL     1       2.230   3.539  20.746  0.00  0.00    +0.000 A 
ATOM     11  N   UNL     1       3.124   2.634  20.333  0.00  0.00    +0.000 NA
ATOM     12  C   UNL     1       4.151   3.123  19.598  0.00  0.00    +0.000 A 
ENDBRANCH   3   7
BRANCH   1  14
ATOM     13  O   UNL     1       5.970   5.787  14.317  0.00  0.00    +0.000 OA
ATOM     14  C   UNL     1       6.291   4.695  14.777  0.00  0.00    +0.000 C 
ATOM     15  N   UNL     1       6.488   3.585  13.983  0.00  0.00    +0.000 N 
ATOM     16  H   UNL     1       6.866   2.755  14.425  0.00  0.00    +0.000 HD
BRANCH  15  17
ATOM     17  C   UNL     1       6.373   3.655  12.535  0.00  0.00    +0.000 C 
BRANCH  17  18
ATOM     18  C   UNL     1       5.268   2.752  11.986  0.00  0.00    +0.000 C 
BRANCH  18  19
ATOM     19  O   UNL     1       5.822   1.519  11.527  0.00  0.00    +0.000 OA
ATOM     20  H   UNL     1       6.620   1.364  12.061  0.00  0.00    +0.000 HD
ENDBRANCH  18  19
ENDBRANCH  17  18
ENDBRANCH  15  17
ENDBRANCH   1  14
TORSDOF 5
ENDMDL
MODEL 6
REMARK VINA RESULT:      -6.4      1.134      1.368
REMARK  Name = 
REMARK  5 active torsions:
REMARK  status: ('A' for Active; 'I' for Inactive)
REMARK    1  A    between atoms: C_2  and  C_7
REMARK    2  A    between atoms: N_3  and  C_4
REMARK    3  A    between atoms: C_4  and  C_5
REMARK    4  A    between atoms: C_5  and  O_6
REMARK    5  A    between atoms: N_9  and  C_10
REMARK                            x       y       z     vdW  Elec       q    Type
REMARK                         _______ _______ _______ _____ _____    ______ ____
ROOT
ATOM      1  C   UNL     1       6.845   4.947  15.861  0.00  0.00    +0.000 C 
ATOM      2  C   UNL     1       5.349   4.961  16.227  0.00  0.00    +0.000 C 
ATOM      3  N   UNL     1       5.187   5.235  17.667  0.00  0.00    +0.000 N 
ATOM      4  C   UNL     1       5.884   6.443  18.127  0.00  0.00    +0.000 C 
ATOM      5  C   UNL     1       7.362   6.349  17.699  0.00  0.00    +0.000 C 
ATOM      6  O   UNL     1       7.502   6.165  16.276  0.00  0.00    +0.000 OA
ENDROOT
BRANCH   3   7
ATOM      7  C   UNL     1       4.384   4.473  18.479  0.00  0.00    +0.000 A 
ATOM      8  C   UNL     1       3.692   4.972  19.576  0.00  0.00    +0.000 A 
ATOM      9  N   UNL     1       2.858   4.269  20.376  0.00  0.00    +0.000 NA
ATOM     10  C   UNL     1       2.714   2.977  20.060  0.00  0.00    +0.000 A 
ATOM     11  N   UNL     1       3.319   2.349  19.046  0.00  0.00    +0.000 NA
ATOM     12  C   UNL     1       4.138   3.119  18.290  0.00  0.00    +0.000 A 
ENDBRANCH   3   7
BRANCH   1  14
ATOM     13  O   UNL     1       7.628   5.468  13.618  0.00  0.00    +0.000 OA
ATOM     14  C   UNL     1       6.972   4.730  14.347  0.00  0.00    +0.000 C 
ATOM     15  N   UNL     1       6.223   3.680  13.859  0.00  0.00    +0.000 N 
ATOM     16  H   UNL     1       5.808   3.048  14.534  0.00  0.00    +0.000 HD
BRANCH  15  17
ATOM     17  C   UNL     1       6.207   3.351  12.442  0.00  0.00    +0.000 C 
BRANCH  17  18
ATOM     18  C   UNL     1       4.812   3.464  11.827  0.00  0.00    +0.000 C 
BRANCH  18  19
ATOM     19  O   UNL     1       4.506   2.287  11.079  0.00  0.00    +0.000 OA
ATOM     20  H   UNL     1       4.560   1.545  11.706  0.00  0.00    +0.000 HD
ENDBRANCH  18  19
ENDBRANCH  17  18
ENDBRANCH  15  17
ENDBRANCH   1  14
TORSDOF 5
ENDMDL
MODEL 7
REMARK VINA RESULT:      -6.3      1.432      1.571
REMARK  Name = 
REMARK  5 active torsions:
REMARK  status: ('A' for Active; 'I' for Inactive)
REMARK    1  A    between atoms: C_2  and  C_7
REMARK    2  A    between atoms: N_3  and  C_4
REMARK    3  A    between atoms: C_4  and  C_5
REMARK    4  A    between atoms: C_5  and  O_6
REMARK    5  A    between atoms: N_9  and  C_10
REMARK                            x       y       z     vdW  Elec       q    Type
REMARK                         _______ _______ _______ _____ _____    ______ ____
ROOT
ATOM      1  C   UNL     1       6.409   4.348  16.232  0.00  0.00    +0.000 C 
ATOM      2  C   UNL     1       5.221   4.988  16.975  0.00  0.00    +0.000 C 
ATOM      3  N   UNL     1       5.385   4.813  18.430  0.00  0.00    +0.000 N 
ATOM      4  C   UNL     1       6.679   5.278  18.945  0.00  0.00    +0.000 C 
ATOM      5  C   UNL     1       7.802   4.605  18.132  0.00  0.00    +0.000 C 
ATOM      6  O   UNL     1       7.670   4.857  16.718  0.00  0.00    +0.000 OA
ENDROOT
BRANCH   3   7
ATOM      7  C   UNL     1       4.380   4.336  19.236  0.00  0.00    +0.000 A 
ATOM      8  C   UNL     1       4.239   3.001  19.593  0.00  0.00    +0.000 A 
ATOM      9  N   UNL     1       3.292   2.495  20.416  0.00  0.00    +0.000 NA
ATOM     10  C   UNL     1       2.426   3.386  20.910  0.00  0.00    +0.000 A 
ATOM     11  N   UNL     1       2.424   4.699  20.653  0.00  0.00    +0.000 NA
ATOM     12  C   UNL     1       3.402   5.130  19.820  0.00  0.00    +0.000 A 
ENDBRANCH   3   7
BRANCH   1  14
ATOM     13  O   UNL     1       5.860   5.687  14.277  0.00  0.00    +0.000 OA
ATOM     14  C   UNL     1       6.240   4.611  14.730  0.00  0.00    +0.000 C 
ATOM     15  N   UNL     1       6.477   3.513  13.931  0.00  0.00    +0.000 N 
ATOM     16  H   UNL     1       6.902   2.701  14.365  0.00  0.00    +0.000 HD
BRANCH  15  17
ATOM     17  C   UNL     1       6.337   3.579  12.485  0.00  0.00    +0.000 C 
BRANCH  17  18
ATOM     18  C   UNL     1       5.261   2.633  11.952  0.00  0.00    +0.000 C 
BRANCH  18  19
ATOM     19  O   UNL     1       4.221   3.376  11.317  0.00  0.00    +0.000 OA
ATOM     20  H   UNL     1       3.522   2.736  11.099  0.00  0.00    +0.000 HD
ENDBRANCH  18  19
ENDBRANCH  17  18
ENDBRANCH  15  17
ENDBRANCH   1  14
TORSDOF 5
ENDMDL
MODEL 8
REMARK VINA RESULT:      -6.3      1.675      2.104
REMARK  Name = 
REMARK  5 active torsions:
REMARK  status: ('A' for Active; 'I' for Inactive)
REMARK    1  A    between atoms: C_2  and  C_7
REMARK    2  A    between atoms: N_3  and  C_4
REMARK    3  A    between atoms: C_4  and  C_5
REMARK    4  A    between atoms: C_5  and  O_6
REMARK    5  A    between atoms: N_9  and  C_10
REMARK                            x       y       z     vdW  Elec       q    Type
REMARK                         _______ _______ _______ _____ _____    ______ ____
ROOT
ATOM      1  C   UNL     1       5.433   5.386  16.899  0.00  0.00    +0.000 C 
ATOM      2  C   UNL     1       4.393   4.306  17.251  0.00  0.00    +0.000 C 
ATOM      3  N   UNL     1       3.450   4.825  18.258  0.00  0.00    +0.000 N 
ATOM      4  C   UNL     1       2.823   6.100  17.888  0.00  0.00    +0.000 C 
ATOM      5  C   UNL     1       3.934   7.108  17.534  0.00  0.00    +0.000 C 
ATOM      6  O   UNL     1       4.797   6.616  16.488  0.00  0.00    +0.000 OA
ENDROOT
BRANCH   3   7
ATOM      7  C   UNL     1       3.126   4.129  19.397  0.00  0.00    +0.000 A 
ATOM      8  C   UNL     1       1.954   4.323  20.118  0.00  0.00    +0.000 A 
ATOM      9  N   UNL     1       1.576   3.632  21.218  0.00  0.00    +0.000 NA
ATOM     10  C   UNL     1       2.433   2.690  21.627  0.00  0.00    +0.000 A 
ATOM     11  N   UNL     1       3.603   2.395  21.049  0.00  0.00    +0.000 NA
ATOM     12  C   UNL     1       3.912   3.128  19.953  0.00  0.00    +0.000 A 
ENDBRANCH   3   7
BRANCH   1  14
ATOM     13  O   UNL     1       7.576   4.844  15.884  0.00  0.00    +0.000 OA
ATOM     14  C   UNL     1       6.351   4.836  15.800  0.00  0.00    +0.000 C 
ATOM     15  N   UNL     1       5.688   4.400  14.672  0.00  0.00    +0.000 N 
ATOM     16  H   UNL     1       4.680   4.312  14.726  0.00  0.00    +0.000 HD
BRANCH  15  17
ATOM     17  C   UNL     1       6.408   3.872  13.523  0.00  0.00    +0.000 C 
BRANCH  17  18
ATOM     18  C   UNL     1       5.473   3.400  12.409  0.00  0.00    +0.000 C 
BRANCH  18  19
ATOM     19  O   UNL     1       5.923   2.151  11.884  0.00  0.00    +0.000 OA
ATOM     20  H   UNL     1       5.139   1.578  11.835  0.00  0.00    +0.000 HD
ENDBRANCH  18  19
ENDBRANCH  17  18
ENDBRANCH  15  17
ENDBRANCH   1  14
TORSDOF 5
ENDMDL
MODEL 9
REMARK VINA RESULT:      -6.2      2.811      6.545
REMARK  Name = 
REMARK  5 active torsions:
REMARK  status: ('A' for Active; 'I' for Inactive)
REMARK    1  A    between atoms: C_2  and  C_7
REMARK    2  A    between atoms: N_3  and  C_4
REMARK    3  A    between atoms: C_4  and  C_5
REMARK    4  A    between atoms: C_5  and  O_6
REMARK    5  A    between atoms: N_9  and  C_10
REMARK                            x       y       z     vdW  Elec       q    Type
REMARK                         _______ _______ _______ _____ _____    ______ ____
ROOT
ATOM      1  C   UNL     1       3.836   4.683  17.983  0.00  0.00    +0.000 C 
ATOM      2  C   UNL     1       4.576   3.737  17.019  0.00  0.00    +0.000 C 
ATOM      3  N   UNL     1       5.906   4.289  16.697  0.00  0.00    +0.000 N 
ATOM      4  C   UNL     1       6.714   4.625  17.876  0.00  0.00    +0.000 C 
ATOM      5  C   UNL     1       5.887   5.553  18.788  0.00  0.00    +0.000 C 
ATOM      6  O   UNL     1       4.626   4.961  19.160  0.00  0.00    +0.000 OA
ENDROOT
BRANCH   3   7
ATOM      7  C   UNL     1       6.371   4.393  15.409  0.00  0.00    +0.000 A 
ATOM      8  C   UNL     1       5.891   3.638  14.347  0.00  0.00    +0.000 A 
ATOM      9  N   UNL     1       6.289   3.738  13.058  0.00  0.00    +0.000 NA
ATOM     10  C   UNL     1       7.237   4.651  12.819  0.00  0.00    +0.000 A 
ATOM     11  N   UNL     1       7.806   5.443  13.735  0.00  0.00    +0.000 NA
ATOM     12  C   UNL     1       7.355   5.285  15.002  0.00  0.00    +0.000 A 
ENDBRANCH   3   7
BRANCH   1  14
ATOM     13  O   UNL     1       1.581   3.883  17.540  0.00  0.00    +0.000 OA
ATOM     14  C   UNL     1       2.489   4.044  18.350  0.00  0.00    +0.000 C 
ATOM     15  N   UNL     1       2.354   3.734  19.688  0.00  0.00    +0.000 N 
ATOM     16  H   UNL     1       3.185   3.784  20.265  0.00  0.00    +0.000 HD
BRANCH  15  17
ATOM     17  C   UNL     1       1.132   3.146  20.212  0.00  0.00    +0.000 C 
BRANCH  17  18
ATOM     18  C   UNL     1       1.291   2.637  21.646  0.00  0.00    +0.000 C 
BRANCH  18  19
ATOM     19  O   UNL     1       2.667   2.653  22.025  0.00  0.00    +0.000 OA
ATOM     20  H   UNL     1       3.066   1.858  21.633  0.00  0.00    +0.000 HD
ENDBRANCH  18  19
ENDBRANCH  17  18
ENDBRANCH  15  17
ENDBRANCH   1  14
TORSDOF 5
ENDMDL
