MODEL 1
REMARK VINA RESULT:      -7.1      0.000      0.000
REMARK  Name = 
REMARK  6 active torsions:
REMARK  status: ('A' for Active; 'I' for Inactive)
REMARK    1  A    between atoms: N_3  and  O_4
REMARK    2  A    between atoms: N_5  and  N_6
REMARK    3  A    between atoms: C_7  and  C_8
REMARK    4  A    between atoms: C_11  and  O_12
REMARK    5  A    between atoms: C_13  and  O_14
REMARK    6  A    between atoms: C_15  and  O_16
REMARK                            x       y       z     vdW  Elec       q    Type
REMARK                         _______ _______ _______ _____ _____    ______ ____
ROOT
ATOM      1  C   UNL     1       3.410   3.236  18.143  0.00  0.00    +0.000 A 
ATOM      2  C   UNL     1       2.052   3.524  17.931  0.00  0.00    +0.000 A 
ATOM      3  C   UNL     1       1.127   3.402  18.975  0.00  0.00    +0.000 A 
ATOM      4  C   UNL     1       1.567   2.987  20.226  0.00  0.00    +0.000 A 
ATOM      5  C   UNL     1       2.910   2.685  20.432  0.00  0.00    +0.000 A 
ATOM      6  C   UNL     1       3.834   2.801  19.397  0.00  0.00    +0.000 A 
ENDROOT
BRANCH   1   8
ATOM      7  N   UNL     1       5.510   4.023  17.235  0.00  0.00    +0.000 NA
ATOM      8  C   UNL     1       4.385   3.402  17.048  0.00  0.00    +0.000 C 
BRANCH   7  12
ATOM      9  O   UNL     1       7.765   5.327  14.861  0.00  0.00    +0.000 OA
ATOM     10  C   UNL     1       7.049   5.228  15.856  0.00  0.00    +0.000 C 
ATOM     11  N   UNL     1       6.918   6.234  16.781  0.00  0.00    +0.000 N 
ATOM     12  N   UNL     1       6.309   4.103  16.130  0.00  0.00    +0.000 N 
ATOM     13  H   UNL     1       6.711   5.925  17.725  0.00  0.00    +0.000 HD
ATOM     14  H   UNL     1       6.357   3.341  15.462  0.00  0.00    +0.000 HD
BRANCH  11  15
ATOM     15  O   UNL     1       7.816   7.320  16.638  0.00  0.00    +0.000 OA
ATOM     16  H   UNL     1       7.289   8.068  16.995  0.00  0.00    +0.000 HD
ENDBRANCH  11  15
ENDBRANCH   7  12
ENDBRANCH   1   8
BRANCH   4  17
ATOM     17  O   UNL     1       0.718   2.864  21.290  0.00  0.00    +0.000 OA
ATOM     18  H   UNL     1       1.081   3.378  22.033  0.00  0.00    +0.000 HD
ENDBRANCH   4  17
BRANCH   5  19
ATOM     19  O   UNL     1       3.346   2.275  21.664  0.00  0.00    +0.000 OA
ATOM     20  H   UNL     1       2.697   2.660  22.290  0.00  0.00    +0.000 HD
ENDBRANCH   5  19
BRANCH   6  21
ATOM     21  O   UNL     1       5.143   2.490  19.648  0.00  0.00    +0.000 OA
ATOM     22  H   UNL     1       5.125   1.554  19.942  0.00  0.00    +0.000 HD
ENDBRANCH   6  21
TORSDOF 6
ENDMDL
MODEL 2
REMARK VINA RESULT:      -6.8      1.378      1.999
REMARK  Name = 
REMARK  6 active torsions:
REMARK  status: ('A' for Active; 'I' for Inactive)
REMARK    1  A    between atoms: N_3  and  O_4
REMARK    2  A    between atoms: N_5  and  N_6
REMARK    3  A    between atoms: C_7  and  C_8
REMARK    4  A    between atoms: C_11  and  O_12
REMARK    5  A    between atoms: C_13  and  O_14
REMARK    6  A    between atoms: C_15  and  O_16
REMARK                            x       y       z     vdW  Elec       q    Type
REMARK                         _______ _______ _______ _____ _____    ______ ____
ROOT
ATOM      1  C   UNL     1       3.799   4.310  17.888  0.00  0.00    +0.000 A 
ATOM      2  C   UNL     1       2.426   4.439  17.623  0.00  0.00    +0.000 A 
ATOM      3  C   UNL     1       1.479   3.844  18.466  0.00  0.00    +0.000 A 
ATOM      4  C   UNL     1       1.914   3.121  19.569  0.00  0.00    +0.000 A 
ATOM      5  C   UNL     1       3.275   2.979  19.823  0.00  0.00    +0.000 A 
ATOM      6  C   UNL     1       4.221   3.563  18.986  0.00  0.00    +0.000 A 
ENDROOT
BRANCH   1   8
ATOM      7  N   UNL     1       5.848   4.341  16.601  0.00  0.00    +0.000 NA
ATOM      8  C   UNL     1       4.790   4.969  17.016  0.00  0.00    +0.000 C 
BRANCH   7  12
ATOM      9  O   UNL     1       7.708   5.349  13.782  0.00  0.00    +0.000 OA
ATOM     10  C   UNL     1       6.954   4.707  14.512  0.00  0.00    +0.000 C 
ATOM     11  N   UNL     1       6.326   3.556  14.104  0.00  0.00    +0.000 N 
ATOM     12  N   UNL     1       6.677   5.079  15.805  0.00  0.00    +0.000 N 
ATOM     13  H   UNL     1       5.436   3.370  14.554  0.00  0.00    +0.000 HD
ATOM     14  H   UNL     1       7.137   5.912  16.157  0.00  0.00    +0.000 HD
BRANCH  11  15
ATOM     15  O   UNL     1       6.428   3.257  12.724  0.00  0.00    +0.000 OA
ATOM     16  H   UNL     1       7.104   2.544  12.720  0.00  0.00    +0.000 HD
ENDBRANCH  11  15
ENDBRANCH   7  12
ENDBRANCH   1   8
BRANCH   4  17
ATOM     17  O   UNL     1       1.041   2.531  20.440  0.00  0.00    +0.000 OA
ATOM     18  H   UNL     1       1.551   1.983  21.063  0.00  0.00    +0.000 HD
ENDBRANCH   4  17
BRANCH   5  19
ATOM     19  O   UNL     1       3.706   2.264  20.910  0.00  0.00    +0.000 OA
ATOM     20  H   UNL     1       4.446   1.722  20.564  0.00  0.00    +0.000 HD
ENDBRANCH   5  19
BRANCH   6  21
ATOM     21  O   UNL     1       5.548   3.393  19.276  0.00  0.00    +0.000 OA
ATOM     22  H   UNL     1       5.603   2.500  19.678  0.00  0.00    +0.000 HD
ENDBRANCH   6  21
TORSDOF 6
ENDMDL
MODEL 3
REMARK VINA RESULT:      -6.8      1.754      2.245
REMARK  Name = 
REMARK  6 active torsions:
REMARK  status: ('A' for Active; 'I' for Inactive)
REMARK    1  A    between atoms: N_3  and  O_4
REMARK    2  A    between atoms: N_5  and  N_6
REMARK    3  A    between atoms: C_7  and  C_8
REMARK    4  A    between atoms: C_11  and  O_12
REMARK    5  A    between atoms: C_13  and  O_14
REMARK    6  A    between atoms: C_15  and  O_16
REMARK                            x       y       z     vdW  Elec       q    Type
REMARK                         _______ _______ _______ _____ _____    ______ ____
ROOT
ATOM      1  C   UNL     1       3.447   4.721  17.950  0.00  0.00    +0.000 A 
ATOM      2  C   UNL     1       2.408   3.962  17.388  0.00  0.00    +0.000 A 
ATOM      3  C   UNL     1       1.376   3.462  18.191  0.00  0.00    +0.000 A 
ATOM      4  C   UNL     1       1.393   3.723  19.555  0.00  0.00    +0.000 A 
ATOM      5  C   UNL     1       2.431   4.460  20.116  0.00  0.00    +0.000 A 
ATOM      6  C   UNL     1       3.462   4.957  19.324  0.00  0.00    +0.000 A 
ENDROOT
BRANCH   1   8
ATOM      7  N   UNL     1       5.671   4.698  16.997  0.00  0.00    +0.000 NA
ATOM      8  C   UNL     1       4.512   5.275  17.092  0.00  0.00    +0.000 C 
BRANCH   7  12
ATOM      9  O   UNL     1       7.690   5.354  14.184  0.00  0.00    +0.000 OA
ATOM     10  C   UNL     1       6.885   4.812  14.939  0.00  0.00    +0.000 C 
ATOM     11  N   UNL     1       6.243   3.640  14.624  0.00  0.00    +0.000 N 
ATOM     12  N   UNL     1       6.557   5.327  16.170  0.00  0.00    +0.000 N 
ATOM     13  H   UNL     1       5.328   3.524  15.045  0.00  0.00    +0.000 HD
ATOM     14  H   UNL     1       7.025   6.181  16.454  0.00  0.00    +0.000 HD
BRANCH  11  15
ATOM     15  O   UNL     1       6.402   3.192  13.289  0.00  0.00    +0.000 OA
ATOM     16  H   UNL     1       5.635   2.588  13.184  0.00  0.00    +0.000 HD
ENDBRANCH  11  15
ENDBRANCH   7  12
ENDBRANCH   1   8
BRANCH   4  17
ATOM     17  O   UNL     1       0.406   3.278  20.391  0.00  0.00    +0.000 OA
ATOM     18  H   UNL     1       0.633   3.541  21.301  0.00  0.00    +0.000 HD
ENDBRANCH   4  17
BRANCH   5  19
ATOM     19  O   UNL     1       2.450   4.718  21.462  0.00  0.00    +0.000 OA
ATOM     20  H   UNL     1       1.564   5.094  21.648  0.00  0.00    +0.000 HD
ENDBRANCH   5  19
BRANCH   6  21
ATOM     21  O   UNL     1       4.462   5.674  19.921  0.00  0.00    +0.000 OA
ATOM     22  H   UNL     1       4.132   6.598  19.935  0.00  0.00    +0.000 HD
ENDBRANCH   6  21
TORSDOF 6
ENDMDL
MODEL 4
REMARK VINA RESULT:      -6.7      1.246      1.272
REMARK  Name = 
REMARK  6 active torsions:
REMARK  status: ('A' for Active; 'I' for Inactive)
REMARK    1  A    between atoms: N_3  and  O_4
REMARK    2  A    between atoms: N_5  and  N_6
REMARK    3  A    between atoms: C_7  and  C_8
REMARK    4  A    between atoms: C_11  and  O_12
REMARK    5  A    between atoms: C_13  and  O_14
REMARK    6  A    between atoms: C_15  and  O_16
REMARK                            x       y       z     vdW  Elec       q    Type
REMARK                         _______ _______ _______ _____ _____    ______ ____
ROOT
ATOM      1  C   UNL     1       3.372   3.402  18.052  0.00  0.00    +0.000 A 
ATOM      2  C   UNL     1       2.495   2.306  18.051  0.00  0.00    +0.000 A 
ATOM      3  C   UNL     1       1.611   2.101  19.117  0.00  0.00    +0.000 A 
ATOM      4  C   UNL     1       1.613   2.994  20.181  0.00  0.00    +0.000 A 
ATOM      5  C   UNL     1       2.494   4.072  20.190  0.00  0.00    +0.000 A 
ATOM      6  C   UNL     1       3.378   4.279  19.135  0.00  0.00    +0.000 A 
ENDROOT
BRANCH   1   8
ATOM      7  N   UNL     1       5.515   3.977  17.085  0.00  0.00    +0.000 NA
ATOM      8  C   UNL     1       4.276   3.633  16.908  0.00  0.00    +0.000 C 
BRANCH   7  12
ATOM      9  O   UNL     1       7.600   5.492  14.682  0.00  0.00    +0.000 OA
ATOM     10  C   UNL     1       6.961   5.301  15.715  0.00  0.00    +0.000 C 
ATOM     11  N   UNL     1       6.917   6.212  16.741  0.00  0.00    +0.000 N 
ATOM     12  N   UNL     1       6.228   4.160  15.935  0.00  0.00    +0.000 N 
ATOM     13  H   UNL     1       6.778   5.814  17.664  0.00  0.00    +0.000 HD
ATOM     14  H   UNL     1       6.214   3.467  15.194  0.00  0.00    +0.000 HD
BRANCH  11  15
ATOM     15  O   UNL     1       7.817   7.301  16.635  0.00  0.00    +0.000 OA
ATOM     16  H   UNL     1       7.476   7.914  17.322  0.00  0.00    +0.000 HD
ENDBRANCH  11  15
ENDBRANCH   7  12
ENDBRANCH   1   8
BRANCH   4  17
ATOM     17  O   UNL     1       0.764   2.859  21.244  0.00  0.00    +0.000 OA
ATOM     18  H   UNL     1       0.101   2.181  21.022  0.00  0.00    +0.000 HD
ENDBRANCH   4  17
BRANCH   5  19
ATOM     19  O   UNL     1       2.499   4.954  21.239  0.00  0.00    +0.000 OA
ATOM     20  H   UNL     1       1.840   5.634  20.985  0.00  0.00    +0.000 HD
ENDBRANCH   5  19
BRANCH   6  21
ATOM     21  O   UNL     1       4.227   5.351  19.191  0.00  0.00    +0.000 OA
ATOM     22  H   UNL     1       4.058   5.846  18.361  0.00  0.00    +0.000 HD
ENDBRANCH   6  21
TORSDOF 6
ENDMDL
MODEL 5
REMARK VINA RESULT:      -6.7      2.209      2.599
REMARK  Name = 
REMARK  6 active torsions:
REMARK  status: ('A' for Active; 'I' for Inactive)
REMARK    1  A    between atoms: N_3  and  O_4
REMARK    2  A    between atoms: N_5  and  N_6
REMARK    3  A    between atoms: C_7  and  C_8
REMARK    4  A    between atoms: C_11  and  O_12
REMARK    5  A    between atoms: C_13  and  O_14
REMARK    6  A    between atoms: C_15  and  O_16
REMARK                            x       y       z     vdW  Elec       q    Type
REMARK                         _______ _______ _______ _____ _____    ______ ____
ROOT
ATOM      1  C   UNL     1       3.622   4.598  18.218  0.00  0.00    +0.000 A 
ATOM      2  C   UNL     1       2.335   5.037  17.872  0.00  0.00    +0.000 A 
ATOM      3  C   UNL     1       1.248   4.155  17.907  0.00  0.00    +0.000 A 
ATOM      4  C   UNL     1       1.458   2.836  18.287  0.00  0.00    +0.000 A 
ATOM      5  C   UNL     1       2.737   2.395  18.614  0.00  0.00    +0.000 A 
ATOM      6  C   UNL     1       3.822   3.266  18.577  0.00  0.00    +0.000 A 
ENDROOT
BRANCH   1   8
ATOM      7  N   UNL     1       5.838   5.293  17.540  0.00  0.00    +0.000 NA
ATOM      8  C   UNL     1       4.757   5.542  18.214  0.00  0.00    +0.000 C 
BRANCH   7  12
ATOM      9  O   UNL     1       8.503   7.202  18.836  0.00  0.00    +0.000 OA
ATOM     10  C   UNL     1       7.635   6.337  18.725  0.00  0.00    +0.000 C 
ATOM     11  N   UNL     1       7.414   5.378  19.682  0.00  0.00    +0.000 N 
ATOM     12  N   UNL     1       6.804   6.255  17.634  0.00  0.00    +0.000 N 
ATOM     13  H   UNL     1       7.046   4.500  19.333  0.00  0.00    +0.000 HD
ATOM     14  H   UNL     1       6.917   6.957  16.910  0.00  0.00    +0.000 HD
BRANCH  11  15
ATOM     15  O   UNL     1       8.379   5.310  20.717  0.00  0.00    +0.000 OA
ATOM     16  H   UNL     1       7.834   5.484  21.515  0.00  0.00    +0.000 HD
ENDBRANCH  11  15
ENDBRANCH   7  12
ENDBRANCH   1   8
BRANCH   4  17
ATOM     17  O   UNL     1       0.437   1.930  18.358  0.00  0.00    +0.000 OA
ATOM     18  H   UNL     1      -0.068   2.099  19.174  0.00  0.00    +0.000 HD
ENDBRANCH   4  17
BRANCH   5  19
ATOM     19  O   UNL     1       2.947   1.094  18.987  0.00  0.00    +0.000 OA
ATOM     20  H   UNL     1       2.943   0.597  18.142  0.00  0.00    +0.000 HD
ENDBRANCH   5  19
BRANCH   6  21
ATOM     21  O   UNL     1       5.061   2.785  18.904  0.00  0.00    +0.000 OA
ATOM     22  H   UNL     1       5.074   2.777  19.885  0.00  0.00    +0.000 HD
ENDBRANCH   6  21
TORSDOF 6
ENDMDL
MODEL 6
REMARK VINA RESULT:      -6.7      2.042      2.355
REMARK  Name = 
REMARK  6 active torsions:
REMARK  status: ('A' for Active; 'I' for Inactive)
REMARK    1  A    between atoms: N_3  and  O_4
REMARK    2  A    between atoms: N_5  and  N_6
REMARK    3  A    between atoms: C_7  and  C_8
REMARK    4  A    between atoms: C_11  and  O_12
REMARK    5  A    between atoms: C_13  and  O_14
REMARK    6  A    between atoms: C_15  and  O_16
REMARK                            x       y       z     vdW  Elec       q    Type
REMARK                         _______ _______ _______ _____ _____    ______ ____
ROOT
ATOM      1  C   UNL     1       3.708   4.742  17.855  0.00  0.00    +0.000 A 
ATOM      2  C   UNL     1       2.310   4.775  17.725  0.00  0.00    +0.000 A 
ATOM      3  C   UNL     1       1.538   3.652  18.046  0.00  0.00    +0.000 A 
ATOM      4  C   UNL     1       2.172   2.500  18.493  0.00  0.00    +0.000 A 
ATOM      5  C   UNL     1       3.558   2.461  18.606  0.00  0.00    +0.000 A 
ATOM      6  C   UNL     1       4.332   3.572  18.284  0.00  0.00    +0.000 A 
ENDROOT
BRANCH   1   8
ATOM      7  N   UNL     1       5.556   5.875  16.780  0.00  0.00    +0.000 NA
ATOM      8  C   UNL     1       4.512   5.941  17.549  0.00  0.00    +0.000 C 
BRANCH   7  12
ATOM      9  O   UNL     1       7.794   8.550  17.287  0.00  0.00    +0.000 OA
ATOM     10  C   UNL     1       7.207   7.478  17.431  0.00  0.00    +0.000 C 
ATOM     11  N   UNL     1       7.498   6.602  18.447  0.00  0.00    +0.000 N 
ATOM     12  N   UNL     1       6.203   7.063  16.591  0.00  0.00    +0.000 N 
ATOM     13  H   UNL     1       7.323   5.626  18.236  0.00  0.00    +0.000 HD
ATOM     14  H   UNL     1       5.939   7.690  15.838  0.00  0.00    +0.000 HD
BRANCH  11  15
ATOM     15  O   UNL     1       8.656   6.903  19.205  0.00  0.00    +0.000 OA
ATOM     16  H   UNL     1       8.311   6.876  20.124  0.00  0.00    +0.000 HD
ENDBRANCH  11  15
ENDBRANCH   7  12
ENDBRANCH   1   8
BRANCH   4  17
ATOM     17  O   UNL     1       1.475   1.376  18.839  0.00  0.00    +0.000 OA
ATOM     18  H   UNL     1       1.601   1.217  19.792  0.00  0.00    +0.000 HD
ENDBRANCH   4  17
BRANCH   5  19
ATOM     19  O   UNL     1       4.186   1.325  19.045  0.00  0.00    +0.000 OA
ATOM     20  H   UNL     1       3.900   1.237  19.979  0.00  0.00    +0.000 HD
ENDBRANCH   5  19
BRANCH   6  21
ATOM     21  O   UNL     1       5.692   3.484  18.409  0.00  0.00    +0.000 OA
ATOM     22  H   UNL     1       6.013   3.282  17.504  0.00  0.00    +0.000 HD
ENDBRANCH   6  21
TORSDOF 6
ENDMDL
MODEL 7
REMARK VINA RESULT:      -6.7      1.370      1.519
REMARK  Name = 
REMARK  6 active torsions:
REMARK  status: ('A' for Active; 'I' for Inactive)
REMARK    1  A    between atoms: N_3  and  O_4
REMARK    2  A    between atoms: N_5  and  N_6
REMARK    3  A    between atoms: C_7  and  C_8
REMARK    4  A    between atoms: C_11  and  O_12
REMARK    5  A    between atoms: C_13  and  O_14
REMARK    6  A    between atoms: C_15  and  O_16
REMARK                            x       y       z     vdW  Elec       q    Type
REMARK                         _______ _______ _______ _____ _____    ______ ____
ROOT
ATOM      1  C   UNL     1       3.091   3.882  19.058  0.00  0.00    +0.000 A 
ATOM      2  C   UNL     1       1.743   4.265  19.149  0.00  0.00    +0.000 A 
ATOM      3  C   UNL     1       0.950   3.829  20.217  0.00  0.00    +0.000 A 
ATOM      4  C   UNL     1       1.512   3.009  21.188  0.00  0.00    +0.000 A 
ATOM      5  C   UNL     1       2.843   2.617  21.090  0.00  0.00    +0.000 A 
ATOM      6  C   UNL     1       3.636   3.042  20.028  0.00  0.00    +0.000 A 
ENDROOT
BRANCH   1   8
ATOM      7  N   UNL     1       4.816   5.306  18.135  0.00  0.00    +0.000 NA
ATOM      8  C   UNL     1       3.931   4.375  17.949  0.00  0.00    +0.000 C 
BRANCH   7  12
ATOM      9  O   UNL     1       7.471   5.595  15.834  0.00  0.00    +0.000 OA
ATOM     10  C   UNL     1       6.818   5.274  16.827  0.00  0.00    +0.000 C 
ATOM     11  N   UNL     1       7.335   4.502  17.838  0.00  0.00    +0.000 N 
ATOM     12  N   UNL     1       5.515   5.663  17.017  0.00  0.00    +0.000 N 
ATOM     13  H   UNL     1       6.656   3.936  18.336  0.00  0.00    +0.000 HD
ATOM     14  H   UNL     1       5.098   6.254  16.305  0.00  0.00    +0.000 HD
BRANCH  11  15
ATOM     15  O   UNL     1       8.600   3.919  17.581  0.00  0.00    +0.000 OA
ATOM     16  H   UNL     1       9.110   4.684  17.235  0.00  0.00    +0.000 HD
ENDBRANCH  11  15
ENDBRANCH   7  12
ENDBRANCH   1   8
BRANCH   4  17
ATOM     17  O   UNL     1       0.796   2.564  22.264  0.00  0.00    +0.000 OA
ATOM     18  H   UNL     1       0.119   3.230  22.479  0.00  0.00    +0.000 HD
ENDBRANCH   4  17
BRANCH   5  19
ATOM     19  O   UNL     1       3.399   1.807  22.045  0.00  0.00    +0.000 OA
ATOM     20  H   UNL     1       2.641   1.294  22.397  0.00  0.00    +0.000 HD
ENDBRANCH   5  19
BRANCH   6  21
ATOM     21  O   UNL     1       4.938   2.627  19.973  0.00  0.00    +0.000 OA
ATOM     22  H   UNL     1       4.895   1.654  20.084  0.00  0.00    +0.000 HD
ENDBRANCH   6  21
TORSDOF 6
ENDMDL
MODEL 8
REMARK VINA RESULT:      -6.7      1.929      2.636
REMARK  Name = 
REMARK  6 active torsions:
REMARK  status: ('A' for Active; 'I' for Inactive)
REMARK    1  A    between atoms: N_3  and  O_4
REMARK    2  A    between atoms: N_5  and  N_6
REMARK    3  A    between atoms: C_7  and  C_8
REMARK    4  A    between atoms: C_11  and  O_12
REMARK    5  A    between atoms: C_13  and  O_14
REMARK    6  A    between atoms: C_15  and  O_16
REMARK                            x       y       z     vdW  Elec       q    Type
REMARK                         _______ _______ _______ _____ _____    ______ ____
ROOT
ATOM      1  C   UNL     1       3.619   4.114  19.104  0.00  0.00    +0.000 A 
ATOM      2  C   UNL     1       3.619   3.266  17.984  0.00  0.00    +0.000 A 
ATOM      3  C   UNL     1       2.515   2.450  17.709  0.00  0.00    +0.000 A 
ATOM      4  C   UNL     1       1.418   2.484  18.560  0.00  0.00    +0.000 A 
ATOM      5  C   UNL     1       1.425   3.311  19.679  0.00  0.00    +0.000 A 
ATOM      6  C   UNL     1       2.520   4.122  19.961  0.00  0.00    +0.000 A 
ENDROOT
BRANCH   1   8
ATOM      7  N   UNL     1       5.989   4.552  19.319  0.00  0.00    +0.000 NA
ATOM      8  C   UNL     1       4.771   4.998  19.367  0.00  0.00    +0.000 C 
BRANCH   7  12
ATOM      9  O   UNL     1       8.475   6.997  18.806  0.00  0.00    +0.000 OA
ATOM     10  C   UNL     1       7.597   6.164  18.586  0.00  0.00    +0.000 C 
ATOM     11  N   UNL     1       7.187   5.833  17.319  0.00  0.00    +0.000 N 
ATOM     12  N   UNL     1       6.950   5.484  19.589  0.00  0.00    +0.000 N 
ATOM     13  H   UNL     1       6.223   5.525  17.245  0.00  0.00    +0.000 HD
ATOM     14  H   UNL     1       7.237   5.680  20.543  0.00  0.00    +0.000 HD
BRANCH  11  15
ATOM     15  O   UNL     1       7.686   6.654  16.278  0.00  0.00    +0.000 OA
ATOM     16  H   UNL     1       8.616   6.795  16.558  0.00  0.00    +0.000 HD
ENDBRANCH  11  15
ENDBRANCH   7  12
ENDBRANCH   1   8
BRANCH   4  17
ATOM     17  O   UNL     1       0.304   1.725  18.338  0.00  0.00    +0.000 OA
ATOM     18  H   UNL     1       0.422   0.868  18.787  0.00  0.00    +0.000 HD
ENDBRANCH   4  17
BRANCH   5  19
ATOM     19  O   UNL     1       0.344   3.346  20.521  0.00  0.00    +0.000 OA
ATOM     20  H   UNL     1       0.322   2.451  20.922  0.00  0.00    +0.000 HD
ENDBRANCH   5  19
BRANCH   6  21
ATOM     21  O   UNL     1       2.481   4.916  21.075  0.00  0.00    +0.000 OA
ATOM     22  H   UNL     1       1.832   4.481  21.668  0.00  0.00    +0.000 HD
ENDBRANCH   6  21
TORSDOF 6
ENDMDL
MODEL 9
REMARK VINA RESULT:      -6.6      1.770      2.297
REMARK  Name = 
REMARK  6 active torsions:
REMARK  status: ('A' for Active; 'I' for Inactive)
REMARK    1  A    between atoms: N_3  and  O_4
REMARK    2  A    between atoms: N_5  and  N_6
REMARK    3  A    between atoms: C_7  and  C_8
REMARK    4  A    between atoms: C_11  and  O_12
REMARK    5  A    between atoms: C_13  and  O_14
REMARK    6  A    between atoms: C_15  and  O_16
REMARK                            x       y       z     vdW  Elec       q    Type
REMARK                         _______ _______ _______ _____ _____    ______ ____
ROOT
ATOM      1  C   UNL     1       3.876   4.594  18.553  0.00  0.00    +0.000 A 
ATOM      2  C   UNL     1       3.205   5.457  19.434  0.00  0.00    +0.000 A 
ATOM      3  C   UNL     1       2.115   5.001  20.186  0.00  0.00    +0.000 A 
ATOM      4  C   UNL     1       1.703   3.682  20.049  0.00  0.00    +0.000 A 
ATOM      5  C   UNL     1       2.357   2.830  19.164  0.00  0.00    +0.000 A 
ATOM      6  C   UNL     1       3.437   3.279  18.410  0.00  0.00    +0.000 A 
ENDROOT
BRANCH   1   8
ATOM      7  N   UNL     1       4.985   5.256  16.507  0.00  0.00    +0.000 NA
ATOM      8  C   UNL     1       5.046   5.072  17.791  0.00  0.00    +0.000 C 
BRANCH   7  12
ATOM      9  O   UNL     1       7.776   5.406  14.360  0.00  0.00    +0.000 OA
ATOM     10  C   UNL     1       6.725   5.035  14.880  0.00  0.00    +0.000 C 
ATOM     11  N   UNL     1       6.037   3.926  14.456  0.00  0.00    +0.000 N 
ATOM     12  N   UNL     1       6.146   5.695  15.936  0.00  0.00    +0.000 N 
ATOM     13  H   UNL     1       5.033   3.960  14.604  0.00  0.00    +0.000 HD
ATOM     14  H   UNL     1       6.632   6.509  16.298  0.00  0.00    +0.000 HD
BRANCH  11  15
ATOM     15  O   UNL     1       6.494   3.343  13.249  0.00  0.00    +0.000 OA
ATOM     16  H   UNL     1       7.055   4.058  12.878  0.00  0.00    +0.000 HD
ENDBRANCH  11  15
ENDBRANCH   7  12
ENDBRANCH   1   8
BRANCH   4  17
ATOM     17  O   UNL     1       0.657   3.171  20.767  0.00  0.00    +0.000 OA
ATOM     18  H   UNL     1       0.995   2.450  21.329  0.00  0.00    +0.000 HD
ENDBRANCH   4  17
BRANCH   5  19
ATOM     19  O   UNL     1       1.950   1.529  19.026  0.00  0.00    +0.000 OA
ATOM     20  H   UNL     1       0.986   1.558  19.203  0.00  0.00    +0.000 HD
ENDBRANCH   5  19
BRANCH   6  21
ATOM     21  O   UNL     1       4.047   2.405  17.551  0.00  0.00    +0.000 OA
ATOM     22  H   UNL     1       3.878   1.519  17.936  0.00  0.00    +0.000 HD
ENDBRANCH   6  21
TORSDOF 6
ENDMDL
