MODEL 1
REMARK VINA RESULT:      -6.1      0.000      0.000
REMARK  Name = 
REMARK  12 active torsions:
REMARK  status: ('A' for Active; 'I' for Inactive)
REMARK    1  A    between atoms: N_1  and  CA_2
REMARK    2  A    between atoms: CA_2  and  C_3
REMARK    3  A    between atoms: CA_2  and  C_20
REMARK    4  A    between atoms: C_3  and  C_4
REMARK    5  A    between atoms: C_4  and  C_5
REMARK    6  A    between atoms: C_5  and  O_6
REMARK    7  A    between atoms: O_6  and  C_7
REMARK    8  A    between atoms: N_9  and  O_10
REMARK    9  A    between atoms: O_10  and  C_11
REMARK   10  A    between atoms: C_11  and  O_13
REMARK   11  A    between atoms: O_13  and  C_14
REMARK   12  A    between atoms: C_20  and  OXT_22
REMARK                            x       y       z     vdW  Elec       q    Type
REMARK                         _______ _______ _______ _____ _____    ______ ____
ROOT
ATOM      1  C   UNL     1       3.073   6.360  19.032  0.00  0.00    +0.000 C 
ATOM      2  O   UNL     1       2.331   7.164  19.583  0.00  0.00    +0.000 OA
ATOM      3  N   UNL     1       3.726   6.672  17.886  0.00  0.00    +0.000 N 
ATOM      4  H   UNL     1       3.643   7.602  17.495  0.00  0.00    +0.000 HD
ENDROOT
BRANCH   1   5
ATOM      5  O   UNL     1       3.484   5.193  19.586  0.00  0.00    +0.000 OA
BRANCH   5   6
ATOM      6  C   UNL     1       2.537   4.684  20.535  0.00  0.00    +0.000 C 
BRANCH   6   7
ATOM      7  C   UNL     1       2.462   3.162  20.533  0.00  0.00    +0.000 C 
BRANCH   7   8
ATOM      8  C   UNL     1       1.423   2.690  19.507  0.00  0.00    +0.000 C 
BRANCH   8   9
ATOM      9  CA  UNL     1       2.002   2.387  18.118  0.00  0.00    +0.000 C 
BRANCH   9  10
ATOM     10  N   UNL     1       1.893   3.568  17.239  0.00  0.00    +0.000 NA
ATOM     11  H1  UNL     1       1.126   4.182  17.499  0.00  0.00    +0.000 HD
ATOM     12  H2  UNL     1       1.685   3.253  16.288  0.00  0.00    +0.000 HD
ENDBRANCH   9  10
BRANCH   9  13
ATOM     13  C   UNL     1       3.478   1.949  18.233  0.00  0.00    +0.000 C 
ATOM     14  O   UNL     1       3.870   0.886  18.685  0.00  0.00    +0.000 OA
BRANCH  13  15
ATOM     15  OXT UNL     1       4.339   2.901  17.786  0.00  0.00    +0.000 OA
ATOM     16  HXT UNL     1       5.129   2.521  17.359  0.00  0.00    +0.000 HD
ENDBRANCH  13  15
ENDBRANCH   9  13
ENDBRANCH   8   9
ENDBRANCH   7   8
ENDBRANCH   6   7
ENDBRANCH   5   6
ENDBRANCH   1   5
BRANCH   3  17
ATOM     17  O   UNL     1       4.175   5.651  17.025  0.00  0.00    +0.000 OA
BRANCH  17  18
ATOM     18  C   UNL     1       5.402   5.962  16.503  0.00  0.00    +0.000 C 
ATOM     19  O   UNL     1       5.910   7.066  16.529  0.00  0.00    +0.000 OA
BRANCH  18  20
ATOM     20  O   UNL     1       5.927   4.798  15.938  0.00  0.00    +0.000 OA
BRANCH  20  21
ATOM     21  C   UNL     1       6.302   4.684  14.583  0.00  0.00    +0.000 A 
ATOM     22  C   UNL     1       5.512   3.794  13.849  0.00  0.00    +0.000 A 
ATOM     23  C   UNL     1       5.870   3.461  12.548  0.00  0.00    +0.000 A 
ATOM     24  C   UNL     1       7.014   4.019  11.981  0.00  0.00    +0.000 A 
ATOM     25  C   UNL     1       7.770   4.949  12.699  0.00  0.00    +0.000 A 
ATOM     26  C   UNL     1       7.411   5.291  14.004  0.00  0.00    +0.000 A 
ENDBRANCH  20  21
ENDBRANCH  18  20
ENDBRANCH  17  18
ENDBRANCH   3  17
TORSDOF 12
ENDMDL
MODEL 2
REMARK VINA RESULT:      -6.0      2.117      3.010
REMARK  Name = 
REMARK  12 active torsions:
REMARK  status: ('A' for Active; 'I' for Inactive)
REMARK    1  A    between atoms: N_1  and  CA_2
REMARK    2  A    between atoms: CA_2  and  C_3
REMARK    3  A    between atoms: CA_2  and  C_20
REMARK    4  A    between atoms: C_3  and  C_4
REMARK    5  A    between atoms: C_4  and  C_5
REMARK    6  A    between atoms: C_5  and  O_6
REMARK    7  A    between atoms: O_6  and  C_7
REMARK    8  A    between atoms: N_9  and  O_10
REMARK    9  A    between atoms: O_10  and  C_11
REMARK   10  A    between atoms: C_11  and  O_13
REMARK   11  A    between atoms: O_13  and  C_14
REMARK   12  A    between atoms: C_20  and  OXT_22
REMARK                            x       y       z     vdW  Elec       q    Type
REMARK                         _______ _______ _______ _____ _____    ______ ____
ROOT
ATOM      1  C   UNL     1       3.747   5.586  19.078  0.00  0.00    +0.000 C 
ATOM      2  O   UNL     1       3.094   6.440  19.664  0.00  0.00    +0.000 OA
ATOM      3  N   UNL     1       4.671   4.836  19.725  0.00  0.00    +0.000 N 
ATOM      4  H   UNL     1       4.799   4.941  20.724  0.00  0.00    +0.000 HD
ENDROOT
BRANCH   1   5
ATOM      5  O   UNL     1       3.489   5.156  17.818  0.00  0.00    +0.000 OA
BRANCH   5   6
ATOM      6  C   UNL     1       2.155   4.648  17.685  0.00  0.00    +0.000 C 
BRANCH   6   7
ATOM      7  C   UNL     1       2.117   3.137  17.490  0.00  0.00    +0.000 C 
BRANCH   7   8
ATOM      8  C   UNL     1       1.302   2.484  18.614  0.00  0.00    +0.000 C 
BRANCH   8   9
ATOM      9  CA  UNL     1       2.140   2.032  19.819  0.00  0.00    +0.000 C 
BRANCH   9  10
ATOM     10  N   UNL     1       3.575   2.000  19.472  0.00  0.00    +0.000 NA
ATOM     11  H1  UNL     1       3.911   2.889  19.111  0.00  0.00    +0.000 HD
ATOM     12  H2  UNL     1       3.716   1.323  18.718  0.00  0.00    +0.000 HD
ENDBRANCH   9  10
BRANCH   9  13
ATOM     13  C   UNL     1       1.908   2.971  21.021  0.00  0.00    +0.000 C 
ATOM     14  O   UNL     1       1.193   3.960  21.023  0.00  0.00    +0.000 OA
BRANCH  13  15
ATOM     15  OXT UNL     1       2.617   2.596  22.118  0.00  0.00    +0.000 OA
ATOM     16  HXT UNL     1       3.565   2.813  22.045  0.00  0.00    +0.000 HD
ENDBRANCH  13  15
ENDBRANCH   9  13
ENDBRANCH   8   9
ENDBRANCH   7   8
ENDBRANCH   6   7
ENDBRANCH   5   6
ENDBRANCH   1   5
BRANCH   3  17
ATOM     17  O   UNL     1       5.717   4.222  19.007  0.00  0.00    +0.000 OA
BRANCH  17  18
ATOM     18  C   UNL     1       6.876   4.940  19.129  0.00  0.00    +0.000 C 
ATOM     19  O   UNL     1       7.228   5.528  20.132  0.00  0.00    +0.000 OA
BRANCH  18  20
ATOM     20  O   UNL     1       7.543   4.876  17.903  0.00  0.00    +0.000 OA
BRANCH  20  21
ATOM     21  C   UNL     1       6.895   4.963  16.652  0.00  0.00    +0.000 A 
ATOM     22  C   UNL     1       6.247   6.182  16.433  0.00  0.00    +0.000 A 
ATOM     23  C   UNL     1       5.434   6.344  15.318  0.00  0.00    +0.000 A 
ATOM     24  C   UNL     1       5.273   5.288  14.421  0.00  0.00    +0.000 A 
ATOM     25  C   UNL     1       5.965   4.091  14.616  0.00  0.00    +0.000 A 
ATOM     26  C   UNL     1       6.787   3.926  15.732  0.00  0.00    +0.000 A 
ENDBRANCH  20  21
ENDBRANCH  18  20
ENDBRANCH  17  18
ENDBRANCH   3  17
TORSDOF 12
ENDMDL
MODEL 3
REMARK VINA RESULT:      -6.0      1.792      2.561
REMARK  Name = 
REMARK  12 active torsions:
REMARK  status: ('A' for Active; 'I' for Inactive)
REMARK    1  A    between atoms: N_1  and  CA_2
REMARK    2  A    between atoms: CA_2  and  C_3
REMARK    3  A    between atoms: CA_2  and  C_20
REMARK    4  A    between atoms: C_3  and  C_4
REMARK    5  A    between atoms: C_4  and  C_5
REMARK    6  A    between atoms: C_5  and  O_6
REMARK    7  A    between atoms: O_6  and  C_7
REMARK    8  A    between atoms: N_9  and  O_10
REMARK    9  A    between atoms: O_10  and  C_11
REMARK   10  A    between atoms: C_11  and  O_13
REMARK   11  A    between atoms: O_13  and  C_14
REMARK   12  A    between atoms: C_20  and  OXT_22
REMARK                            x       y       z     vdW  Elec       q    Type
REMARK                         _______ _______ _______ _____ _____    ______ ____
ROOT
ATOM      1  C   UNL     1       4.657   6.866  17.136  0.00  0.00    +0.000 C 
ATOM      2  O   UNL     1       4.013   7.407  16.246  0.00  0.00    +0.000 OA
ATOM      3  N   UNL     1       6.008   6.953  17.184  0.00  0.00    +0.000 N 
ATOM      4  H   UNL     1       6.503   7.515  16.503  0.00  0.00    +0.000 HD
ENDROOT
BRANCH   1   5
ATOM      5  O   UNL     1       4.112   6.319  18.251  0.00  0.00    +0.000 OA
BRANCH   5   6
ATOM      6  C   UNL     1       2.694   6.147  18.129  0.00  0.00    +0.000 C 
BRANCH   6   7
ATOM      7  C   UNL     1       2.295   4.692  17.906  0.00  0.00    +0.000 C 
BRANCH   7   8
ATOM      8  C   UNL     1       3.473   3.913  17.305  0.00  0.00    +0.000 C 
BRANCH   8   9
ATOM      9  CA  UNL     1       4.112   2.900  18.265  0.00  0.00    +0.000 C 
BRANCH   9  10
ATOM     10  N   UNL     1       5.209   3.526  19.030  0.00  0.00    +0.000 NA
ATOM     11  H1  UNL     1       4.873   4.097  19.801  0.00  0.00    +0.000 HD
ATOM     12  H2  UNL     1       5.716   4.165  18.413  0.00  0.00    +0.000 HD
ENDBRANCH   9  10
BRANCH   9  13
ATOM     13  C   UNL     1       3.052   2.330  19.232  0.00  0.00    +0.000 C 
ATOM     14  O   UNL     1       2.942   2.616  20.413  0.00  0.00    +0.000 OA
BRANCH  13  15
ATOM     15  OXT UNL     1       2.232   1.429  18.632  0.00  0.00    +0.000 OA
ATOM     16  HXT UNL     1       2.689   0.597  18.406  0.00  0.00    +0.000 HD
ENDBRANCH  13  15
ENDBRANCH   9  13
ENDBRANCH   8   9
ENDBRANCH   7   8
ENDBRANCH   6   7
ENDBRANCH   5   6
ENDBRANCH   1   5
BRANCH   3  17
ATOM     17  O   UNL     1       6.758   5.986  17.884  0.00  0.00    +0.000 OA
BRANCH  17  18
ATOM     18  C   UNL     1       7.440   5.180  17.014  0.00  0.00    +0.000 C 
ATOM     19  O   UNL     1       8.064   4.186  17.329  0.00  0.00    +0.000 OA
BRANCH  18  20
ATOM     20  O   UNL     1       7.295   5.722  15.734  0.00  0.00    +0.000 OA
BRANCH  20  21
ATOM     21  C   UNL     1       6.987   4.958  14.589  0.00  0.00    +0.000 A 
ATOM     22  C   UNL     1       7.775   5.263  13.476  0.00  0.00    +0.000 A 
ATOM     23  C   UNL     1       7.471   4.706  12.238  0.00  0.00    +0.000 A 
ATOM     24  C   UNL     1       6.383   3.842  12.118  0.00  0.00    +0.000 A 
ATOM     25  C   UNL     1       5.633   3.498  13.244  0.00  0.00    +0.000 A 
ATOM     26  C   UNL     1       5.937   4.051  14.489  0.00  0.00    +0.000 A 
ENDBRANCH  20  21
ENDBRANCH  18  20
ENDBRANCH  17  18
ENDBRANCH   3  17
TORSDOF 12
ENDMDL
MODEL 4
REMARK VINA RESULT:      -6.0      2.071      3.030
REMARK  Name = 
REMARK  12 active torsions:
REMARK  status: ('A' for Active; 'I' for Inactive)
REMARK    1  A    between atoms: N_1  and  CA_2
REMARK    2  A    between atoms: CA_2  and  C_3
REMARK    3  A    between atoms: CA_2  and  C_20
REMARK    4  A    between atoms: C_3  and  C_4
REMARK    5  A    between atoms: C_4  and  C_5
REMARK    6  A    between atoms: C_5  and  O_6
REMARK    7  A    between atoms: O_6  and  C_7
REMARK    8  A    between atoms: N_9  and  O_10
REMARK    9  A    between atoms: O_10  and  C_11
REMARK   10  A    between atoms: C_11  and  O_13
REMARK   11  A    between atoms: O_13  and  C_14
REMARK   12  A    between atoms: C_20  and  OXT_22
REMARK                            x       y       z     vdW  Elec       q    Type
REMARK                         _______ _______ _______ _____ _____    ______ ____
ROOT
ATOM      1  C   UNL     1       6.986   5.728  19.168  0.00  0.00    +0.000 C 
ATOM      2  O   UNL     1       7.651   5.270  20.088  0.00  0.00    +0.000 OA
ATOM      3  N   UNL     1       7.573   6.287  18.082  0.00  0.00    +0.000 N 
ATOM      4  H   UNL     1       8.582   6.288  17.997  0.00  0.00    +0.000 HD
ENDROOT
BRANCH   1   5
ATOM      5  O   UNL     1       5.649   5.549  19.026  0.00  0.00    +0.000 OA
BRANCH   5   6
ATOM      6  C   UNL     1       5.317   4.187  18.726  0.00  0.00    +0.000 C 
BRANCH   6   7
ATOM      7  C   UNL     1       4.087   4.065  17.833  0.00  0.00    +0.000 C 
BRANCH   7   8
ATOM      8  C   UNL     1       3.063   5.147  18.203  0.00  0.00    +0.000 C 
BRANCH   8   9
ATOM      9  CA  UNL     1       1.663   4.605  18.523  0.00  0.00    +0.000 C 
BRANCH   9  10
ATOM     10  N   UNL     1       1.399   3.364  17.768  0.00  0.00    +0.000 NA
ATOM     11  H1  UNL     1       0.510   3.385  17.277  0.00  0.00    +0.000 HD
ATOM     12  H2  UNL     1       1.333   2.585  18.428  0.00  0.00    +0.000 HD
ENDBRANCH   9  10
BRANCH   9  13
ATOM     13  C   UNL     1       1.519   4.342  20.037  0.00  0.00    +0.000 C 
ATOM     14  O   UNL     1       2.252   4.783  20.908  0.00  0.00    +0.000 OA
BRANCH  13  15
ATOM     15  OXT UNL     1       0.473   3.525  20.326  0.00  0.00    +0.000 OA
ATOM     16  HXT UNL     1       0.427   3.293  21.272  0.00  0.00    +0.000 HD
ENDBRANCH  13  15
ENDBRANCH   9  13
ENDBRANCH   8   9
ENDBRANCH   7   8
ENDBRANCH   6   7
ENDBRANCH   5   6
ENDBRANCH   1   5
BRANCH   3  17
ATOM     17  O   UNL     1       6.862   7.206  17.284  0.00  0.00    +0.000 OA
BRANCH  17  18
ATOM     18  C   UNL     1       6.306   6.579  16.202  0.00  0.00    +0.000 C 
ATOM     19  O   UNL     1       5.171   6.753  15.803  0.00  0.00    +0.000 OA
BRANCH  18  20
ATOM     20  O   UNL     1       7.268   5.714  15.675  0.00  0.00    +0.000 OA
BRANCH  20  21
ATOM     21  C   UNL     1       7.076   4.944  14.508  0.00  0.00    +0.000 A 
ATOM     22  C   UNL     1       7.824   5.383  13.411  0.00  0.00    +0.000 A 
ATOM     23  C   UNL     1       7.609   4.822  12.157  0.00  0.00    +0.000 A 
ATOM     24  C   UNL     1       6.651   3.822  12.003  0.00  0.00    +0.000 A 
ATOM     25  C   UNL     1       5.945   3.349  13.112  0.00  0.00    +0.000 A 
ATOM     26  C   UNL     1       6.161   3.906  14.374  0.00  0.00    +0.000 A 
ENDBRANCH  20  21
ENDBRANCH  18  20
ENDBRANCH  17  18
ENDBRANCH   3  17
TORSDOF 12
ENDMDL
MODEL 5
REMARK VINA RESULT:      -6.0      1.837      2.448
REMARK  Name = 
REMARK  12 active torsions:
REMARK  status: ('A' for Active; 'I' for Inactive)
REMARK    1  A    between atoms: N_1  and  CA_2
REMARK    2  A    between atoms: CA_2  and  C_3
REMARK    3  A    between atoms: CA_2  and  C_20
REMARK    4  A    between atoms: C_3  and  C_4
REMARK    5  A    between atoms: C_4  and  C_5
REMARK    6  A    between atoms: C_5  and  O_6
REMARK    7  A    between atoms: O_6  and  C_7
REMARK    8  A    between atoms: N_9  and  O_10
REMARK    9  A    between atoms: O_10  and  C_11
REMARK   10  A    between atoms: C_11  and  O_13
REMARK   11  A    between atoms: O_13  and  C_14
REMARK   12  A    between atoms: C_20  and  OXT_22
REMARK                            x       y       z     vdW  Elec       q    Type
REMARK                         _______ _______ _______ _____ _____    ______ ____
ROOT
ATOM      1  C   UNL     1       2.131   5.731  20.088  0.00  0.00    +0.000 C 
ATOM      2  O   UNL     1       1.751   6.116  21.187  0.00  0.00    +0.000 OA
ATOM      3  N   UNL     1       3.363   6.042  19.618  0.00  0.00    +0.000 N 
ATOM      4  H   UNL     1       4.010   6.562  20.199  0.00  0.00    +0.000 HD
ENDROOT
BRANCH   1   5
ATOM      5  O   UNL     1       1.481   4.812  19.332  0.00  0.00    +0.000 OA
BRANCH   5   6
ATOM      6  C   UNL     1       0.917   3.761  20.127  0.00  0.00    +0.000 C 
BRANCH   6   7
ATOM      7  C   UNL     1       1.932   2.678  20.475  0.00  0.00    +0.000 C 
BRANCH   7   8
ATOM      8  C   UNL     1       2.249   1.839  19.230  0.00  0.00    +0.000 C 
BRANCH   8   9
ATOM      9  CA  UNL     1       3.615   2.144  18.597  0.00  0.00    +0.000 C 
BRANCH   9  10
ATOM     10  N   UNL     1       3.512   3.280  17.659  0.00  0.00    +0.000 NA
ATOM     11  H1  UNL     1       3.166   3.004  16.745  0.00  0.00    +0.000 HD
ATOM     12  H2  UNL     1       4.449   3.658  17.498  0.00  0.00    +0.000 HD
ENDBRANCH   9  10
BRANCH   9  13
ATOM     13  C   UNL     1       4.659   2.455  19.690  0.00  0.00    +0.000 C 
ATOM     14  O   UNL     1       4.998   1.697  20.585  0.00  0.00    +0.000 OA
BRANCH  13  15
ATOM     15  OXT UNL     1       5.174   3.707  19.576  0.00  0.00    +0.000 OA
ATOM     16  HXT UNL     1       5.033   4.246  20.377  0.00  0.00    +0.000 HD
ENDBRANCH  13  15
ENDBRANCH   9  13
ENDBRANCH   8   9
ENDBRANCH   7   8
ENDBRANCH   6   7
ENDBRANCH   5   6
ENDBRANCH   1   5
BRANCH   3  17
ATOM     17  O   UNL     1       3.621   6.022  18.233  0.00  0.00    +0.000 OA
BRANCH  17  18
ATOM     18  C   UNL     1       3.644   7.292  17.725  0.00  0.00    +0.000 C 
ATOM     19  O   UNL     1       2.761   8.115  17.866  0.00  0.00    +0.000 OA
BRANCH  18  20
ATOM     20  O   UNL     1       4.841   7.443  17.021  0.00  0.00    +0.000 OA
BRANCH  20  21
ATOM     21  C   UNL     1       5.622   6.362  16.560  0.00  0.00    +0.000 A 
ATOM     22  C   UNL     1       5.226   5.869  15.313  0.00  0.00    +0.000 A 
ATOM     23  C   UNL     1       5.799   4.704  14.815  0.00  0.00    +0.000 A 
ATOM     24  C   UNL     1       6.769   4.037  15.562  0.00  0.00    +0.000 A 
ATOM     25  C   UNL     1       7.200   4.563  16.782  0.00  0.00    +0.000 A 
ATOM     26  C   UNL     1       6.631   5.736  17.283  0.00  0.00    +0.000 A 
ENDBRANCH  20  21
ENDBRANCH  18  20
ENDBRANCH  17  18
ENDBRANCH   3  17
TORSDOF 12
ENDMDL
MODEL 6
REMARK VINA RESULT:      -5.9      2.734      6.215
REMARK  Name = 
REMARK  12 active torsions:
REMARK  status: ('A' for Active; 'I' for Inactive)
REMARK    1  A    between atoms: N_1  and  CA_2
REMARK    2  A    between atoms: CA_2  and  C_3
REMARK    3  A    between atoms: CA_2  and  C_20
REMARK    4  A    between atoms: C_3  and  C_4
REMARK    5  A    between atoms: C_4  and  C_5
REMARK    6  A    between atoms: C_5  and  O_6
REMARK    7  A    between atoms: O_6  and  C_7
REMARK    8  A    between atoms: N_9  and  O_10
REMARK    9  A    between atoms: O_10  and  C_11
REMARK   10  A    between atoms: C_11  and  O_13
REMARK   11  A    between atoms: O_13  and  C_14
REMARK   12  A    between atoms: C_20  and  OXT_22
REMARK                            x       y       z     vdW  Elec       q    Type
REMARK                         _______ _______ _______ _____ _____    ______ ____
ROOT
ATOM      1  C   UNL     1       0.638   2.930  18.714  0.00  0.00    +0.000 C 
ATOM      2  O   UNL     1       0.210   1.814  18.449  0.00  0.00    +0.000 OA
ATOM      3  N   UNL     1       0.651   3.398  19.985  0.00  0.00    +0.000 N 
ATOM      4  H   UNL     1       0.349   2.803  20.746  0.00  0.00    +0.000 HD
ENDROOT
BRANCH   1   5
ATOM      5  O   UNL     1       1.316   3.717  17.842  0.00  0.00    +0.000 OA
BRANCH   5   6
ATOM      6  C   UNL     1       2.548   3.116  17.420  0.00  0.00    +0.000 C 
BRANCH   6   7
ATOM      7  C   UNL     1       3.769   3.765  18.061  0.00  0.00    +0.000 C 
BRANCH   7   8
ATOM      8  C   UNL     1       4.727   4.267  16.972  0.00  0.00    +0.000 C 
BRANCH   8   9
ATOM      9  CA  UNL     1       5.904   5.098  17.503  0.00  0.00    +0.000 C 
BRANCH   9  10
ATOM     10  N   UNL     1       6.975   4.219  18.011  0.00  0.00    +0.000 NA
ATOM     11  H1  UNL     1       6.772   3.845  18.934  0.00  0.00    +0.000 HD
ATOM     12  H2  UNL     1       7.830   4.771  18.118  0.00  0.00    +0.000 HD
ENDBRANCH   9  10
BRANCH   9  13
ATOM     13  C   UNL     1       6.457   6.019  16.395  0.00  0.00    +0.000 C 
ATOM     14  O   UNL     1       7.634   6.147  16.099  0.00  0.00    +0.000 OA
BRANCH  13  15
ATOM     15  OXT UNL     1       5.478   6.720  15.764  0.00  0.00    +0.000 OA
ATOM     16  HXT UNL     1       5.535   7.679  15.932  0.00  0.00    +0.000 HD
ENDBRANCH  13  15
ENDBRANCH   9  13
ENDBRANCH   8   9
ENDBRANCH   7   8
ENDBRANCH   6   7
ENDBRANCH   5   6
ENDBRANCH   1   5
BRANCH   3  17
ATOM     17  O   UNL     1       0.684   4.786  20.231  0.00  0.00    +0.000 OA
BRANCH  17  18
ATOM     18  C   UNL     1       1.785   5.122  20.969  0.00  0.00    +0.000 C 
ATOM     19  O   UNL     1       2.573   4.329  21.446  0.00  0.00    +0.000 OA
BRANCH  18  20
ATOM     20  O   UNL     1       1.813   6.515  21.076  0.00  0.00    +0.000 OA
BRANCH  20  21
ATOM     21  C   UNL     1       1.988   7.382  19.978  0.00  0.00    +0.000 A 
ATOM     22  C   UNL     1       1.278   8.582  20.085  0.00  0.00    +0.000 A 
ATOM     23  C   UNL     1       1.227   9.456  19.005  0.00  0.00    +0.000 A 
ATOM     24  C   UNL     1       1.888   9.131  17.821  0.00  0.00    +0.000 A 
ATOM     25  C   UNL     1       2.640   7.957  17.738  0.00  0.00    +0.000 A 
ATOM     26  C   UNL     1       2.698   7.079  18.822  0.00  0.00    +0.000 A 
ENDBRANCH  20  21
ENDBRANCH  18  20
ENDBRANCH  17  18
ENDBRANCH   3  17
TORSDOF 12
ENDMDL
MODEL 7
REMARK VINA RESULT:      -5.9      2.081      2.612
REMARK  Name = 
REMARK  12 active torsions:
REMARK  status: ('A' for Active; 'I' for Inactive)
REMARK    1  A    between atoms: N_1  and  CA_2
REMARK    2  A    between atoms: CA_2  and  C_3
REMARK    3  A    between atoms: CA_2  and  C_20
REMARK    4  A    between atoms: C_3  and  C_4
REMARK    5  A    between atoms: C_4  and  C_5
REMARK    6  A    between atoms: C_5  and  O_6
REMARK    7  A    between atoms: O_6  and  C_7
REMARK    8  A    between atoms: N_9  and  O_10
REMARK    9  A    between atoms: O_10  and  C_11
REMARK   10  A    between atoms: C_11  and  O_13
REMARK   11  A    between atoms: O_13  and  C_14
REMARK   12  A    between atoms: C_20  and  OXT_22
REMARK                            x       y       z     vdW  Elec       q    Type
REMARK                         _______ _______ _______ _____ _____    ______ ____
ROOT
ATOM      1  C   UNL     1       5.091   4.220  19.409  0.00  0.00    +0.000 C 
ATOM      2  O   UNL     1       4.830   3.240  20.096  0.00  0.00    +0.000 OA
ATOM      3  N   UNL     1       5.865   4.121  18.302  0.00  0.00    +0.000 N 
ATOM      4  H   UNL     1       6.200   3.215  17.999  0.00  0.00    +0.000 HD
ENDROOT
BRANCH   1   5
ATOM      5  O   UNL     1       4.493   5.430  19.542  0.00  0.00    +0.000 OA
BRANCH   5   6
ATOM      6  C   UNL     1       3.091   5.373  19.245  0.00  0.00    +0.000 C 
BRANCH   6   7
ATOM      7  C   UNL     1       2.220   5.652  20.464  0.00  0.00    +0.000 C 
BRANCH   7   8
ATOM      8  C   UNL     1       1.136   4.573  20.591  0.00  0.00    +0.000 C 
BRANCH   8   9
ATOM      9  CA  UNL     1       1.684   3.151  20.783  0.00  0.00    +0.000 C 
BRANCH   9  10
ATOM     10  N   UNL     1       1.093   2.523  21.981  0.00  0.00    +0.000 NA
ATOM     11  H1  UNL     1       1.788   2.084  22.578  0.00  0.00    +0.000 HD
ATOM     12  H2  UNL     1       0.468   1.770  21.683  0.00  0.00    +0.000 HD
ENDBRANCH   9  10
BRANCH   9  13
ATOM     13  C   UNL     1       1.394   2.288  19.537  0.00  0.00    +0.000 C 
ATOM     14  O   UNL     1       2.225   1.667  18.894  0.00  0.00    +0.000 OA
BRANCH  13  15
ATOM     15  OXT UNL     1       0.080   2.297  19.192  0.00  0.00    +0.000 OA
ATOM     16  HXT UNL     1      -0.117   2.932  18.479  0.00  0.00    +0.000 HD
ENDBRANCH  13  15
ENDBRANCH   9  13
ENDBRANCH   8   9
ENDBRANCH   7   8
ENDBRANCH   6   7
ENDBRANCH   5   6
ENDBRANCH   1   5
BRANCH   3  17
ATOM     17  O   UNL     1       6.540   5.253  17.803  0.00  0.00    +0.000 OA
BRANCH  17  18
ATOM     18  C   UNL     1       7.367   4.908  16.769  0.00  0.00    +0.000 C 
ATOM     19  O   UNL     1       8.296   4.129  16.851  0.00  0.00    +0.000 OA
BRANCH  18  20
ATOM     20  O   UNL     1       6.953   5.621  15.641  0.00  0.00    +0.000 OA
BRANCH  20  21
ATOM     21  C   UNL     1       6.733   5.033  14.378  0.00  0.00    +0.000 A 
ATOM     22  C   UNL     1       5.562   4.273  14.303  0.00  0.00    +0.000 A 
ATOM     23  C   UNL     1       5.306   3.505  13.173  0.00  0.00    +0.000 A 
ATOM     24  C   UNL     1       6.218   3.500  12.119  0.00  0.00    +0.000 A 
ATOM     25  C   UNL     1       7.360   4.303  12.176  0.00  0.00    +0.000 A 
ATOM     26  C   UNL     1       7.619   5.080  13.307  0.00  0.00    +0.000 A 
ENDBRANCH  20  21
ENDBRANCH  18  20
ENDBRANCH  17  18
ENDBRANCH   3  17
TORSDOF 12
ENDMDL
MODEL 8
REMARK VINA RESULT:      -5.9      1.850      2.641
REMARK  Name = 
REMARK  12 active torsions:
REMARK  status: ('A' for Active; 'I' for Inactive)
REMARK    1  A    between atoms: N_1  and  CA_2
REMARK    2  A    between atoms: CA_2  and  C_3
REMARK    3  A    between atoms: CA_2  and  C_20
REMARK    4  A    between atoms: C_3  and  C_4
REMARK    5  A    between atoms: C_4  and  C_5
REMARK    6  A    between atoms: C_5  and  O_6
REMARK    7  A    between atoms: O_6  and  C_7
REMARK    8  A    between atoms: N_9  and  O_10
REMARK    9  A    between atoms: O_10  and  C_11
REMARK   10  A    between atoms: C_11  and  O_13
REMARK   11  A    between atoms: O_13  and  C_14
REMARK   12  A    between atoms: C_20  and  OXT_22
REMARK                            x       y       z     vdW  Elec       q    Type
REMARK                         _______ _______ _______ _____ _____    ______ ____
ROOT
ATOM      1  C   UNL     1       4.925   3.980  18.921  0.00  0.00    +0.000 C 
ATOM      2  O   UNL     1       5.132   3.021  19.655  0.00  0.00    +0.000 OA
ATOM      3  N   UNL     1       5.889   4.460  18.099  0.00  0.00    +0.000 N 
ATOM      4  H   UNL     1       6.787   3.995  18.046  0.00  0.00    +0.000 HD
ENDROOT
BRANCH   1   5
ATOM      5  O   UNL     1       3.702   4.519  18.692  0.00  0.00    +0.000 OA
BRANCH   5   6
ATOM      6  C   UNL     1       3.325   5.452  19.714  0.00  0.00    +0.000 C 
BRANCH   6   7
ATOM      7  C   UNL     1       2.077   5.017  20.475  0.00  0.00    +0.000 C 
BRANCH   7   8
ATOM      8  C   UNL     1       1.250   4.051  19.616  0.00  0.00    +0.000 C 
BRANCH   8   9
ATOM      9  CA  UNL     1       1.337   2.584  20.058  0.00  0.00    +0.000 C 
BRANCH   9  10
ATOM     10  N   UNL     1       2.226   1.820  19.160  0.00  0.00    +0.000 NA
ATOM     11  H1  UNL     1       2.353   0.857  19.459  0.00  0.00    +0.000 HD
ATOM     12  H2  UNL     1       3.158   2.242  19.184  0.00  0.00    +0.000 HD
ENDBRANCH   9  10
BRANCH   9  13
ATOM     13  C   UNL     1       1.846   2.488  21.512  0.00  0.00    +0.000 C 
ATOM     14  O   UNL     1       3.014   2.377  21.850  0.00  0.00    +0.000 OA
BRANCH  13  15
ATOM     15  OXT UNL     1       0.836   2.519  22.420  0.00  0.00    +0.000 OA
ATOM     16  HXT UNL     1       0.588   1.630  22.737  0.00  0.00    +0.000 HD
ENDBRANCH  13  15
ENDBRANCH   9  13
ENDBRANCH   8   9
ENDBRANCH   7   8
ENDBRANCH   6   7
ENDBRANCH   5   6
ENDBRANCH   1   5
BRANCH   3  17
ATOM     17  O   UNL     1       5.827   5.789  17.633  0.00  0.00    +0.000 OA
BRANCH  17  18
ATOM     18  C   UNL     1       5.774   5.821  16.266  0.00  0.00    +0.000 C 
ATOM     19  O   UNL     1       5.222   6.683  15.610  0.00  0.00    +0.000 OA
BRANCH  18  20
ATOM     20  O   UNL     1       6.446   4.692  15.791  0.00  0.00    +0.000 OA
BRANCH  20  21
ATOM     21  C   UNL     1       6.646   4.416  14.422  0.00  0.00    +0.000 A 
ATOM     22  C   UNL     1       7.634   5.203  13.824  0.00  0.00    +0.000 A 
ATOM     23  C   UNL     1       7.821   5.153  12.448  0.00  0.00    +0.000 A 
ATOM     24  C   UNL     1       7.022   4.315  11.672  0.00  0.00    +0.000 A 
ATOM     25  C   UNL     1       6.073   3.490  12.280  0.00  0.00    +0.000 A 
ATOM     26  C   UNL     1       5.885   3.533  13.663  0.00  0.00    +0.000 A 
ENDBRANCH  20  21
ENDBRANCH  18  20
ENDBRANCH  17  18
ENDBRANCH   3  17
TORSDOF 12
ENDMDL
MODEL 9
REMARK VINA RESULT:      -5.8      2.062      6.417
REMARK  Name = 
REMARK  12 active torsions:
REMARK  status: ('A' for Active; 'I' for Inactive)
REMARK    1  A    between atoms: N_1  and  CA_2
REMARK    2  A    between atoms: CA_2  and  C_3
REMARK    3  A    between atoms: CA_2  and  C_20
REMARK    4  A    between atoms: C_3  and  C_4
REMARK    5  A    between atoms: C_4  and  C_5
REMARK    6  A    between atoms: C_5  and  O_6
REMARK    7  A    between atoms: O_6  and  C_7
REMARK    8  A    between atoms: N_9  and  O_10
REMARK    9  A    between atoms: O_10  and  C_11
REMARK   10  A    between atoms: C_11  and  O_13
REMARK   11  A    between atoms: O_13  and  C_14
REMARK   12  A    between atoms: C_20  and  OXT_22
REMARK                            x       y       z     vdW  Elec       q    Type
REMARK                         _______ _______ _______ _____ _____    ______ ____
ROOT
ATOM      1  C   UNL     1       4.122   4.524  17.050  0.00  0.00    +0.000 C 
ATOM      2  O   UNL     1       3.827   3.345  16.903  0.00  0.00    +0.000 OA
ATOM      3  N   UNL     1       4.105   5.110  18.271  0.00  0.00    +0.000 N 
ATOM      4  H   UNL     1       3.892   4.559  19.093  0.00  0.00    +0.000 HD
ENDROOT
BRANCH   1   5
ATOM      5  O   UNL     1       4.683   5.299  16.088  0.00  0.00    +0.000 OA
BRANCH   5   6
ATOM      6  C   UNL     1       5.624   4.569  15.289  0.00  0.00    +0.000 C 
BRANCH   6   7
ATOM      7  C   UNL     1       7.068   4.966  15.572  0.00  0.00    +0.000 C 
BRANCH   7   8
ATOM      8  C   UNL     1       7.437   4.607  17.017  0.00  0.00    +0.000 C 
BRANCH   8   9
ATOM      9  CA  UNL     1       7.655   5.821  17.931  0.00  0.00    +0.000 C 
BRANCH   9  10
ATOM     10  N   UNL     1       6.739   6.919  17.566  0.00  0.00    +0.000 NA
ATOM     11  H1  UNL     1       6.066   7.129  18.299  0.00  0.00    +0.000 HD
ATOM     12  H2  UNL     1       6.185   6.630  16.756  0.00  0.00    +0.000 HD
ENDBRANCH   9  10
BRANCH   9  13
ATOM     13  C   UNL     1       7.447   5.429  19.410  0.00  0.00    +0.000 C 
ATOM     14  O   UNL     1       6.383   5.116  19.918  0.00  0.00    +0.000 OA
BRANCH  13  15
ATOM     15  OXT UNL     1       8.599   5.483  20.129  0.00  0.00    +0.000 OA
ATOM     16  HXT UNL     1       8.946   6.391  20.213  0.00  0.00    +0.000 HD
ENDBRANCH  13  15
ENDBRANCH   9  13
ENDBRANCH   8   9
ENDBRANCH   7   8
ENDBRANCH   6   7
ENDBRANCH   5   6
ENDBRANCH   1   5
BRANCH   3  17
ATOM     17  O   UNL     1       3.975   6.509  18.386  0.00  0.00    +0.000 OA
BRANCH  17  18
ATOM     18  C   UNL     1       2.675   6.856  18.635  0.00  0.00    +0.000 C 
ATOM     19  O   UNL     1       1.957   7.465  17.868  0.00  0.00    +0.000 OA
BRANCH  18  20
ATOM     20  O   UNL     1       2.355   6.399  19.916  0.00  0.00    +0.000 OA
BRANCH  20  21
ATOM     21  C   UNL     1       1.894   5.094  20.191  0.00  0.00    +0.000 A 
ATOM     22  C   UNL     1       2.373   4.565  21.393  0.00  0.00    +0.000 A 
ATOM     23  C   UNL     1       2.133   3.233  21.708  0.00  0.00    +0.000 A 
ATOM     24  C   UNL     1       1.412   2.432  20.823  0.00  0.00    +0.000 A 
ATOM     25  C   UNL     1       0.888   2.980  19.650  0.00  0.00    +0.000 A 
ATOM     26  C   UNL     1       1.123   4.319  19.332  0.00  0.00    +0.000 A 
ENDBRANCH  20  21
ENDBRANCH  18  20
ENDBRANCH  17  18
ENDBRANCH   3  17
TORSDOF 12
ENDMDL
