MODEL 1
REMARK VINA RESULT:      -7.0      0.000      0.000
REMARK  Name = 
REMARK  12 active torsions:
REMARK  status: ('A' for Active; 'I' for Inactive)
REMARK    1  A    between atoms: CD1_1  and  CG_2
REMARK    2  A    between atoms: CG_2  and  CD2_3
REMARK    3  A    between atoms: CG_2  and  CB_4
REMARK    4  A    between atoms: CB_4  and  CA_5
REMARK    5  A    between atoms: CA_5  and  N_6
REMARK    6  A    between atoms: CA_5  and  C_23
REMARK    7  A    between atoms: N_6  and  C_7
REMARK    8  A    between atoms: C_7  and  N_8
REMARK    9  A    between atoms: C_7  and  C_9
REMARK   10  A    between atoms: N_11  and  C_12
REMARK   11  A    between atoms: C_15  and  C_16
REMARK   12  A    between atoms: C_23  and  OXT_25
REMARK                            x       y       z     vdW  Elec       q    Type
REMARK                         _______ _______ _______ _____ _____    ______ ____
ROOT
ATOM      1  C   UNK A   0       4.368   4.060  18.232  0.00  0.00    +0.000 C 
ENDROOT
BRANCH   1   2
ATOM      2  C   UNK A   0       3.906   5.444  18.769  0.00  0.00    +0.000 C 
ATOM      3  O   UNK A   0       4.447   5.956  19.749  0.00  0.00    +0.000 OA
ATOM      4  N   UNK A   0       2.836   5.995  18.069  0.00  0.00    +0.000 N 
ATOM      5  H   UNK A   0       2.723   5.709  17.106  0.00  0.00    +0.000 HD
BRANCH   4   6
ATOM      6  C   UNK A   0       2.397   7.263  18.385  0.00  0.00    +0.000 A 
ATOM      7  C   UNK A   0       2.514   8.349  17.553  0.00  0.00    +0.000 A 
ATOM      8  S   UNK A   0       1.852   9.728  18.307  0.00  0.00    +0.000 S 
ATOM      9  C   UNK A   0       1.436   8.768  19.685  0.00  0.00    +0.000 A 
ATOM     10  N   UNK A   0       1.879   7.519  19.634  0.00  0.00    +0.000 NA
BRANCH   9  11
ATOM     11  C   UNK A   0       0.725   9.373  20.831  0.00  0.00    +0.000 A 
ATOM     12  C   UNK A   0       0.803   8.860  22.141  0.00  0.00    +0.000 A 
ATOM     13  C   UNK A   0       0.075   9.440  23.186  0.00  0.00    +0.000 A 
ATOM     14  C   UNK A   0      -0.733  10.547  22.942  0.00  0.00    +0.000 A 
ATOM     15  C   UNK A   0      -0.802  11.084  21.660  0.00  0.00    +0.000 A 
ATOM     16  C   UNK A   0      -0.072  10.506  20.616  0.00  0.00    +0.000 A 
ENDBRANCH   9  11
ENDBRANCH   4   6
ENDBRANCH   1   2
BRANCH   1  17
ATOM     17  N   UNK A   0       3.555   3.674  17.085  0.00  0.00    +0.000 NA
ATOM     18  H   UNK A   0       4.165   3.439  16.309  0.00  0.00    +0.000 HD
ATOM     19  H   UNK A   0       3.020   4.491  16.782  0.00  0.00    +0.000 HD
ENDBRANCH   1  17
BRANCH   1  20
ATOM     20  N   LEU A   1       5.727   4.031  17.686  0.00  0.00    +0.000 NA
ATOM     21  H   LEU A   1       6.285   4.413  18.459  0.00  0.00    +0.000 HD
BRANCH  20  22
ATOM     22  CA  LEU A   1       5.954   4.949  16.492  0.00  0.00    +0.000 C 
BRANCH  22  23
ATOM     23  C   LEU A   1       6.147   4.029  15.239  0.00  0.00    +0.000 C 
ATOM     24  O   LEU A   1       6.463   4.396  14.109  0.00  0.00    +0.000 OA
BRANCH  23  25
ATOM     25  OXT LEU A   1       5.914   2.728  15.513  0.00  0.00    +0.000 OA
ATOM     26  HXT LEU A   1       4.935   2.610  15.617  0.00  0.00    +0.000 HD
ENDBRANCH  23  25
ENDBRANCH  22  23
BRANCH  22  27
ATOM     27  CB  LEU A   1       7.150   5.907  16.653  0.00  0.00    +0.000 C 
BRANCH  27  29
ATOM     28  CD1 LEU A   1       8.008   6.027  19.083  0.00  0.00    +0.000 C 
ATOM     29  CG  LEU A   1       7.232   6.730  17.966  0.00  0.00    +0.000 C 
ATOM     30  CD2 LEU A   1       7.870   8.091  17.672  0.00  0.00    +0.000 C 
ENDBRANCH  27  29
ENDBRANCH  22  27
ENDBRANCH  20  22
ENDBRANCH   1  20
TORSDOF 10
ENDMDL
MODEL 2
REMARK VINA RESULT:      -6.9      2.546      3.235
REMARK  Name = 
REMARK  12 active torsions:
REMARK  status: ('A' for Active; 'I' for Inactive)
REMARK    1  A    between atoms: CD1_1  and  CG_2
REMARK    2  A    between atoms: CG_2  and  CD2_3
REMARK    3  A    between atoms: CG_2  and  CB_4
REMARK    4  A    between atoms: CB_4  and  CA_5
REMARK    5  A    between atoms: CA_5  and  N_6
REMARK    6  A    between atoms: CA_5  and  C_23
REMARK    7  A    between atoms: N_6  and  C_7
REMARK    8  A    between atoms: C_7  and  N_8
REMARK    9  A    between atoms: C_7  and  C_9
REMARK   10  A    between atoms: N_11  and  C_12
REMARK   11  A    between atoms: C_15  and  C_16
REMARK   12  A    between atoms: C_23  and  OXT_25
REMARK                            x       y       z     vdW  Elec       q    Type
REMARK                         _______ _______ _______ _____ _____    ______ ____
ROOT
ATOM      1  C   UNK A   0       2.544   3.679  21.279  0.00  0.00    +0.000 C 
ENDROOT
BRANCH   1   2
ATOM      2  C   UNK A   0       1.796   4.915  20.705  0.00  0.00    +0.000 C 
ATOM      3  O   UNK A   0       0.640   4.822  20.295  0.00  0.00    +0.000 OA
ATOM      4  N   UNK A   0       2.563   6.077  20.675  0.00  0.00    +0.000 N 
ATOM      5  H   UNK A   0       3.313   6.148  21.348  0.00  0.00    +0.000 HD
BRANCH   4   6
ATOM      6  C   UNK A   0       1.983   7.264  20.279  0.00  0.00    +0.000 A 
ATOM      7  C   UNK A   0       2.081   7.784  19.012  0.00  0.00    +0.000 A 
ATOM      8  S   UNK A   0       1.228   9.260  18.927  0.00  0.00    +0.000 S 
ATOM      9  C   UNK A   0       0.771   9.084  20.586  0.00  0.00    +0.000 A 
ATOM     10  N   UNK A   0       1.328   8.048  21.200  0.00  0.00    +0.000 NA
BRANCH   9  11
ATOM     11  C   UNK A   0      -0.098  10.090  21.233  0.00  0.00    +0.000 A 
ATOM     12  C   UNK A   0      -0.454  10.036  22.595  0.00  0.00    +0.000 A 
ATOM     13  C   UNK A   0      -1.316  10.987  23.153  0.00  0.00    +0.000 A 
ATOM     14  C   UNK A   0      -1.827  12.012  22.362  0.00  0.00    +0.000 A 
ATOM     15  C   UNK A   0      -1.466  12.098  21.021  0.00  0.00    +0.000 A 
ATOM     16  C   UNK A   0      -0.601  11.149  20.465  0.00  0.00    +0.000 A 
ENDBRANCH   9  11
ENDBRANCH   4   6
ENDBRANCH   1   2
BRANCH   1  17
ATOM     17  N   UNK A   0       1.586   2.739  21.852  0.00  0.00    +0.000 NA
ATOM     18  H   UNK A   0       1.077   2.284  21.101  0.00  0.00    +0.000 HD
ATOM     19  H   UNK A   0       0.889   3.272  22.378  0.00  0.00    +0.000 HD
ENDBRANCH   1  17
BRANCH   1  20
ATOM     20  N   LEU A   1       3.239   2.859  20.284  0.00  0.00    +0.000 NA
ATOM     21  H   LEU A   1       4.169   2.740  20.706  0.00  0.00    +0.000 HD
BRANCH  20  22
ATOM     22  CA  LEU A   1       3.457   3.538  18.938  0.00  0.00    +0.000 C 
BRANCH  22  23
ATOM     23  C   LEU A   1       2.478   2.859  17.921  0.00  0.00    +0.000 C 
ATOM     24  O   LEU A   1       1.838   3.426  17.038  0.00  0.00    +0.000 OA
BRANCH  23  25
ATOM     25  OXT LEU A   1       2.379   1.526  18.111  0.00  0.00    +0.000 OA
ATOM     26  HXT LEU A   1       2.822   1.077  17.345  0.00  0.00    +0.000 HD
ENDBRANCH  23  25
ENDBRANCH  22  23
BRANCH  22  27
ATOM     27  CB  LEU A   1       4.908   3.469  18.425  0.00  0.00    +0.000 C 
BRANCH  27  29
ATOM     28  CD1 LEU A   1       5.280   4.040  15.937  0.00  0.00    +0.000 C 
ATOM     29  CG  LEU A   1       5.348   4.534  17.386  0.00  0.00    +0.000 C 
ATOM     30  CD2 LEU A   1       4.480   5.785  17.545  0.00  0.00    +0.000 C 
ENDBRANCH  27  29
ENDBRANCH  22  27
ENDBRANCH  20  22
ENDBRANCH   1  20
TORSDOF 10
ENDMDL
MODEL 3
REMARK VINA RESULT:      -6.9      2.670      3.998
REMARK  Name = 
REMARK  12 active torsions:
REMARK  status: ('A' for Active; 'I' for Inactive)
REMARK    1  A    between atoms: CD1_1  and  CG_2
REMARK    2  A    between atoms: CG_2  and  CD2_3
REMARK    3  A    between atoms: CG_2  and  CB_4
REMARK    4  A    between atoms: CB_4  and  CA_5
REMARK    5  A    between atoms: CA_5  and  N_6
REMARK    6  A    between atoms: CA_5  and  C_23
REMARK    7  A    between atoms: N_6  and  C_7
REMARK    8  A    between atoms: C_7  and  N_8
REMARK    9  A    between atoms: C_7  and  C_9
REMARK   10  A    between atoms: N_11  and  C_12
REMARK   11  A    between atoms: C_15  and  C_16
REMARK   12  A    between atoms: C_23  and  OXT_25
REMARK                            x       y       z     vdW  Elec       q    Type
REMARK                         _______ _______ _______ _____ _____    ______ ____
ROOT
ATOM      1  C   UNK A   0       3.970   3.954  17.932  0.00  0.00    +0.000 C 
ENDROOT
BRANCH   1   2
ATOM      2  C   UNK A   0       2.952   5.128  17.975  0.00  0.00    +0.000 C 
ATOM      3  O   UNK A   0       1.779   4.961  17.644  0.00  0.00    +0.000 OA
ATOM      4  N   UNK A   0       3.504   6.342  18.376  0.00  0.00    +0.000 N 
ATOM      5  H   UNK A   0       4.324   6.300  18.964  0.00  0.00    +0.000 HD
BRANCH   4   6
ATOM      6  C   UNK A   0       2.684   7.437  18.548  0.00  0.00    +0.000 A 
ATOM      7  C   UNK A   0       2.313   8.289  17.537  0.00  0.00    +0.000 A 
ATOM      8  S   UNK A   0       1.298   9.512  18.156  0.00  0.00    +0.000 S 
ATOM      9  C   UNK A   0       1.409   8.800  19.728  0.00  0.00    +0.000 A 
ATOM     10  N   UNK A   0       2.257   7.783  19.809  0.00  0.00    +0.000 NA
BRANCH   9  11
ATOM     11  C   UNK A   0       0.667   9.382  20.867  0.00  0.00    +0.000 A 
ATOM     12  C   UNK A   0       0.762   8.883  22.181  0.00  0.00    +0.000 A 
ATOM     13  C   UNK A   0       0.005   9.438  23.219  0.00  0.00    +0.000 A 
ATOM     14  C   UNK A   0      -0.850  10.506  22.963  0.00  0.00    +0.000 A 
ATOM     15  C   UNK A   0      -0.938  11.031  21.677  0.00  0.00    +0.000 A 
ATOM     16  C   UNK A   0      -0.178  10.477  20.640  0.00  0.00    +0.000 A 
ENDBRANCH   9  11
ENDBRANCH   4   6
ENDBRANCH   1   2
BRANCH   1  17
ATOM     17  N   UNK A   0       5.131   4.271  18.756  0.00  0.00    +0.000 NA
ATOM     18  H   UNK A   0       5.160   3.637  19.548  0.00  0.00    +0.000 HD
ATOM     19  H   UNK A   0       4.999   5.205  19.151  0.00  0.00    +0.000 HD
ENDBRANCH   1  17
BRANCH   1  20
ATOM     20  N   LEU A   1       3.493   2.700  18.521  0.00  0.00    +0.000 NA
ATOM     21  H   LEU A   1       2.483   2.739  18.336  0.00  0.00    +0.000 HD
BRANCH  20  22
ATOM     22  CA  LEU A   1       3.655   2.602  20.031  0.00  0.00    +0.000 C 
BRANCH  22  23
ATOM     23  C   LEU A   1       4.756   1.521  20.303  0.00  0.00    +0.000 C 
ATOM     24  O   LEU A   1       5.491   1.462  21.287  0.00  0.00    +0.000 OA
BRANCH  23  25
ATOM     25  OXT LEU A   1       4.846   0.614  19.307  0.00  0.00    +0.000 OA
ATOM     26  HXT LEU A   1       4.828  -0.289  19.717  0.00  0.00    +0.000 HD
ENDBRANCH  23  25
ENDBRANCH  22  23
BRANCH  22  27
ATOM     27  CB  LEU A   1       2.355   2.256  20.783  0.00  0.00    +0.000 C 
BRANCH  27  29
ATOM     28  CD1 LEU A   1       2.136   4.765  21.341  0.00  0.00    +0.000 C 
ATOM     29  CG  LEU A   1       1.409   3.431  21.148  0.00  0.00    +0.000 C 
ATOM     30  CD2 LEU A   1       0.341   3.577  20.061  0.00  0.00    +0.000 C 
ENDBRANCH  27  29
ENDBRANCH  22  27
ENDBRANCH  20  22
ENDBRANCH   1  20
TORSDOF 10
ENDMDL
MODEL 4
REMARK VINA RESULT:      -6.9      2.207      3.653
REMARK  Name = 
REMARK  12 active torsions:
REMARK  status: ('A' for Active; 'I' for Inactive)
REMARK    1  A    between atoms: CD1_1  and  CG_2
REMARK    2  A    between atoms: CG_2  and  CD2_3
REMARK    3  A    between atoms: CG_2  and  CB_4
REMARK    4  A    between atoms: CB_4  and  CA_5
REMARK    5  A    between atoms: CA_5  and  N_6
REMARK    6  A    between atoms: CA_5  and  C_23
REMARK    7  A    between atoms: N_6  and  C_7
REMARK    8  A    between atoms: C_7  and  N_8
REMARK    9  A    between atoms: C_7  and  C_9
REMARK   10  A    between atoms: N_11  and  C_12
REMARK   11  A    between atoms: C_15  and  C_16
REMARK   12  A    between atoms: C_23  and  OXT_25
REMARK                            x       y       z     vdW  Elec       q    Type
REMARK                         _______ _______ _______ _____ _____    ______ ____
ROOT
ATOM      1  C   UNK A   0       4.314   4.588  17.308  0.00  0.00    +0.000 C 
ENDROOT
BRANCH   1   2
ATOM      2  C   UNK A   0       3.984   6.067  17.653  0.00  0.00    +0.000 C 
ATOM      3  O   UNK A   0       4.805   6.962  17.454  0.00  0.00    +0.000 OA
ATOM      4  N   UNK A   0       2.726   6.250  18.220  0.00  0.00    +0.000 N 
ATOM      5  H   UNK A   0       2.019   5.564  17.996  0.00  0.00    +0.000 HD
BRANCH   4   6
ATOM      6  C   UNK A   0       2.276   7.528  18.480  0.00  0.00    +0.000 A 
ATOM      7  C   UNK A   0       2.407   8.583  17.611  0.00  0.00    +0.000 A 
ATOM      8  S   UNK A   0       1.725   9.986  18.300  0.00  0.00    +0.000 S 
ATOM      9  C   UNK A   0       1.283   9.075  19.702  0.00  0.00    +0.000 A 
ATOM     10  N   UNK A   0       1.731   7.827  19.707  0.00  0.00    +0.000 NA
BRANCH   9  11
ATOM     11  C   UNK A   0       0.545   9.719  20.810  0.00  0.00    +0.000 A 
ATOM     12  C   UNK A   0       0.082  11.049  20.754  0.00  0.00    +0.000 A 
ATOM     13  C   UNK A   0      -0.573  11.630  21.846  0.00  0.00    +0.000 A 
ATOM     14  C   UNK A   0      -0.783  10.890  23.006  0.00  0.00    +0.000 A 
ATOM     15  C   UNK A   0      -0.357   9.566  23.071  0.00  0.00    +0.000 A 
ATOM     16  C   UNK A   0       0.294   8.985  21.977  0.00  0.00    +0.000 A 
ENDBRANCH   9  11
ENDBRANCH   4   6
ENDBRANCH   1   2
BRANCH   1  17
ATOM     17  N   UNK A   0       5.169   4.530  16.128  0.00  0.00    +0.000 NA
ATOM     18  H   UNK A   0       5.859   3.797  16.253  0.00  0.00    +0.000 HD
ATOM     19  H   UNK A   0       5.697   5.404  16.071  0.00  0.00    +0.000 HD
ENDBRANCH   1  17
BRANCH   1  20
ATOM     20  N   LEU A   1       5.110   3.881  18.314  0.00  0.00    +0.000 NA
ATOM     21  H   LEU A   1       5.712   3.280  17.738  0.00  0.00    +0.000 HD
BRANCH  20  22
ATOM     22  CA  LEU A   1       4.313   2.955  19.223  0.00  0.00    +0.000 C 
BRANCH  22  23
ATOM     23  C   LEU A   1       3.629   1.889  18.301  0.00  0.00    +0.000 C 
ATOM     24  O   LEU A   1       2.634   2.065  17.600  0.00  0.00    +0.000 OA
BRANCH  23  25
ATOM     25  OXT LEU A   1       4.248   0.690  18.350  0.00  0.00    +0.000 OA
ATOM     26  HXT LEU A   1       3.548  -0.013  18.362  0.00  0.00    +0.000 HD
ENDBRANCH  23  25
ENDBRANCH  22  23
BRANCH  22  27
ATOM     27  CB  LEU A   1       3.264   3.675  20.092  0.00  0.00    +0.000 C 
BRANCH  27  29
ATOM     28  CD1 LEU A   1       1.846   2.510  21.906  0.00  0.00    +0.000 C 
ATOM     29  CG  LEU A   1       1.963   2.898  20.429  0.00  0.00    +0.000 C 
ATOM     30  CD2 LEU A   1       0.751   3.739  20.019  0.00  0.00    +0.000 C 
ENDBRANCH  27  29
ENDBRANCH  22  27
ENDBRANCH  20  22
ENDBRANCH   1  20
TORSDOF 10
ENDMDL
MODEL 5
REMARK VINA RESULT:      -6.8      3.228      4.723
REMARK  Name = 
REMARK  12 active torsions:
REMARK  status: ('A' for Active; 'I' for Inactive)
REMARK    1  A    between atoms: CD1_1  and  CG_2
REMARK    2  A    between atoms: CG_2  and  CD2_3
REMARK    3  A    between atoms: CG_2  and  CB_4
REMARK    4  A    between atoms: CB_4  and  CA_5
REMARK    5  A    between atoms: CA_5  and  N_6
REMARK    6  A    between atoms: CA_5  and  C_23
REMARK    7  A    between atoms: N_6  and  C_7
REMARK    8  A    between atoms: C_7  and  N_8
REMARK    9  A    between atoms: C_7  and  C_9
REMARK   10  A    between atoms: N_11  and  C_12
REMARK   11  A    between atoms: C_15  and  C_16
REMARK   12  A    between atoms: C_23  and  OXT_25
REMARK                            x       y       z     vdW  Elec       q    Type
REMARK                         _______ _______ _______ _____ _____    ______ ____
ROOT
ATOM      1  C   UNK A   0       3.273   6.626  18.085  0.00  0.00    +0.000 C 
ENDROOT
BRANCH   1   2
ATOM      2  C   UNK A   0       2.394   7.773  18.658  0.00  0.00    +0.000 C 
ATOM      3  O   UNK A   0       2.074   7.793  19.846  0.00  0.00    +0.000 OA
ATOM      4  N   UNK A   0       1.999   8.712  17.709  0.00  0.00    +0.000 N 
ATOM      5  H   UNK A   0       2.593   8.822  16.899  0.00  0.00    +0.000 HD
BRANCH   4   6
ATOM      6  C   UNK A   0       1.299   9.831  18.109  0.00  0.00    +0.000 A 
ATOM      7  C   UNK A   0       1.886  11.013  18.487  0.00  0.00    +0.000 A 
ATOM      8  S   UNK A   0       0.683  12.146  18.909  0.00  0.00    +0.000 S 
ATOM      9  C   UNK A   0      -0.538  10.980  18.533  0.00  0.00    +0.000 A 
ATOM     10  N   UNK A   0      -0.070   9.776  18.232  0.00  0.00    +0.000 NA
BRANCH   9  11
ATOM     11  C   UNK A   0      -1.969  11.333  18.646  0.00  0.00    +0.000 A 
ATOM     12  C   UNK A   0      -2.461  12.250  19.596  0.00  0.00    +0.000 A 
ATOM     13  C   UNK A   0      -3.831  12.519  19.695  0.00  0.00    +0.000 A 
ATOM     14  C   UNK A   0      -4.729  11.884  18.842  0.00  0.00    +0.000 A 
ATOM     15  C   UNK A   0      -4.260  10.995  17.880  0.00  0.00    +0.000 A 
ATOM     16  C   UNK A   0      -2.890  10.729  17.778  0.00  0.00    +0.000 A 
ENDBRANCH   9  11
ENDBRANCH   4   6
ENDBRANCH   1   2
BRANCH   1  17
ATOM     17  N   UNK A   0       4.395   7.183  17.338  0.00  0.00    +0.000 NA
ATOM     18  H   UNK A   0       5.232   6.649  17.548  0.00  0.00    +0.000 HD
ATOM     19  H   UNK A   0       4.573   8.128  17.685  0.00  0.00    +0.000 HD
ENDBRANCH   1  17
BRANCH   1  20
ATOM     20  N   LEU A   1       3.939   5.796  19.092  0.00  0.00    +0.000 NA
ATOM     21  H   LEU A   1       4.866   5.644  18.675  0.00  0.00    +0.000 HD
BRANCH  20  22
ATOM     22  CA  LEU A   1       3.322   4.418  19.293  0.00  0.00    +0.000 C 
BRANCH  22  23
ATOM     23  C   LEU A   1       4.249   3.391  18.559  0.00  0.00    +0.000 C 
ATOM     24  O   LEU A   1       3.892   2.538  17.749  0.00  0.00    +0.000 OA
BRANCH  23  25
ATOM     25  OXT LEU A   1       5.545   3.518  18.916  0.00  0.00    +0.000 OA
ATOM     26  HXT LEU A   1       5.681   3.005  19.754  0.00  0.00    +0.000 HD
ENDBRANCH  23  25
ENDBRANCH  22  23
BRANCH  22  27
ATOM     27  CB  LEU A   1       1.871   4.299  18.788  0.00  0.00    +0.000 C 
BRANCH  27  29
ATOM     28  CD1 LEU A   1       0.662   2.030  18.997  0.00  0.00    +0.000 C 
ATOM     29  CG  LEU A   1       0.901   3.412  19.613  0.00  0.00    +0.000 C 
ATOM     30  CD2 LEU A   1       1.444   3.255  21.036  0.00  0.00    +0.000 C 
ENDBRANCH  27  29
ENDBRANCH  22  27
ENDBRANCH  20  22
ENDBRANCH   1  20
TORSDOF 10
ENDMDL
MODEL 6
REMARK VINA RESULT:      -6.8      2.631      8.224
REMARK  Name = 
REMARK  12 active torsions:
REMARK  status: ('A' for Active; 'I' for Inactive)
REMARK    1  A    between atoms: CD1_1  and  CG_2
REMARK    2  A    between atoms: CG_2  and  CD2_3
REMARK    3  A    between atoms: CG_2  and  CB_4
REMARK    4  A    between atoms: CB_4  and  CA_5
REMARK    5  A    between atoms: CA_5  and  N_6
REMARK    6  A    between atoms: CA_5  and  C_23
REMARK    7  A    between atoms: N_6  and  C_7
REMARK    8  A    between atoms: C_7  and  N_8
REMARK    9  A    between atoms: C_7  and  C_9
REMARK   10  A    between atoms: N_11  and  C_12
REMARK   11  A    between atoms: C_15  and  C_16
REMARK   12  A    between atoms: C_23  and  OXT_25
REMARK                            x       y       z     vdW  Elec       q    Type
REMARK                         _______ _______ _______ _____ _____    ______ ____
ROOT
ATOM      1  C   UNK A   0       2.128   6.105  19.824  0.00  0.00    +0.000 C 
ENDROOT
BRANCH   1   2
ATOM      2  C   UNK A   0       3.252   5.335  19.075  0.00  0.00    +0.000 C 
ATOM      3  O   UNK A   0       3.150   4.130  18.846  0.00  0.00    +0.000 OA
ATOM      4  N   UNK A   0       4.352   6.120  18.743  0.00  0.00    +0.000 N 
ATOM      5  H   UNK A   0       4.190   7.111  18.628  0.00  0.00    +0.000 HD
BRANCH   4   6
ATOM      6  C   UNK A   0       5.373   5.577  17.991  0.00  0.00    +0.000 A 
ATOM      7  C   UNK A   0       6.544   5.090  18.519  0.00  0.00    +0.000 A 
ATOM      8  S   UNK A   0       7.543   4.507  17.265  0.00  0.00    +0.000 S 
ATOM      9  C   UNK A   0       6.328   4.929  16.109  0.00  0.00    +0.000 A 
ATOM     10  N   UNK A   0       5.291   5.581  16.618  0.00  0.00    +0.000 NA
BRANCH   9  11
ATOM     11  C   UNK A   0       6.529   4.640  14.673  0.00  0.00    +0.000 A 
ATOM     12  C   UNK A   0       5.763   3.694  13.964  0.00  0.00    +0.000 A 
ATOM     13  C   UNK A   0       6.021   3.423  12.616  0.00  0.00    +0.000 A 
ATOM     14  C   UNK A   0       7.040   4.099  11.952  0.00  0.00    +0.000 A 
ATOM     15  C   UNK A   0       7.790   5.057  12.627  0.00  0.00    +0.000 A 
ATOM     16  C   UNK A   0       7.530   5.330  13.974  0.00  0.00    +0.000 A 
ENDBRANCH   9  11
ENDBRANCH   4   6
ENDBRANCH   1   2
BRANCH   1  17
ATOM     17  N   UNK A   0       2.016   5.615  21.193  0.00  0.00    +0.000 NA
ATOM     18  H   UNK A   0       1.978   6.407  21.827  0.00  0.00    +0.000 HD
ATOM     19  H   UNK A   0       2.875   5.113  21.426  0.00  0.00    +0.000 HD
ENDBRANCH   1  17
BRANCH   1  20
ATOM     20  N   LEU A   1       2.379   7.535  20.015  0.00  0.00    +0.000 NA
ATOM     21  H   LEU A   1       2.203   7.659  21.019  0.00  0.00    +0.000 HD
BRANCH  20  22
ATOM     22  CA  LEU A   1       1.410   8.456  19.286  0.00  0.00    +0.000 C 
BRANCH  22  23
ATOM     23  C   LEU A   1       2.100   8.874  17.943  0.00  0.00    +0.000 C 
ATOM     24  O   LEU A   1       3.023   8.284  17.385  0.00  0.00    +0.000 OA
BRANCH  23  25
ATOM     25  OXT LEU A   1       1.577  10.006  17.425  0.00  0.00    +0.000 OA
ATOM     26  HXT LEU A   1       0.999   9.750  16.659  0.00  0.00    +0.000 HD
ENDBRANCH  23  25
ENDBRANCH  22  23
BRANCH  22  27
ATOM     27  CB  LEU A   1       0.995   9.701  20.095  0.00  0.00    +0.000 C 
BRANCH  27  29
ATOM     28  CD1 LEU A   1       0.941   9.136  22.612  0.00  0.00    +0.000 C 
ATOM     29  CG  LEU A   1       0.125   9.471  21.359  0.00  0.00    +0.000 C 
ATOM     30  CD2 LEU A   1      -0.730  10.714  21.618  0.00  0.00    +0.000 C 
ENDBRANCH  27  29
ENDBRANCH  22  27
ENDBRANCH  20  22
ENDBRANCH   1  20
TORSDOF 10
ENDMDL
MODEL 7
REMARK VINA RESULT:      -6.8      3.118      4.266
REMARK  Name = 
REMARK  12 active torsions:
REMARK  status: ('A' for Active; 'I' for Inactive)
REMARK    1  A    between atoms: CD1_1  and  CG_2
REMARK    2  A    between atoms: CG_2  and  CD2_3
REMARK    3  A    between atoms: CG_2  and  CB_4
REMARK    4  A    between atoms: CB_4  and  CA_5
REMARK    5  A    between atoms: CA_5  and  N_6
REMARK    6  A    between atoms: CA_5  and  C_23
REMARK    7  A    between atoms: N_6  and  C_7
REMARK    8  A    between atoms: C_7  and  N_8
REMARK    9  A    between atoms: C_7  and  C_9
REMARK   10  A    between atoms: N_11  and  C_12
REMARK   11  A    between atoms: C_15  and  C_16
REMARK   12  A    between atoms: C_23  and  OXT_25
REMARK                            x       y       z     vdW  Elec       q    Type
REMARK                         _______ _______ _______ _____ _____    ______ ____
ROOT
ATOM      1  C   UNK A   0       2.950   6.932  18.829  0.00  0.00    +0.000 C 
ENDROOT
BRANCH   1   2
ATOM      2  C   UNK A   0       2.221   8.241  18.414  0.00  0.00    +0.000 C 
ATOM      3  O   UNK A   0       2.289   8.665  17.260  0.00  0.00    +0.000 OA
ATOM      4  N   UNK A   0       1.544   8.868  19.456  0.00  0.00    +0.000 N 
ATOM      5  H   UNK A   0       1.237   8.283  20.220  0.00  0.00    +0.000 HD
BRANCH   4   6
ATOM      6  C   UNK A   0       0.777   9.984  19.195  0.00  0.00    +0.000 A 
ATOM      7  C   UNK A   0       1.215  11.275  19.359  0.00  0.00    +0.000 A 
ATOM      8  S   UNK A   0      -0.026  12.364  18.930  0.00  0.00    +0.000 S 
ATOM      9  C   UNK A   0      -1.052  11.029  18.534  0.00  0.00    +0.000 A 
ATOM     10  N   UNK A   0      -0.540   9.841  18.825  0.00  0.00    +0.000 NA
BRANCH   9  11
ATOM     11  C   UNK A   0      -2.412  11.262  18.003  0.00  0.00    +0.000 A 
ATOM     12  C   UNK A   0      -3.459  11.796  18.781  0.00  0.00    +0.000 A 
ATOM     13  C   UNK A   0      -4.742  11.957  18.247  0.00  0.00    +0.000 A 
ATOM     14  C   UNK A   0      -4.998  11.598  16.926  0.00  0.00    +0.000 A 
ATOM     15  C   UNK A   0      -3.970  11.095  16.134  0.00  0.00    +0.000 A 
ATOM     16  C   UNK A   0      -2.687  10.937  16.667  0.00  0.00    +0.000 A 
ENDBRANCH   9  11
ENDBRANCH   4   6
ENDBRANCH   1   2
BRANCH   1  17
ATOM     17  N   UNK A   0       2.585   6.571  20.195  0.00  0.00    +0.000 NA
ATOM     18  H   UNK A   0       2.218   5.625  20.202  0.00  0.00    +0.000 HD
ATOM     19  H   UNK A   0       1.813   7.173  20.490  0.00  0.00    +0.000 HD
ENDBRANCH   1  17
BRANCH   1  20
ATOM     20  N   LEU A   1       2.564   5.741  18.069  0.00  0.00    +0.000 NA
ATOM     21  H   LEU A   1       2.256   5.097  18.809  0.00  0.00    +0.000 HD
BRANCH  20  22
ATOM     22  CA  LEU A   1       3.709   5.051  17.341  0.00  0.00    +0.000 C 
BRANCH  22  23
ATOM     23  C   LEU A   1       3.398   3.515  17.353  0.00  0.00    +0.000 C 
ATOM     24  O   LEU A   1       2.359   2.980  16.971  0.00  0.00    +0.000 OA
BRANCH  23  25
ATOM     25  OXT LEU A   1       4.416   2.786  17.857  0.00  0.00    +0.000 OA
ATOM     26  HXT LEU A   1       5.046   3.412  18.301  0.00  0.00    +0.000 HD
ENDBRANCH  23  25
ENDBRANCH  22  23
BRANCH  22  27
ATOM     27  CB  LEU A   1       5.099   5.329  17.945  0.00  0.00    +0.000 C 
BRANCH  27  29
ATOM     28  CD1 LEU A   1       7.137   6.870  17.589  0.00  0.00    +0.000 C 
ATOM     29  CG  LEU A   1       6.212   5.814  16.978  0.00  0.00    +0.000 C 
ATOM     30  CD2 LEU A   1       7.038   4.611  16.513  0.00  0.00    +0.000 C 
ENDBRANCH  27  29
ENDBRANCH  22  27
ENDBRANCH  20  22
ENDBRANCH   1  20
TORSDOF 10
ENDMDL
MODEL 8
REMARK VINA RESULT:      -6.7      3.191      4.687
REMARK  Name = 
REMARK  12 active torsions:
REMARK  status: ('A' for Active; 'I' for Inactive)
REMARK    1  A    between atoms: CD1_1  and  CG_2
REMARK    2  A    between atoms: CG_2  and  CD2_3
REMARK    3  A    between atoms: CG_2  and  CB_4
REMARK    4  A    between atoms: CB_4  and  CA_5
REMARK    5  A    between atoms: CA_5  and  N_6
REMARK    6  A    between atoms: CA_5  and  C_23
REMARK    7  A    between atoms: N_6  and  C_7
REMARK    8  A    between atoms: C_7  and  N_8
REMARK    9  A    between atoms: C_7  and  C_9
REMARK   10  A    between atoms: N_11  and  C_12
REMARK   11  A    between atoms: C_15  and  C_16
REMARK   12  A    between atoms: C_23  and  OXT_25
REMARK                            x       y       z     vdW  Elec       q    Type
REMARK                         _______ _______ _______ _____ _____    ______ ____
ROOT
ATOM      1  C   UNK A   0       3.507   6.711  18.748  0.00  0.00    +0.000 C 
ENDROOT
BRANCH   1   2
ATOM      2  C   UNK A   0       2.376   7.730  19.062  0.00  0.00    +0.000 C 
ATOM      3  O   UNK A   0       1.725   7.653  20.104  0.00  0.00    +0.000 OA
ATOM      4  N   UNK A   0       2.169   8.674  18.060  0.00  0.00    +0.000 N 
ATOM      5  H   UNK A   0       2.955   8.888  17.463  0.00  0.00    +0.000 HD
BRANCH   4   6
ATOM      6  C   UNK A   0       1.261   9.692  18.261  0.00  0.00    +0.000 A 
ATOM      7  C   UNK A   0       1.535  10.842  18.959  0.00  0.00    +0.000 A 
ATOM      8  S   UNK A   0       0.156  11.846  18.982  0.00  0.00    +0.000 S 
ATOM      9  C   UNK A   0      -0.702  10.679  18.037  0.00  0.00    +0.000 A 
ATOM     10  N   UNK A   0      -0.036   9.551  17.825  0.00  0.00    +0.000 NA
BRANCH   9  11
ATOM     11  C   UNK A   0      -2.093  10.939  17.609  0.00  0.00    +0.000 A 
ATOM     12  C   UNK A   0      -3.050  11.555  18.440  0.00  0.00    +0.000 A 
ATOM     13  C   UNK A   0      -4.367  11.740  18.007  0.00  0.00    +0.000 A 
ATOM     14  C   UNK A   0      -4.748  11.322  16.735  0.00  0.00    +0.000 A 
ATOM     15  C   UNK A   0      -3.810  10.737  15.889  0.00  0.00    +0.000 A 
ATOM     16  C   UNK A   0      -2.492  10.555  16.321  0.00  0.00    +0.000 A 
ENDBRANCH   9  11
ENDBRANCH   4   6
ENDBRANCH   1   2
BRANCH   1  17
ATOM     17  N   UNK A   0       3.690   5.806  19.878  0.00  0.00    +0.000 NA
ATOM     18  H   UNK A   0       4.094   4.937  19.545  0.00  0.00    +0.000 HD
ATOM     19  H   UNK A   0       2.768   5.563  20.247  0.00  0.00    +0.000 HD
ENDBRANCH   1  17
BRANCH   1  20
ATOM     20  N   LEU A   1       3.221   5.791  17.644  0.00  0.00    +0.000 NA
ATOM     21  H   LEU A   1       2.195   5.751  17.650  0.00  0.00    +0.000 HD
BRANCH  20  22
ATOM     22  CA  LEU A   1       3.714   4.366  17.858  0.00  0.00    +0.000 C 
BRANCH  22  23
ATOM     23  C   LEU A   1       5.233   4.346  17.476  0.00  0.00    +0.000 C 
ATOM     24  O   LEU A   1       5.711   4.634  16.380  0.00  0.00    +0.000 OA
BRANCH  23  25
ATOM     25  OXT LEU A   1       6.018   3.954  18.501  0.00  0.00    +0.000 OA
ATOM     26  HXT LEU A   1       5.568   4.216  19.346  0.00  0.00    +0.000 HD
ENDBRANCH  23  25
ENDBRANCH  22  23
BRANCH  22  27
ATOM     27  CB  LEU A   1       2.937   3.304  17.056  0.00  0.00    +0.000 C 
BRANCH  27  29
ATOM     28  CD1 LEU A   1       3.517   1.333  18.614  0.00  0.00    +0.000 C 
ATOM     29  CG  LEU A   1       2.422   2.062  17.830  0.00  0.00    +0.000 C 
ATOM     30  CD2 LEU A   1       1.302   2.488  18.783  0.00  0.00    +0.000 C 
ENDBRANCH  27  29
ENDBRANCH  22  27
ENDBRANCH  20  22
ENDBRANCH   1  20
TORSDOF 10
ENDMDL
MODEL 9
REMARK VINA RESULT:      -6.7      3.047      4.341
REMARK  Name = 
REMARK  12 active torsions:
REMARK  status: ('A' for Active; 'I' for Inactive)
REMARK    1  A    between atoms: CD1_1  and  CG_2
REMARK    2  A    between atoms: CG_2  and  CD2_3
REMARK    3  A    between atoms: CG_2  and  CB_4
REMARK    4  A    between atoms: CB_4  and  CA_5
REMARK    5  A    between atoms: CA_5  and  N_6
REMARK    6  A    between atoms: CA_5  and  C_23
REMARK    7  A    between atoms: N_6  and  C_7
REMARK    8  A    between atoms: C_7  and  N_8
REMARK    9  A    between atoms: C_7  and  C_9
REMARK   10  A    between atoms: N_11  and  C_12
REMARK   11  A    between atoms: C_15  and  C_16
REMARK   12  A    between atoms: C_23  and  OXT_25
REMARK                            x       y       z     vdW  Elec       q    Type
REMARK                         _______ _______ _______ _____ _____    ______ ____
ROOT
ATOM      1  C   UNK A   0       2.937   6.703  19.275  0.00  0.00    +0.000 C 
ENDROOT
BRANCH   1   2
ATOM      2  C   UNK A   0       2.252   7.990  18.736  0.00  0.00    +0.000 C 
ATOM      3  O   UNK A   0       2.379   8.330  17.560  0.00  0.00    +0.000 OA
ATOM      4  N   UNK A   0       1.542   8.700  19.701  0.00  0.00    +0.000 N 
ATOM      5  H   UNK A   0       1.191   8.175  20.489  0.00  0.00    +0.000 HD
BRANCH   4   6
ATOM      6  C   UNK A   0       0.809   9.807  19.328  0.00  0.00    +0.000 A 
ATOM      7  C   UNK A   0       1.257  11.101  19.436  0.00  0.00    +0.000 A 
ATOM      8  S   UNK A   0       0.059  12.175  18.871  0.00  0.00    +0.000 S 
ATOM      9  C   UNK A   0      -0.964  10.831  18.500  0.00  0.00    +0.000 A 
ATOM     10  N   UNK A   0      -0.488   9.657  18.894  0.00  0.00    +0.000 NA
BRANCH   9  11
ATOM     11  C   UNK A   0      -2.288  11.047  17.880  0.00  0.00    +0.000 A 
ATOM     12  C   UNK A   0      -2.575  10.706  16.543  0.00  0.00    +0.000 A 
ATOM     13  C   UNK A   0      -3.831  10.972  15.986  0.00  0.00    +0.000 A 
ATOM     14  C   UNK A   0      -4.823  11.571  16.757  0.00  0.00    +0.000 A 
ATOM     15  C   UNK A   0      -4.567  11.891  18.087  0.00  0.00    +0.000 A 
ATOM     16  C   UNK A   0      -3.313  11.622  18.645  0.00  0.00    +0.000 A 
ENDBRANCH   9  11
ENDBRANCH   4   6
ENDBRANCH   1   2
BRANCH   1  17
ATOM     17  N   UNK A   0       2.208   6.198  20.433  0.00  0.00    +0.000 NA
ATOM     18  H   UNK A   0       1.676   5.378  20.159  0.00  0.00    +0.000 HD
ATOM     19  H   UNK A   0       1.517   6.900  20.708  0.00  0.00    +0.000 HD
ENDBRANCH   1  17
BRANCH   1  20
ATOM     20  N   LEU A   1       2.914   5.560  18.359  0.00  0.00    +0.000 NA
ATOM     21  H   LEU A   1       2.202   4.952  18.782  0.00  0.00    +0.000 HD
BRANCH  20  22
ATOM     22  CA  LEU A   1       4.204   4.753  18.314  0.00  0.00    +0.000 C 
BRANCH  22  23
ATOM     23  C   LEU A   1       3.902   3.372  18.989  0.00  0.00    +0.000 C 
ATOM     24  O   LEU A   1       3.373   3.199  20.085  0.00  0.00    +0.000 OA
BRANCH  23  25
ATOM     25  OXT LEU A   1       4.302   2.328  18.232  0.00  0.00    +0.000 OA
ATOM     26  HXT LEU A   1       4.844   2.687  17.483  0.00  0.00    +0.000 HD
ENDBRANCH  23  25
ENDBRANCH  22  23
BRANCH  22  27
ATOM     27  CB  LEU A   1       5.402   5.441  18.996  0.00  0.00    +0.000 C 
BRANCH  27  29
ATOM     28  CD1 LEU A   1       6.777   4.609  16.978  0.00  0.00    +0.000 C 
ATOM     29  CG  LEU A   1       6.810   5.173  18.401  0.00  0.00    +0.000 C 
ATOM     30  CD2 LEU A   1       7.624   6.470  18.423  0.00  0.00    +0.000 C 
ENDBRANCH  27  29
ENDBRANCH  22  27
ENDBRANCH  20  22
ENDBRANCH   1  20
TORSDOF 10
ENDMDL
