MODEL 1
REMARK VINA RESULT:      -8.3      0.000      0.000
REMARK  Name = 
REMARK  5 active torsions:
REMARK  status: ('A' for Active; 'I' for Inactive)
REMARK    1  A    between atoms: C_1  and  C_2
REMARK    2  A    between atoms: N_4  and  C_5
REMARK    3  A    between atoms: C_13  and  C_14
REMARK    4  A    between atoms: C_21  and  N_22
REMARK    5  A    between atoms: C_23  and  C_25
REMARK                            x       y       z     vdW  Elec       q    Type
REMARK                         _______ _______ _______ _____ _____    ______ ____
ROOT
ATOM      1  C   UNL     1       3.561   8.491  17.295  0.00  0.00    +0.000 C 
ATOM      2  C   UNL     1       3.881   7.085  17.654  0.00  0.00    +0.000 A 
ATOM      3  N   UNL     1       3.034   6.389  18.431  0.00  0.00    +0.000 NA
ATOM      4  N   UNL     1       3.630   5.184  18.628  0.00  0.00    +0.000 N 
ATOM      5  C   UNL     1       4.855   5.136  17.989  0.00  0.00    +0.000 A 
ATOM      6  C   UNL     1       5.041   6.335  17.343  0.00  0.00    +0.000 A 
ATOM      7  C   UNL     1       6.300   6.621  16.579  0.00  0.00    +0.000 C 
ATOM      8  C   UNL     1       7.041   5.287  16.269  0.00  0.00    +0.000 C 
ATOM      9  C   UNL     1       7.034   4.351  17.484  0.00  0.00    +0.000 C 
ATOM     10  O   UNL     1       8.013   3.683  17.833  0.00  0.00    +0.000 OA
ATOM     11  N   UNL     1       5.824   4.159  18.100  0.00  0.00    +0.000 N 
ATOM     12  H   UNL     1       5.795   3.470  18.841  0.00  0.00    +0.000 HD
ENDROOT
BRANCH   7  13
ATOM     13  C   UNL     1       7.136   7.591  17.420  0.00  0.00    +0.000 A 
ATOM     14  C   UNL     1       8.012   7.182  18.448  0.00  0.00    +0.000 A 
ATOM     15  C   UNL     1       8.791   8.110  19.151  0.00  0.00    +0.000 A 
ATOM     16  C   UNL     1       8.709   9.455  18.834  0.00  0.00    +0.000 A 
ATOM     17  F   UNL     1       9.453  10.347  19.504  0.00  0.00    +0.000 F 
ATOM     18  C   UNL     1       7.864   9.893  17.820  0.00  0.00    +0.000 A 
ATOM     19  C   UNL     1       7.087   8.965  17.116  0.00  0.00    +0.000 A 
ENDBRANCH   7  13
BRANCH   4  20
ATOM     20  C   UNL     1       3.080   4.200  19.488  0.00  0.00    +0.000 A 
ATOM     21  C   UNL     1       2.885   4.473  20.852  0.00  0.00    +0.000 A 
ATOM     22  C   UNL     1       2.175   3.586  21.654  0.00  0.00    +0.000 A 
ATOM     23  C   UNL     1       1.699   2.396  21.111  0.00  0.00    +0.000 A 
ATOM     24  C   UNL     1       1.949   2.087  19.773  0.00  0.00    +0.000 A 
ATOM     25  C   UNL     1       2.650   2.979  18.958  0.00  0.00    +0.000 A 
ENDBRANCH   4  20
BRANCH   8  26
ATOM     26  N   UNL     1       6.398   4.523  15.178  0.00  0.00    +0.000 N 
ATOM     27  C   UNL     1       6.805   4.675  13.880  0.00  0.00    +0.000 C 
ATOM     28  O   UNL     1       7.716   5.421  13.547  0.00  0.00    +0.000 OA
ATOM     29  H   UNL     1       5.718   3.816  15.421  0.00  0.00    +0.000 HD
BRANCH  27  30
ATOM     30  C   UNL     1       6.089   3.879  12.844  0.00  0.00    +0.000 A 
ATOM     31  C   UNL     1       4.839   4.334  12.399  0.00  0.00    +0.000 A 
ATOM     32  C   UNL     1       4.087   3.566  11.512  0.00  0.00    +0.000 A 
ATOM     33  C   UNL     1       4.576   2.335  11.072  0.00  0.00    +0.000 A 
ATOM     34  C   UNL     1       5.823   1.889  11.510  0.00  0.00    +0.000 A 
ATOM     35 CL   UNL     1       6.404   0.352  10.992  0.00  0.00    +0.000 Cl
ATOM     36  C   UNL     1       6.589   2.653  12.391  0.00  0.00    +0.000 A 
ENDBRANCH  27  30
ENDBRANCH   8  26
TORSDOF 4
ENDMDL
MODEL 2
REMARK VINA RESULT:      -7.9      9.704     12.834
REMARK  Name = 
REMARK  5 active torsions:
REMARK  status: ('A' for Active; 'I' for Inactive)
REMARK    1  A    between atoms: C_1  and  C_2
REMARK    2  A    between atoms: N_4  and  C_5
REMARK    3  A    between atoms: C_13  and  C_14
REMARK    4  A    between atoms: C_21  and  N_22
REMARK    5  A    between atoms: C_23  and  C_25
REMARK                            x       y       z     vdW  Elec       q    Type
REMARK                         _______ _______ _______ _____ _____    ______ ____
ROOT
ATOM      1  C   UNL     1      -4.219  11.820  18.501  0.00  0.00    +0.000 C 
ATOM      2  C   UNL     1      -2.834  11.778  19.038  0.00  0.00    +0.000 A 
ATOM      3  N   UNL     1      -2.026  10.754  18.714  0.00  0.00    +0.000 NA
ATOM      4  N   UNL     1      -0.875  10.969  19.402  0.00  0.00    +0.000 N 
ATOM      5  C   UNL     1      -0.971  12.116  20.167  0.00  0.00    +0.000 A 
ATOM      6  C   UNL     1      -2.210  12.668  19.947  0.00  0.00    +0.000 A 
ATOM      7  C   UNL     1      -2.648  13.912  20.662  0.00  0.00    +0.000 C 
ATOM      8  C   UNL     1      -1.405  14.650  21.240  0.00  0.00    +0.000 C 
ATOM      9  C   UNL     1      -0.417  13.664  21.875  0.00  0.00    +0.000 C 
ATOM     10  O   UNL     1       0.172  13.882  22.940  0.00  0.00    +0.000 OA
ATOM     11  N   UNL     1      -0.084  12.564  21.126  0.00  0.00    +0.000 N 
ATOM     12  H   UNL     1       0.638  11.961  21.499  0.00  0.00    +0.000 HD
ENDROOT
BRANCH   7  13
ATOM     13  C   UNL     1      -3.652  13.492  21.740  0.00  0.00    +0.000 A 
ATOM     14  C   UNL     1      -5.051  13.512  21.556  0.00  0.00    +0.000 A 
ATOM     15  C   UNL     1      -5.922  13.069  22.560  0.00  0.00    +0.000 A 
ATOM     16  C   UNL     1      -5.408  12.598  23.755  0.00  0.00    +0.000 A 
ATOM     17  F   UNL     1      -6.238  12.172  24.719  0.00  0.00    +0.000 F 
ATOM     18  C   UNL     1      -4.035  12.555  23.968  0.00  0.00    +0.000 A 
ATOM     19  C   UNL     1      -3.164  12.995  22.963  0.00  0.00    +0.000 A 
ENDBRANCH   7  13
BRANCH   4  20
ATOM     20  C   UNL     1       0.195  10.038  19.394  0.00  0.00    +0.000 A 
ATOM     21  C   UNL     1       0.496   9.287  20.543  0.00  0.00    +0.000 A 
ATOM     22  C   UNL     1       1.414   8.245  20.484  0.00  0.00    +0.000 A 
ATOM     23  C   UNL     1       2.076   7.978  19.289  0.00  0.00    +0.000 A 
ATOM     24  C   UNL     1       1.833   8.765  18.161  0.00  0.00    +0.000 A 
ATOM     25  C   UNL     1       0.902   9.805  18.210  0.00  0.00    +0.000 A 
ENDBRANCH   4  20
BRANCH   8  26
ATOM     26  N   UNL     1      -0.635  15.363  20.198  0.00  0.00    +0.000 N 
ATOM     27  C   UNL     1      -1.082  16.550  19.683  0.00  0.00    +0.000 C 
ATOM     28  O   UNL     1      -2.113  17.095  20.055  0.00  0.00    +0.000 OA
ATOM     29  H   UNL     1       0.274  15.005  19.941  0.00  0.00    +0.000 HD
BRANCH  27  30
ATOM     30  C   UNL     1      -0.252  17.189  18.624  0.00  0.00    +0.000 A 
ATOM     31  C   UNL     1      -0.870  18.091  17.745  0.00  0.00    +0.000 A 
ATOM     32  C   UNL     1      -0.158  18.629  16.675  0.00  0.00    +0.000 A 
ATOM     33  C   UNL     1       1.172  18.261  16.471  0.00  0.00    +0.000 A 
ATOM     34  C   UNL     1       1.787  17.371  17.352  0.00  0.00    +0.000 A 
ATOM     35 CL   UNL     1       3.419  16.894  17.074  0.00  0.00    +0.000 Cl
ATOM     36  C   UNL     1       1.087  16.833  18.432  0.00  0.00    +0.000 A 
ENDBRANCH  27  30
ENDBRANCH   8  26
TORSDOF 4
ENDMDL
MODEL 3
REMARK VINA RESULT:      -7.9      0.867      1.183
REMARK  Name = 
REMARK  5 active torsions:
REMARK  status: ('A' for Active; 'I' for Inactive)
REMARK    1  A    between atoms: C_1  and  C_2
REMARK    2  A    between atoms: N_4  and  C_5
REMARK    3  A    between atoms: C_13  and  C_14
REMARK    4  A    between atoms: C_21  and  N_22
REMARK    5  A    between atoms: C_23  and  C_25
REMARK                            x       y       z     vdW  Elec       q    Type
REMARK                         _______ _______ _______ _____ _____    ______ ____
ROOT
ATOM      1  C   UNL     1       3.667   8.392  17.139  0.00  0.00    +0.000 C 
ATOM      2  C   UNL     1       4.022   7.015  17.572  0.00  0.00    +0.000 A 
ATOM      3  N   UNL     1       3.167   6.320  18.342  0.00  0.00    +0.000 NA
ATOM      4  N   UNL     1       3.797   5.149  18.616  0.00  0.00    +0.000 N 
ATOM      5  C   UNL     1       5.050   5.120  18.032  0.00  0.00    +0.000 A 
ATOM      6  C   UNL     1       5.221   6.297  17.343  0.00  0.00    +0.000 A 
ATOM      7  C   UNL     1       6.501   6.599  16.622  0.00  0.00    +0.000 C 
ATOM      8  C   UNL     1       7.303   5.283  16.402  0.00  0.00    +0.000 C 
ATOM      9  C   UNL     1       7.277   4.399  17.655  0.00  0.00    +0.000 C 
ATOM     10  O   UNL     1       8.263   3.784  18.075  0.00  0.00    +0.000 OA
ATOM     11  N   UNL     1       6.048   4.187  18.227  0.00  0.00    +0.000 N 
ATOM     12  H   UNL     1       6.012   3.529  18.996  0.00  0.00    +0.000 HD
ENDROOT
BRANCH   7  13
ATOM     13  C   UNL     1       7.263   7.635  17.455  0.00  0.00    +0.000 A 
ATOM     14  C   UNL     1       8.142   7.300  18.507  0.00  0.00    +0.000 A 
ATOM     15  C   UNL     1       8.853   8.288  19.202  0.00  0.00    +0.000 A 
ATOM     16  C   UNL     1       8.698   9.619  18.852  0.00  0.00    +0.000 A 
ATOM     17  F   UNL     1       9.376  10.567  19.515  0.00  0.00    +0.000 F 
ATOM     18  C   UNL     1       7.848   9.984  17.815  0.00  0.00    +0.000 A 
ATOM     19  C   UNL     1       7.139   8.997  17.118  0.00  0.00    +0.000 A 
ENDBRANCH   7  13
BRANCH   4  20
ATOM     20  C   UNL     1       3.245   4.181  19.494  0.00  0.00    +0.000 A 
ATOM     21  C   UNL     1       2.901   4.526  20.812  0.00  0.00    +0.000 A 
ATOM     22  C   UNL     1       2.189   3.639  21.610  0.00  0.00    +0.000 A 
ATOM     23  C   UNL     1       1.861   2.380  21.116  0.00  0.00    +0.000 A 
ATOM     24  C   UNL     1       2.260   2.004  19.832  0.00  0.00    +0.000 A 
ATOM     25  C   UNL     1       2.964   2.896  19.019  0.00  0.00    +0.000 A 
ENDBRANCH   4  20
BRANCH   8  26
ATOM     26  N   UNL     1       6.737   4.450  15.319  0.00  0.00    +0.000 N 
ATOM     27  C   UNL     1       7.094   4.657  14.014  0.00  0.00    +0.000 C 
ATOM     28  O   UNL     1       7.899   5.512  13.668  0.00  0.00    +0.000 OA
ATOM     29  H   UNL     1       6.155   3.663  15.571  0.00  0.00    +0.000 HD
BRANCH  27  30
ATOM     30  C   UNL     1       6.461   3.783  12.988  0.00  0.00    +0.000 A 
ATOM     31  C   UNL     1       7.273   2.877  12.290  0.00  0.00    +0.000 A 
ATOM     32  C   UNL     1       6.744   2.117  11.248  0.00  0.00    +0.000 A 
ATOM     33  C   UNL     1       5.403   2.267  10.892  0.00  0.00    +0.000 A 
ATOM     34  C   UNL     1       4.595   3.162  11.594  0.00  0.00    +0.000 A 
ATOM     35 CL   UNL     1       2.950   3.368  11.125  0.00  0.00    +0.000 Cl
ATOM     36  C   UNL     1       5.112   3.921  12.644  0.00  0.00    +0.000 A 
ENDBRANCH  27  30
ENDBRANCH   8  26
TORSDOF 4
ENDMDL
MODEL 4
REMARK VINA RESULT:      -7.7      3.127      4.593
REMARK  Name = 
REMARK  5 active torsions:
REMARK  status: ('A' for Active; 'I' for Inactive)
REMARK    1  A    between atoms: C_1  and  C_2
REMARK    2  A    between atoms: N_4  and  C_5
REMARK    3  A    between atoms: C_13  and  C_14
REMARK    4  A    between atoms: C_21  and  N_22
REMARK    5  A    between atoms: C_23  and  C_25
REMARK                            x       y       z     vdW  Elec       q    Type
REMARK                         _______ _______ _______ _____ _____    ______ ____
ROOT
ATOM      1  C   UNL     1       0.941   2.606  18.477  0.00  0.00    +0.000 C 
ATOM      2  C   UNL     1       2.394   2.568  18.790  0.00  0.00    +0.000 A 
ATOM      3  N   UNL     1       2.914   1.490  19.398  0.00  0.00    +0.000 NA
ATOM      4  N   UNL     1       4.224   1.784  19.601  0.00  0.00    +0.000 N 
ATOM      5  C   UNL     1       4.517   3.052  19.135  0.00  0.00    +0.000 A 
ATOM      6  C   UNL     1       3.367   3.578  18.595  0.00  0.00    +0.000 A 
ATOM      7  C   UNL     1       3.337   4.968  18.032  0.00  0.00    +0.000 C 
ATOM      8  C   UNL     1       4.789   5.451  17.745  0.00  0.00    +0.000 C 
ATOM      9  C   UNL     1       5.738   5.069  18.887  0.00  0.00    +0.000 C 
ATOM     10  O   UNL     1       6.612   5.824  19.326  0.00  0.00    +0.000 OA
ATOM     11  N   UNL     1       5.683   3.768  19.318  0.00  0.00    +0.000 N 
ATOM     12  H   UNL     1       6.372   3.486  20.004  0.00  0.00    +0.000 HD
ENDROOT
BRANCH   7  13
ATOM     13  C   UNL     1       2.596   5.856  19.037  0.00  0.00    +0.000 A 
ATOM     14  C   UNL     1       2.037   5.375  20.241  0.00  0.00    +0.000 A 
ATOM     15  C   UNL     1       1.414   6.243  21.149  0.00  0.00    +0.000 A 
ATOM     16  C   UNL     1       1.346   7.596  20.869  0.00  0.00    +0.000 A 
ATOM     17  F   UNL     1       0.751   8.429  21.735  0.00  0.00    +0.000 F 
ATOM     18  C   UNL     1       1.894   8.105  19.697  0.00  0.00    +0.000 A 
ATOM     19  C   UNL     1       2.519   7.240  18.790  0.00  0.00    +0.000 A 
ENDBRANCH   7  13
BRANCH   4  20
ATOM     20  C   UNL     1       5.092   0.919  20.314  0.00  0.00    +0.000 A 
ATOM     21  C   UNL     1       5.529   1.253  21.607  0.00  0.00    +0.000 A 
ATOM     22  C   UNL     1       6.221   0.327  22.380  0.00  0.00    +0.000 A 
ATOM     23  C   UNL     1       6.526  -0.922  21.847  0.00  0.00    +0.000 A 
ATOM     24  C   UNL     1       6.156  -1.236  20.538  0.00  0.00    +0.000 A 
ATOM     25  C   UNL     1       5.449  -0.315  19.761  0.00  0.00    +0.000 A 
ENDBRANCH   4  20
BRANCH   8  26
ATOM     26  N   UNL     1       5.362   4.831  16.531  0.00  0.00    +0.000 N 
ATOM     27  C   UNL     1       5.534   5.559  15.384  0.00  0.00    +0.000 C 
ATOM     28  O   UNL     1       5.248   6.746  15.296  0.00  0.00    +0.000 OA
ATOM     29  H   UNL     1       5.712   3.885  16.593  0.00  0.00    +0.000 HD
BRANCH  27  30
ATOM     30  C   UNL     1       6.101   4.848  14.205  0.00  0.00    +0.000 A 
ATOM     31  C   UNL     1       7.376   5.217  13.753  0.00  0.00    +0.000 A 
ATOM     32  C   UNL     1       7.900   4.654  12.591  0.00  0.00    +0.000 A 
ATOM     33  C   UNL     1       7.147   3.727  11.868  0.00  0.00    +0.000 A 
ATOM     34  C   UNL     1       5.883   3.356  12.324  0.00  0.00    +0.000 A 
ATOM     35 CL   UNL     1       4.944   2.239  11.407  0.00  0.00    +0.000 Cl
ATOM     36  C   UNL     1       5.352   3.906  13.491  0.00  0.00    +0.000 A 
ENDBRANCH  27  30
ENDBRANCH   8  26
TORSDOF 4
ENDMDL
MODEL 5
REMARK VINA RESULT:      -7.3      9.360     12.379
REMARK  Name = 
REMARK  5 active torsions:
REMARK  status: ('A' for Active; 'I' for Inactive)
REMARK    1  A    between atoms: C_1  and  C_2
REMARK    2  A    between atoms: N_4  and  C_5
REMARK    3  A    between atoms: C_13  and  C_14
REMARK    4  A    between atoms: C_21  and  N_22
REMARK    5  A    between atoms: C_23  and  C_25
REMARK                            x       y       z     vdW  Elec       q    Type
REMARK                         _______ _______ _______ _____ _____    ______ ____
ROOT
ATOM      1  C   UNL     1      -0.574   9.668  22.436  0.00  0.00    +0.000 C 
ATOM      2  C   UNL     1      -0.692  11.150  22.410  0.00  0.00    +0.000 A 
ATOM      3  N   UNL     1      -1.316  11.784  23.416  0.00  0.00    +0.000 NA
ATOM      4  N   UNL     1      -1.315  13.098  23.073  0.00  0.00    +0.000 N 
ATOM      5  C   UNL     1      -0.706  13.280  21.845  0.00  0.00    +0.000 A 
ATOM      6  C   UNL     1      -0.282  12.052  21.399  0.00  0.00    +0.000 A 
ATOM      7  C   UNL     1       0.391  11.897  20.066  0.00  0.00    +0.000 C 
ATOM      8  C   UNL     1       0.910  13.281  19.576  0.00  0.00    +0.000 C 
ATOM      9  C   UNL     1      -0.124  14.385  19.830  0.00  0.00    +0.000 C 
ATOM     10  O   UNL     1      -0.376  15.281  19.017  0.00  0.00    +0.000 OA
ATOM     11  N   UNL     1      -0.669  14.434  21.088  0.00  0.00    +0.000 N 
ATOM     12  H   UNL     1      -1.279  15.216  21.289  0.00  0.00    +0.000 HD
ENDROOT
BRANCH   7  13
ATOM     13  C   UNL     1      -0.624  11.263  19.110  0.00  0.00    +0.000 A 
ATOM     14  C   UNL     1      -1.946  11.732  18.949  0.00  0.00    +0.000 A 
ATOM     15  C   UNL     1      -2.816  11.143  18.021  0.00  0.00    +0.000 A 
ATOM     16  C   UNL     1      -2.378  10.086  17.243  0.00  0.00    +0.000 A 
ATOM     17  F   UNL     1      -3.207   9.521  16.354  0.00  0.00    +0.000 F 
ATOM     18  C   UNL     1      -1.080   9.605  17.369  0.00  0.00    +0.000 A 
ATOM     19  C   UNL     1      -0.208  10.194  18.294  0.00  0.00    +0.000 A 
ENDBRANCH   7  13
BRANCH   4  20
ATOM     20  C   UNL     1      -1.979  14.083  23.848  0.00  0.00    +0.000 A 
ATOM     21  C   UNL     1      -1.245  14.982  24.639  0.00  0.00    +0.000 A 
ATOM     22  C   UNL     1      -1.874  16.063  25.247  0.00  0.00    +0.000 A 
ATOM     23  C   UNL     1      -3.250  16.223  25.112  0.00  0.00    +0.000 A 
ATOM     24  C   UNL     1      -3.997  15.293  24.385  0.00  0.00    +0.000 A 
ATOM     25  C   UNL     1      -3.369  14.213  23.760  0.00  0.00    +0.000 A 
ENDBRANCH   4  20
BRANCH   8  26
ATOM     26  N   UNL     1       2.131  13.712  20.290  0.00  0.00    +0.000 N 
ATOM     27  C   UNL     1       3.183  14.266  19.611  0.00  0.00    +0.000 C 
ATOM     28  O   UNL     1       3.174  14.452  18.401  0.00  0.00    +0.000 OA
ATOM     29  H   UNL     1       2.136  13.678  21.300  0.00  0.00    +0.000 HD
BRANCH  27  30
ATOM     30  C   UNL     1       4.379  14.655  20.408  0.00  0.00    +0.000 A 
ATOM     31  C   UNL     1       5.486  15.191  19.733  0.00  0.00    +0.000 A 
ATOM     32  C   UNL     1       6.664  15.468  20.423  0.00  0.00    +0.000 A 
ATOM     33  C   UNL     1       6.746  15.201  21.790  0.00  0.00    +0.000 A 
ATOM     34  C   UNL     1       5.642  14.676  22.462  0.00  0.00    +0.000 A 
ATOM     35 CL   UNL     1       5.762  14.315  24.142  0.00  0.00    +0.000 Cl
ATOM     36  C   UNL     1       4.454  14.403  21.782  0.00  0.00    +0.000 A 
ENDBRANCH  27  30
ENDBRANCH   8  26
TORSDOF 4
ENDMDL
MODEL 6
REMARK VINA RESULT:      -7.2      9.397     12.472
REMARK  Name = 
REMARK  5 active torsions:
REMARK  status: ('A' for Active; 'I' for Inactive)
REMARK    1  A    between atoms: C_1  and  C_2
REMARK    2  A    between atoms: N_4  and  C_5
REMARK    3  A    between atoms: C_13  and  C_14
REMARK    4  A    between atoms: C_21  and  N_22
REMARK    5  A    between atoms: C_23  and  C_25
REMARK                            x       y       z     vdW  Elec       q    Type
REMARK                         _______ _______ _______ _____ _____    ______ ____
ROOT
ATOM      1  C   UNL     1      -0.607   9.774  22.599  0.00  0.00    +0.000 C 
ATOM      2  C   UNL     1      -0.726  11.255  22.539  0.00  0.00    +0.000 A 
ATOM      3  N   UNL     1      -1.348  11.912  23.531  0.00  0.00    +0.000 NA
ATOM      4  N   UNL     1      -1.350  13.218  23.157  0.00  0.00    +0.000 N 
ATOM      5  C   UNL     1      -0.745  13.372  21.923  0.00  0.00    +0.000 A 
ATOM      6  C   UNL     1      -0.321  12.133  21.504  0.00  0.00    +0.000 A 
ATOM      7  C   UNL     1       0.348  11.947  20.174  0.00  0.00    +0.000 C 
ATOM      8  C   UNL     1       0.864  13.320  19.649  0.00  0.00    +0.000 C 
ATOM      9  C   UNL     1      -0.170  14.428  19.880  0.00  0.00    +0.000 C 
ATOM     10  O   UNL     1      -0.425  15.305  19.047  0.00  0.00    +0.000 OA
ATOM     11  N   UNL     1      -0.711  14.507  21.138  0.00  0.00    +0.000 N 
ATOM     12  H   UNL     1      -1.321  15.293  21.323  0.00  0.00    +0.000 HD
ENDROOT
BRANCH   7  13
ATOM     13  C   UNL     1      -0.669  11.290  19.236  0.00  0.00    +0.000 A 
ATOM     14  C   UNL     1      -2.009  11.716  19.113  0.00  0.00    +0.000 A 
ATOM     15  C   UNL     1      -2.883  11.109  18.201  0.00  0.00    +0.000 A 
ATOM     16  C   UNL     1      -2.430  10.075  17.400  0.00  0.00    +0.000 A 
ATOM     17  F   UNL     1      -3.262   9.491  16.526  0.00  0.00    +0.000 F 
ATOM     18  C   UNL     1      -1.114   9.635  17.489  0.00  0.00    +0.000 A 
ATOM     19  C   UNL     1      -0.239  10.243  18.398  0.00  0.00    +0.000 A 
ENDBRANCH   7  13
BRANCH   4  20
ATOM     20  C   UNL     1      -2.012  14.220  23.910  0.00  0.00    +0.000 A 
ATOM     21  C   UNL     1      -1.281  15.094  24.733  0.00  0.00    +0.000 A 
ATOM     22  C   UNL     1      -1.899  16.191  25.321  0.00  0.00    +0.000 A 
ATOM     23  C   UNL     1      -3.263  16.394  25.134  0.00  0.00    +0.000 A 
ATOM     24  C   UNL     1      -4.010  15.491  24.375  0.00  0.00    +0.000 A 
ATOM     25  C   UNL     1      -3.392  14.394  23.770  0.00  0.00    +0.000 A 
ENDBRANCH   4  20
BRANCH   8  26
ATOM     26  N   UNL     1       2.087  13.769  20.349  0.00  0.00    +0.000 N 
ATOM     27  C   UNL     1       3.154  14.265  19.650  0.00  0.00    +0.000 C 
ATOM     28  O   UNL     1       3.159  14.383  18.431  0.00  0.00    +0.000 OA
ATOM     29  H   UNL     1       2.084  13.791  21.359  0.00  0.00    +0.000 HD
BRANCH  27  30
ATOM     30  C   UNL     1       4.351  14.677  20.434  0.00  0.00    +0.000 A 
ATOM     31  C   UNL     1       4.331  14.499  21.825  0.00  0.00    +0.000 A 
ATOM     32  C   UNL     1       5.384  14.968  22.609  0.00  0.00    +0.000 A 
ATOM     33  C   UNL     1       6.458  15.625  22.007  0.00  0.00    +0.000 A 
ATOM     34  C   UNL     1       6.480  15.792  20.623  0.00  0.00    +0.000 A 
ATOM     35 CL   UNL     1       7.791  16.637  19.890  0.00  0.00    +0.000 Cl
ATOM     36  C   UNL     1       5.436  15.320  19.827  0.00  0.00    +0.000 A 
ENDBRANCH  27  30
ENDBRANCH   8  26
TORSDOF 4
ENDMDL
MODEL 7
REMARK VINA RESULT:      -7.1      9.337     12.429
REMARK  Name = 
REMARK  5 active torsions:
REMARK  status: ('A' for Active; 'I' for Inactive)
REMARK    1  A    between atoms: C_1  and  C_2
REMARK    2  A    between atoms: N_4  and  C_5
REMARK    3  A    between atoms: C_13  and  C_14
REMARK    4  A    between atoms: C_21  and  N_22
REMARK    5  A    between atoms: C_23  and  C_25
REMARK                            x       y       z     vdW  Elec       q    Type
REMARK                         _______ _______ _______ _____ _____    ______ ____
ROOT
ATOM      1  C   UNL     1      -0.562   9.814  22.607  0.00  0.00    +0.000 C 
ATOM      2  C   UNL     1      -0.648  11.295  22.510  0.00  0.00    +0.000 A 
ATOM      3  N   UNL     1      -1.332  11.983  23.439  0.00  0.00    +0.000 NA
ATOM      4  N   UNL     1      -1.280  13.280  23.042  0.00  0.00    +0.000 N 
ATOM      5  C   UNL     1      -0.578  13.399  21.857  0.00  0.00    +0.000 A 
ATOM      6  C   UNL     1      -0.147  12.145  21.495  0.00  0.00    +0.000 A 
ATOM      7  C   UNL     1       0.620  11.922  20.225  0.00  0.00    +0.000 C 
ATOM      8  C   UNL     1       1.202  13.275  19.717  0.00  0.00    +0.000 C 
ATOM      9  C   UNL     1       0.174  14.406  19.847  0.00  0.00    +0.000 C 
ATOM     10  O   UNL     1       0.002  15.270  18.980  0.00  0.00    +0.000 OA
ATOM     11  N   UNL     1      -0.462  14.518  21.057  0.00  0.00    +0.000 N 
ATOM     12  H   UNL     1      -1.069  15.319  21.179  0.00  0.00    +0.000 HD
ENDROOT
BRANCH   7  13
ATOM     13  C   UNL     1      -0.334  11.264  19.223  0.00  0.00    +0.000 A 
ATOM     14  C   UNL     1       0.024  10.172  18.404  0.00  0.00    +0.000 A 
ATOM     15  C   UNL     1      -0.906   9.577  17.541  0.00  0.00    +0.000 A 
ATOM     16  C   UNL     1      -2.201  10.061  17.488  0.00  0.00    +0.000 A 
ATOM     17  F   UNL     1      -3.094   9.495  16.663  0.00  0.00    +0.000 F 
ATOM     18  C   UNL     1      -2.591  11.130  18.287  0.00  0.00    +0.000 A 
ATOM     19  C   UNL     1      -1.663  11.724  19.152  0.00  0.00    +0.000 A 
ENDBRANCH   7  13
BRANCH   4  20
ATOM     20  C   UNL     1      -1.979  14.309  23.724  0.00  0.00    +0.000 A 
ATOM     21  C   UNL     1      -3.346  14.526  23.479  0.00  0.00    +0.000 A 
ATOM     22  C   UNL     1      -4.075  15.400  24.278  0.00  0.00    +0.000 A 
ATOM     23  C   UNL     1      -3.433  16.103  25.293  0.00  0.00    +0.000 A 
ATOM     24  C   UNL     1      -2.060  15.944  25.497  0.00  0.00    +0.000 A 
ATOM     25  C   UNL     1      -1.324  15.057  24.707  0.00  0.00    +0.000 A 
ENDBRANCH   4  20
BRANCH   8  26
ATOM     26  N   UNL     1       2.375  13.716  20.502  0.00  0.00    +0.000 N 
ATOM     27  C   UNL     1       3.446  14.310  19.891  0.00  0.00    +0.000 C 
ATOM     28  O   UNL     1       3.494  14.526  18.687  0.00  0.00    +0.000 OA
ATOM     29  H   UNL     1       2.331  13.656  21.510  0.00  0.00    +0.000 HD
BRANCH  27  30
ATOM     30  C   UNL     1       4.591  14.706  20.756  0.00  0.00    +0.000 A 
ATOM     31  C   UNL     1       5.678  15.367  20.164  0.00  0.00    +0.000 A 
ATOM     32  C   UNL     1       6.816  15.660  20.914  0.00  0.00    +0.000 A 
ATOM     33  C   UNL     1       6.877  15.284  22.256  0.00  0.00    +0.000 A 
ATOM     34  C   UNL     1       5.792  14.635  22.845  0.00  0.00    +0.000 A 
ATOM     35 CL   UNL     1       5.890  14.141  24.493  0.00  0.00    +0.000 Cl
ATOM     36  C   UNL     1       4.645  14.345  22.107  0.00  0.00    +0.000 A 
ENDBRANCH  27  30
ENDBRANCH   8  26
TORSDOF 4
ENDMDL
MODEL 8
REMARK VINA RESULT:      -7.0      9.426     12.226
REMARK  Name = 
REMARK  5 active torsions:
REMARK  status: ('A' for Active; 'I' for Inactive)
REMARK    1  A    between atoms: C_1  and  C_2
REMARK    2  A    between atoms: N_4  and  C_5
REMARK    3  A    between atoms: C_13  and  C_14
REMARK    4  A    between atoms: C_21  and  N_22
REMARK    5  A    between atoms: C_23  and  C_25
REMARK                            x       y       z     vdW  Elec       q    Type
REMARK                         _______ _______ _______ _____ _____    ______ ____
ROOT
ATOM      1  C   UNL     1      -0.250   9.831  22.066  0.00  0.00    +0.000 C 
ATOM      2  C   UNL     1      -0.339  11.315  22.055  0.00  0.00    +0.000 A 
ATOM      3  N   UNL     1      -0.828  11.959  23.128  0.00  0.00    +0.000 NA
ATOM      4  N   UNL     1      -0.839  13.274  22.788  0.00  0.00    +0.000 N 
ATOM      5  C   UNL     1      -0.374  13.448  21.498  0.00  0.00    +0.000 A 
ATOM      6  C   UNL     1      -0.031  12.212  21.004  0.00  0.00    +0.000 A 
ATOM      7  C   UNL     1       0.479  12.048  19.602  0.00  0.00    +0.000 C 
ATOM      8  C   UNL     1       0.967  13.422  19.056  0.00  0.00    +0.000 C 
ATOM      9  C   UNL     1      -0.007  14.547  19.429  0.00  0.00    +0.000 C 
ATOM     10  O   UNL     1      -0.332  15.451  18.652  0.00  0.00    +0.000 OA
ATOM     11  N   UNL     1      -0.401  14.603  20.742  0.00  0.00    +0.000 N 
ATOM     12  H   UNL     1      -0.966  15.397  21.014  0.00  0.00    +0.000 HD
ENDROOT
BRANCH   7  13
ATOM     13  C   UNL     1      -0.654  11.439  18.770  0.00  0.00    +0.000 A 
ATOM     14  C   UNL     1      -0.514  10.263  18.001  0.00  0.00    +0.000 A 
ATOM     15  C   UNL     1      -1.599   9.723  17.299  0.00  0.00    +0.000 A 
ATOM     16  C   UNL     1      -2.835  10.344  17.359  0.00  0.00    +0.000 A 
ATOM     17  F   UNL     1      -3.876   9.829  16.689  0.00  0.00    +0.000 F 
ATOM     18  C   UNL     1      -3.010  11.498  18.114  0.00  0.00    +0.000 A 
ATOM     19  C   UNL     1      -1.927  12.037  18.819  0.00  0.00    +0.000 A 
ENDBRANCH   7  13
BRANCH   4  20
ATOM     20  C   UNL     1      -1.387  14.269  23.636  0.00  0.00    +0.000 A 
ATOM     21  C   UNL     1      -2.703  14.155  24.114  0.00  0.00    +0.000 A 
ATOM     22  C   UNL     1      -3.177  15.023  25.092  0.00  0.00    +0.000 A 
ATOM     23  C   UNL     1      -2.356  16.044  25.561  0.00  0.00    +0.000 A 
ATOM     24  C   UNL     1      -1.071  16.207  25.040  0.00  0.00    +0.000 A 
ATOM     25  C   UNL     1      -0.584  15.330  24.068  0.00  0.00    +0.000 A 
ENDBRANCH   4  20
BRANCH   8  26
ATOM     26  N   UNL     1       2.272  13.826  19.623  0.00  0.00    +0.000 N 
ATOM     27  C   UNL     1       3.191  14.496  18.862  0.00  0.00    +0.000 C 
ATOM     28  O   UNL     1       2.992  14.814  17.697  0.00  0.00    +0.000 OA
ATOM     29  H   UNL     1       2.434  13.681  20.610  0.00  0.00    +0.000 HD
BRANCH  27  30
ATOM     30  C   UNL     1       4.486  14.846  19.509  0.00  0.00    +0.000 A 
ATOM     31  C   UNL     1       4.571  14.786  20.908  0.00  0.00    +0.000 A 
ATOM     32  C   UNL     1       5.728  15.207  21.561  0.00  0.00    +0.000 A 
ATOM     33  C   UNL     1       6.802  15.701  20.820  0.00  0.00    +0.000 A 
ATOM     34  C   UNL     1       6.718  15.752  19.428  0.00  0.00    +0.000 A 
ATOM     35 CL   UNL     1       8.035  16.396  18.522  0.00  0.00    +0.000 Cl
ATOM     36  C   UNL     1       5.569  15.324  18.764  0.00  0.00    +0.000 A 
ENDBRANCH  27  30
ENDBRANCH   8  26
TORSDOF 4
ENDMDL
MODEL 9
REMARK VINA RESULT:      -6.9      9.300     11.643
REMARK  Name = 
REMARK  5 active torsions:
REMARK  status: ('A' for Active; 'I' for Inactive)
REMARK    1  A    between atoms: C_1  and  C_2
REMARK    2  A    between atoms: N_4  and  C_5
REMARK    3  A    between atoms: C_13  and  C_14
REMARK    4  A    between atoms: C_21  and  N_22
REMARK    5  A    between atoms: C_23  and  C_25
REMARK                            x       y       z     vdW  Elec       q    Type
REMARK                         _______ _______ _______ _____ _____    ______ ____
ROOT
ATOM      1  C   UNL     1       7.532  11.463  24.389  0.00  0.00    +0.000 C 
ATOM      2  C   UNL     1       7.831  12.120  23.090  0.00  0.00    +0.000 A 
ATOM      3  N   UNL     1       8.731  11.570  22.259  0.00  0.00    +0.000 NA
ATOM      4  N   UNL     1       8.827  12.425  21.208  0.00  0.00    +0.000 N 
ATOM      5  C   UNL     1       7.998  13.517  21.392  0.00  0.00    +0.000 A 
ATOM      6  C   UNL     1       7.335  13.346  22.584  0.00  0.00    +0.000 A 
ATOM      7  C   UNL     1       6.379  14.382  23.098  0.00  0.00    +0.000 C 
ATOM      8  C   UNL     1       5.950  15.325  21.936  0.00  0.00    +0.000 C 
ATOM      9  C   UNL     1       7.147  15.704  21.055  0.00  0.00    +0.000 C 
ATOM     10  O   UNL     1       7.332  16.843  20.613  0.00  0.00    +0.000 OA
ATOM     11  N   UNL     1       7.949  14.672  20.638  0.00  0.00    +0.000 N 
ATOM     12  H   UNL     1       8.683  14.904  19.981  0.00  0.00    +0.000 HD
ENDROOT
BRANCH   7  13
ATOM     13  C   UNL     1       7.077  15.121  24.245  0.00  0.00    +0.000 A 
ATOM     14  C   UNL     1       8.476  15.279  24.336  0.00  0.00    +0.000 A 
ATOM     15  C   UNL     1       9.057  16.010  25.382  0.00  0.00    +0.000 A 
ATOM     16  C   UNL     1       8.250  16.593  26.343  0.00  0.00    +0.000 A 
ATOM     17  F   UNL     1       8.802  17.292  27.345  0.00  0.00    +0.000 F 
ATOM     18  C   UNL     1       6.867  16.465  26.279  0.00  0.00    +0.000 A 
ATOM     19  C   UNL     1       6.286  15.737  25.233  0.00  0.00    +0.000 A 
ENDBRANCH   7  13
BRANCH   4  20
ATOM     20  C   UNL     1       9.761  12.234  20.159  0.00  0.00    +0.000 A 
ATOM     21  C   UNL     1      11.141  12.242  20.422  0.00  0.00    +0.000 A 
ATOM     22  C   UNL     1      12.049  11.868  19.437  0.00  0.00    +0.000 A 
ATOM     23  C   UNL     1      11.588  11.532  18.168  0.00  0.00    +0.000 A 
ATOM     24  C   UNL     1      10.223  11.589  17.880  0.00  0.00    +0.000 A 
ATOM     25  C   UNL     1       9.304  11.951  18.868  0.00  0.00    +0.000 A 
ENDBRANCH   4  20
BRANCH   8  26
ATOM     26  N   UNL     1       4.974  14.690  21.023  0.00  0.00    +0.000 N 
ATOM     27  C   UNL     1       3.685  14.460  21.423  0.00  0.00    +0.000 C 
ATOM     28  O   UNL     1       3.261  14.773  22.528  0.00  0.00    +0.000 OA
ATOM     29  H   UNL     1       5.252  14.516  20.067  0.00  0.00    +0.000 HD
BRANCH  27  30
ATOM     30  C   UNL     1       2.777  13.799  20.445  0.00  0.00    +0.000 A 
ATOM     31  C   UNL     1       3.068  13.916  19.078  0.00  0.00    +0.000 A 
ATOM     32  C   UNL     1       2.188  13.406  18.126  0.00  0.00    +0.000 A 
ATOM     33  C   UNL     1       1.007  12.784  18.535  0.00  0.00    +0.000 A 
ATOM     34  C   UNL     1       0.724  12.661  19.895  0.00  0.00    +0.000 A 
ATOM     35 CL   UNL     1      -0.753  11.925  20.391  0.00  0.00    +0.000 Cl
ATOM     36  C   UNL     1       1.602  13.160  20.857  0.00  0.00    +0.000 A 
ENDBRANCH  27  30
ENDBRANCH   8  26
TORSDOF 4
ENDMDL
