MODEL 1
REMARK VINA RESULT:      -7.5      0.000      0.000
REMARK  Name = 
REMARK  6 active torsions:
REMARK  status: ('A' for Active; 'I' for Inactive)
REMARK    1  A    between atoms: C_1  and  C_2
REMARK    2  A    between atoms: C_2  and  C_3
REMARK    3  A    between atoms: C_7  and  O_8
REMARK    4  A    between atoms: C_10  and  C_11
REMARK    5  A    between atoms: C_14  and  C_15
REMARK    6  A    between atoms: C_18  and  O_19
REMARK                            x       y       z     vdW  Elec       q    Type
REMARK                         _______ _______ _______ _____ _____    ______ ____
ROOT
ATOM      1  C   UNL     1       2.859   5.378  17.795  0.00  0.00    +0.000 C 
ATOM      2  O   UNL     1       1.901   5.053  18.797  0.00  0.00    +0.000 OA
ATOM      3  C   UNL     1       2.270   4.086  19.687  0.00  0.00    +0.000 A 
ATOM      4  C   UNL     1       1.328   3.803  20.678  0.00  0.00    +0.000 A 
ATOM      5  C   UNL     1       1.603   2.827  21.622  0.00  0.00    +0.000 A 
ATOM      6  C   UNL     1       2.795   2.112  21.578  0.00  0.00    +0.000 A 
ATOM      7  C   UNL     1       3.748   2.392  20.587  0.00  0.00    +0.000 A 
ATOM      8  C   UNL     1       5.021   1.595  20.539  0.00  0.00    +0.000 C 
ATOM      9  C   UNL     1       3.493   3.403  19.637  0.00  0.00    +0.000 A 
ATOM     10  N   UNL     1       4.465   3.682  18.665  0.00  0.00    +0.000 NA
ATOM     11  C   UNL     1       4.189   4.591  17.781  0.00  0.00    +0.000 C 
ENDROOT
BRANCH  11  12
ATOM     12  C   UNL     1       5.192   4.849  16.695  0.00  0.00    +0.000 A 
ATOM     13  C   UNL     1       6.301   5.661  16.973  0.00  0.00    +0.000 A 
ATOM     14  C   UNL     1       7.283   5.878  16.001  0.00  0.00    +0.000 A 
ATOM     15  C   UNL     1       7.164   5.268  14.754  0.00  0.00    +0.000 A 
ATOM     16  C   UNL     1       6.061   4.458  14.472  0.00  0.00    +0.000 A 
ATOM     17 BR   UNL     1       5.873   3.586  12.797  0.00  0.00    +0.000 Br
ATOM     18  C   UNL     1       5.073   4.253  15.436  0.00  0.00    +0.000 A 
BRANCH  15  19
ATOM     19  O   UNL     1       8.130   5.460  13.807  0.00  0.00    +0.000 OA
ATOM     20  H   UNL     1       7.859   6.170  13.205  0.00  0.00    +0.000 HD
ENDBRANCH  15  19
ENDBRANCH  11  12
BRANCH   1  22
ATOM     21  C   UNL     1       2.328   7.540  19.038  0.00  0.00    +0.000 C 
ATOM     22  C   UNL     1       3.112   6.894  17.899  0.00  0.00    +0.000 C 
ENDBRANCH   1  22
BRANCH   5  23
ATOM     23  O   UNL     1       0.717   2.522  22.612  0.00  0.00    +0.000 OA
ATOM     24  H   UNL     1       1.203   2.093  23.339  0.00  0.00    +0.000 HD
ENDBRANCH   5  23
TORSDOF 4
ENDMDL
MODEL 2
REMARK VINA RESULT:      -7.5      3.084      5.397
REMARK  Name = 
REMARK  6 active torsions:
REMARK  status: ('A' for Active; 'I' for Inactive)
REMARK    1  A    between atoms: C_1  and  C_2
REMARK    2  A    between atoms: C_2  and  C_3
REMARK    3  A    between atoms: C_7  and  O_8
REMARK    4  A    between atoms: C_10  and  C_11
REMARK    5  A    between atoms: C_14  and  C_15
REMARK    6  A    between atoms: C_18  and  O_19
REMARK                            x       y       z     vdW  Elec       q    Type
REMARK                         _______ _______ _______ _____ _____    ______ ____
ROOT
ATOM      1  C   UNL     1       2.020   5.866  20.659  0.00  0.00    +0.000 C 
ATOM      2  O   UNL     1       1.229   6.760  21.434  0.00  0.00    +0.000 OA
ATOM      3  C   UNL     1       1.010   7.992  20.889  0.00  0.00    +0.000 A 
ATOM      4  C   UNL     1       0.209   8.844  21.652  0.00  0.00    +0.000 A 
ATOM      5  C   UNL     1      -0.062  10.122  21.191  0.00  0.00    +0.000 A 
ATOM      6  C   UNL     1       0.475  10.572  19.989  0.00  0.00    +0.000 A 
ATOM      7  C   UNL     1       1.280   9.721  19.215  0.00  0.00    +0.000 A 
ATOM      8  C   UNL     1       1.872  10.230  17.931  0.00  0.00    +0.000 C 
ATOM      9  C   UNL     1       1.539   8.409  19.660  0.00  0.00    +0.000 A 
ATOM     10  N   UNL     1       2.330   7.566  18.864  0.00  0.00    +0.000 NA
ATOM     11  C   UNL     1       2.584   6.376  19.314  0.00  0.00    +0.000 C 
ENDROOT
BRANCH  11  12
ATOM     12  C   UNL     1       3.485   5.491  18.505  0.00  0.00    +0.000 A 
ATOM     13  C   UNL     1       2.916   4.605  17.579  0.00  0.00    +0.000 A 
ATOM     14  C   UNL     1       3.729   3.806  16.769  0.00  0.00    +0.000 A 
ATOM     15  C   UNL     1       5.115   3.904  16.875  0.00  0.00    +0.000 A 
ATOM     16  C   UNL     1       5.688   4.784  17.795  0.00  0.00    +0.000 A 
ATOM     17 BR   UNL     1       7.569   4.971  17.953  0.00  0.00    +0.000 Br
ATOM     18  C   UNL     1       4.877   5.573  18.614  0.00  0.00    +0.000 A 
BRANCH  15  19
ATOM     19  O   UNL     1       5.915   3.140  16.072  0.00  0.00    +0.000 OA
ATOM     20  H   UNL     1       6.753   2.958  16.526  0.00  0.00    +0.000 HD
ENDBRANCH  15  19
ENDBRANCH  11  12
BRANCH   1  22
ATOM     21  C   UNL     1       1.723   3.404  21.255  0.00  0.00    +0.000 C 
ATOM     22  C   UNL     1       1.180   4.590  20.461  0.00  0.00    +0.000 C 
ENDBRANCH   1  22
BRANCH   5  23
ATOM     23  O   UNL     1      -0.845  10.985  21.897  0.00  0.00    +0.000 OA
ATOM     24  H   UNL     1      -1.184  11.664  21.287  0.00  0.00    +0.000 HD
ENDBRANCH   5  23
TORSDOF 4
ENDMDL
MODEL 3
REMARK VINA RESULT:      -7.2      3.732      5.982
REMARK  Name = 
REMARK  6 active torsions:
REMARK  status: ('A' for Active; 'I' for Inactive)
REMARK    1  A    between atoms: C_1  and  C_2
REMARK    2  A    between atoms: C_2  and  C_3
REMARK    3  A    between atoms: C_7  and  O_8
REMARK    4  A    between atoms: C_10  and  C_11
REMARK    5  A    between atoms: C_14  and  C_15
REMARK    6  A    between atoms: C_18  and  O_19
REMARK                            x       y       z     vdW  Elec       q    Type
REMARK                         _______ _______ _______ _____ _____    ______ ____
ROOT
ATOM      1  C   UNL     1       4.156   6.440  18.305  0.00  0.00    +0.000 C 
ATOM      2  O   UNL     1       4.712   5.138  18.160  0.00  0.00    +0.000 OA
ATOM      3  C   UNL     1       3.885   4.096  18.471  0.00  0.00    +0.000 A 
ATOM      4  C   UNL     1       4.441   2.827  18.294  0.00  0.00    +0.000 A 
ATOM      5  C   UNL     1       3.687   1.704  18.594  0.00  0.00    +0.000 A 
ATOM      6  C   UNL     1       2.393   1.830  19.090  0.00  0.00    +0.000 A 
ATOM      7  C   UNL     1       1.827   3.101  19.268  0.00  0.00    +0.000 A 
ATOM      8  C   UNL     1       0.437   3.221  19.828  0.00  0.00    +0.000 C 
ATOM      9  C   UNL     1       2.574   4.251  18.940  0.00  0.00    +0.000 A 
ATOM     10  N   UNL     1       1.985   5.514  19.106  0.00  0.00    +0.000 NA
ATOM     11  C   UNL     1       2.708   6.556  18.832  0.00  0.00    +0.000 C 
ENDROOT
BRANCH  11  12
ATOM     12  C   UNL     1       2.113   7.912  19.072  0.00  0.00    +0.000 A 
ATOM     13  C   UNL     1       2.041   8.823  18.008  0.00  0.00    +0.000 A 
ATOM     14  C   UNL     1       1.443  10.074  18.183  0.00  0.00    +0.000 A 
ATOM     15  C   UNL     1       0.901  10.411  19.422  0.00  0.00    +0.000 A 
ATOM     16  C   UNL     1       0.970   9.509  20.486  0.00  0.00    +0.000 A 
ATOM     17 BR   UNL     1       0.221   9.915  22.181  0.00  0.00    +0.000 Br
ATOM     18  C   UNL     1       1.580   8.264  20.316  0.00  0.00    +0.000 A 
BRANCH  15  19
ATOM     19  O   UNL     1       0.298  11.625  19.594  0.00  0.00    +0.000 OA
ATOM     20  H   UNL     1      -0.284  11.808  18.840  0.00  0.00    +0.000 HD
ENDBRANCH  15  19
ENDBRANCH  11  12
BRANCH   1  22
ATOM     21  C   UNL     1       5.168   6.341  15.967  0.00  0.00    +0.000 C 
ATOM     22  C   UNL     1       4.310   7.142  16.942  0.00  0.00    +0.000 C 
ENDBRANCH   1  22
BRANCH   5  23
ATOM     23  O   UNL     1       4.183   0.446  18.430  0.00  0.00    +0.000 OA
ATOM     24  H   UNL     1       5.154   0.502  18.376  0.00  0.00    +0.000 HD
ENDBRANCH   5  23
TORSDOF 4
ENDMDL
MODEL 4
REMARK VINA RESULT:      -6.9      3.486      6.872
REMARK  Name = 
REMARK  6 active torsions:
REMARK  status: ('A' for Active; 'I' for Inactive)
REMARK    1  A    between atoms: C_1  and  C_2
REMARK    2  A    between atoms: C_2  and  C_3
REMARK    3  A    between atoms: C_7  and  O_8
REMARK    4  A    between atoms: C_10  and  C_11
REMARK    5  A    between atoms: C_14  and  C_15
REMARK    6  A    between atoms: C_18  and  O_19
REMARK                            x       y       z     vdW  Elec       q    Type
REMARK                         _______ _______ _______ _____ _____    ______ ____
ROOT
ATOM      1  C   UNL     1       1.778   5.406  18.927  0.00  0.00    +0.000 C 
ATOM      2  O   UNL     1       2.396   4.390  18.145  0.00  0.00    +0.000 OA
ATOM      3  C   UNL     1       3.607   4.707  17.601  0.00  0.00    +0.000 A 
ATOM      4  C   UNL     1       4.209   3.686  16.861  0.00  0.00    +0.000 A 
ATOM      5  C   UNL     1       5.435   3.913  16.257  0.00  0.00    +0.000 A 
ATOM      6  C   UNL     1       6.060   5.152  16.361  0.00  0.00    +0.000 A 
ATOM      7  C   UNL     1       5.463   6.181  17.105  0.00  0.00    +0.000 A 
ATOM      8  C   UNL     1       6.138   7.521  17.188  0.00  0.00    +0.000 C 
ATOM      9  C   UNL     1       4.228   5.954  17.748  0.00  0.00    +0.000 A 
ATOM     10  N   UNL     1       3.655   6.989  18.502  0.00  0.00    +0.000 NA
ATOM     11  C   UNL     1       2.501   6.765  19.053  0.00  0.00    +0.000 C 
ENDROOT
BRANCH  11  12
ATOM     12  C   UNL     1       1.847   7.887  19.803  0.00  0.00    +0.000 A 
ATOM     13  C   UNL     1       1.753   7.808  21.200  0.00  0.00    +0.000 A 
ATOM     14  C   UNL     1       1.200   8.860  21.936  0.00  0.00    +0.000 A 
ATOM     15  C   UNL     1       0.751  10.001  21.274  0.00  0.00    +0.000 A 
ATOM     16  C   UNL     1       0.841  10.086  19.883  0.00  0.00    +0.000 A 
ATOM     17 BR   UNL     1       0.270  11.632  18.944  0.00  0.00    +0.000 Br
ATOM     18  C   UNL     1       1.381   9.030  19.146  0.00  0.00    +0.000 A 
BRANCH  15  19
ATOM     19  O   UNL     1       0.227  11.041  21.989  0.00  0.00    +0.000 OA
ATOM     20  H   UNL     1      -0.741  11.019  21.933  0.00  0.00    +0.000 HD
ENDBRANCH  15  19
ENDBRANCH  11  12
BRANCH   1  22
ATOM     21  C   UNL     1       0.972   3.364  20.225  0.00  0.00    +0.000 C 
ATOM     22  C   UNL     1       1.503   4.792  20.313  0.00  0.00    +0.000 C 
ENDBRANCH   1  22
BRANCH   5  23
ATOM     23  O   UNL     1       6.064   2.946  15.533  0.00  0.00    +0.000 OA
ATOM     24  H   UNL     1       7.026   3.082  15.605  0.00  0.00    +0.000 HD
ENDBRANCH   5  23
TORSDOF 4
ENDMDL
MODEL 5
REMARK VINA RESULT:      -6.8      1.635      2.192
REMARK  Name = 
REMARK  6 active torsions:
REMARK  status: ('A' for Active; 'I' for Inactive)
REMARK    1  A    between atoms: C_1  and  C_2
REMARK    2  A    between atoms: C_2  and  C_3
REMARK    3  A    between atoms: C_7  and  O_8
REMARK    4  A    between atoms: C_10  and  C_11
REMARK    5  A    between atoms: C_14  and  C_15
REMARK    6  A    between atoms: C_18  and  O_19
REMARK                            x       y       z     vdW  Elec       q    Type
REMARK                         _______ _______ _______ _____ _____    ______ ____
ROOT
ATOM      1  C   UNL     1       4.632   6.014  17.180  0.00  0.00    +0.000 C 
ATOM      2  O   UNL     1       3.962   6.049  18.436  0.00  0.00    +0.000 OA
ATOM      3  C   UNL     1       3.663   4.837  18.989  0.00  0.00    +0.000 A 
ATOM      4  C   UNL     1       3.031   4.895  20.234  0.00  0.00    +0.000 A 
ATOM      5  C   UNL     1       2.675   3.718  20.873  0.00  0.00    +0.000 A 
ATOM      6  C   UNL     1       2.918   2.485  20.278  0.00  0.00    +0.000 A 
ATOM      7  C   UNL     1       3.554   2.419  19.029  0.00  0.00    +0.000 A 
ATOM      8  C   UNL     1       3.788   1.080  18.388  0.00  0.00    +0.000 C 
ATOM      9  C   UNL     1       3.948   3.608  18.381  0.00  0.00    +0.000 A 
ATOM     10  N   UNL     1       4.600   3.521  17.141  0.00  0.00    +0.000 NA
ATOM     11  C   UNL     1       4.918   4.632  16.550  0.00  0.00    +0.000 C 
ENDROOT
BRANCH  11  12
ATOM     12  C   UNL     1       5.552   4.553  15.192  0.00  0.00    +0.000 A 
ATOM     13  C   UNL     1       6.876   4.987  15.034  0.00  0.00    +0.000 A 
ATOM     14  C   UNL     1       7.516   4.877  13.796  0.00  0.00    +0.000 A 
ATOM     15  C   UNL     1       6.835   4.317  12.716  0.00  0.00    +0.000 A 
ATOM     16  C   UNL     1       5.517   3.883  12.868  0.00  0.00    +0.000 A 
ATOM     17 BR   UNL     1       4.562   3.090  11.433  0.00  0.00    +0.000 Br
ATOM     18  C   UNL     1       4.872   4.006  14.100  0.00  0.00    +0.000 A 
BRANCH  15  19
ATOM     19  O   UNL     1       7.462   4.189  11.509  0.00  0.00    +0.000 OA
ATOM     20  H   UNL     1       8.179   4.839  11.444  0.00  0.00    +0.000 HD
ENDBRANCH  15  19
ENDBRANCH  11  12
BRANCH   1  22
ATOM     21  C   UNL     1       6.920   6.157  18.297  0.00  0.00    +0.000 C 
ATOM     22  C   UNL     1       5.930   6.826  17.348  0.00  0.00    +0.000 C 
ENDBRANCH   1  22
BRANCH   5  23
ATOM     23  O   UNL     1       2.064   3.725  22.091  0.00  0.00    +0.000 OA
ATOM     24  H   UNL     1       2.529   3.097  22.673  0.00  0.00    +0.000 HD
ENDBRANCH   5  23
TORSDOF 4
ENDMDL
MODEL 6
REMARK VINA RESULT:      -6.8      4.594      7.186
REMARK  Name = 
REMARK  6 active torsions:
REMARK  status: ('A' for Active; 'I' for Inactive)
REMARK    1  A    between atoms: C_1  and  C_2
REMARK    2  A    between atoms: C_2  and  C_3
REMARK    3  A    between atoms: C_7  and  O_8
REMARK    4  A    between atoms: C_10  and  C_11
REMARK    5  A    between atoms: C_14  and  C_15
REMARK    6  A    between atoms: C_18  and  O_19
REMARK                            x       y       z     vdW  Elec       q    Type
REMARK                         _______ _______ _______ _____ _____    ______ ____
ROOT
ATOM      1  C   UNL     1       0.852   8.143  20.754  0.00  0.00    +0.000 C 
ATOM      2  O   UNL     1       1.312   6.823  21.020  0.00  0.00    +0.000 OA
ATOM      3  C   UNL     1       2.215   6.313  20.130  0.00  0.00    +0.000 A 
ATOM      4  C   UNL     1       2.675   5.027  20.425  0.00  0.00    +0.000 A 
ATOM      5  C   UNL     1       3.584   4.417  19.576  0.00  0.00    +0.000 A 
ATOM      6  C   UNL     1       4.023   5.061  18.424  0.00  0.00    +0.000 A 
ATOM      7  C   UNL     1       3.567   6.353  18.123  0.00  0.00    +0.000 A 
ATOM      8  C   UNL     1       4.033   7.026  16.862  0.00  0.00    +0.000 C 
ATOM      9  C   UNL     1       2.664   6.997  18.993  0.00  0.00    +0.000 A 
ATOM     10  N   UNL     1       2.233   8.297  18.685  0.00  0.00    +0.000 NA
ATOM     11  C   UNL     1       1.374   8.851  19.484  0.00  0.00    +0.000 C 
ENDROOT
BRANCH  11  12
ATOM     12  C   UNL     1       0.854  10.213  19.127  0.00  0.00    +0.000 A 
ATOM     13  C   UNL     1      -0.532  10.420  19.078  0.00  0.00    +0.000 A 
ATOM     14  C   UNL     1      -1.051  11.689  18.803  0.00  0.00    +0.000 A 
ATOM     15  C   UNL     1      -0.181  12.757  18.591  0.00  0.00    +0.000 A 
ATOM     16  C   UNL     1       1.200  12.556  18.638  0.00  0.00    +0.000 A 
ATOM     17 BR   UNL     1       2.420  13.987  18.384  0.00  0.00    +0.000 Br
ATOM     18  C   UNL     1       1.720  11.287  18.899  0.00  0.00    +0.000 A 
BRANCH  15  19
ATOM     19  O   UNL     1      -0.681  14.004  18.342  0.00  0.00    +0.000 OA
ATOM     20  H   UNL     1      -0.924  14.431  19.178  0.00  0.00    +0.000 HD
ENDBRANCH  15  19
ENDBRANCH  11  12
BRANCH   1  22
ATOM     21  C   UNL     1      -0.126   9.401  22.745  0.00  0.00    +0.000 C 
ATOM     22  C   UNL     1       1.146   8.977  22.016  0.00  0.00    +0.000 C 
ENDBRANCH   1  22
BRANCH   5  23
ATOM     23  O   UNL     1       4.066   3.167  19.826  0.00  0.00    +0.000 OA
ATOM     24  H   UNL     1       3.327   2.603  20.118  0.00  0.00    +0.000 HD
ENDBRANCH   5  23
TORSDOF 4
ENDMDL
MODEL 7
REMARK VINA RESULT:      -6.7      4.724      7.263
REMARK  Name = 
REMARK  6 active torsions:
REMARK  status: ('A' for Active; 'I' for Inactive)
REMARK    1  A    between atoms: C_1  and  C_2
REMARK    2  A    between atoms: C_2  and  C_3
REMARK    3  A    between atoms: C_7  and  O_8
REMARK    4  A    between atoms: C_10  and  C_11
REMARK    5  A    between atoms: C_14  and  C_15
REMARK    6  A    between atoms: C_18  and  O_19
REMARK                            x       y       z     vdW  Elec       q    Type
REMARK                         _______ _______ _______ _____ _____    ______ ____
ROOT
ATOM      1  C   UNL     1       0.846   8.075  20.806  0.00  0.00    +0.000 C 
ATOM      2  O   UNL     1       1.384   6.779  21.041  0.00  0.00    +0.000 OA
ATOM      3  C   UNL     1       2.285   6.328  20.119  0.00  0.00    +0.000 A 
ATOM      4  C   UNL     1       2.822   5.066  20.384  0.00  0.00    +0.000 A 
ATOM      5  C   UNL     1       3.736   4.514  19.502  0.00  0.00    +0.000 A 
ATOM      6  C   UNL     1       4.106   5.194  18.345  0.00  0.00    +0.000 A 
ATOM      7  C   UNL     1       3.572   6.463  18.073  0.00  0.00    +0.000 A 
ATOM      8  C   UNL     1       3.963   7.173  16.807  0.00  0.00    +0.000 C 
ATOM      9  C   UNL     1       2.662   7.048  18.978  0.00  0.00    +0.000 A 
ATOM     10  N   UNL     1       2.154   8.325  18.699  0.00  0.00    +0.000 NA
ATOM     11  C   UNL     1       1.290   8.824  19.529  0.00  0.00    +0.000 C 
ENDROOT
BRANCH  11  12
ATOM     12  C   UNL     1       0.688  10.159  19.205  0.00  0.00    +0.000 A 
ATOM     13  C   UNL     1       1.535  11.264  19.032  0.00  0.00    +0.000 A 
ATOM     14  C   UNL     1       1.011  12.510  18.675  0.00  0.00    +0.000 A 
ATOM     15  C   UNL     1      -0.361  12.650  18.476  0.00  0.00    +0.000 A 
ATOM     16  C   UNL     1      -1.209  11.553  18.647  0.00  0.00    +0.000 A 
ATOM     17 BR   UNL     1      -3.079  11.691  18.358  0.00  0.00    +0.000 Br
ATOM     18  C   UNL     1      -0.689  10.311  19.017  0.00  0.00    +0.000 A 
BRANCH  15  19
ATOM     19  O   UNL     1      -0.876  13.860  18.108  0.00  0.00    +0.000 OA
ATOM     20  H   UNL     1      -0.982  14.421  18.892  0.00  0.00    +0.000 HD
ENDBRANCH  15  19
ENDBRANCH  11  12
BRANCH   1  22
ATOM     21  C   UNL     1      -0.143   9.346  22.782  0.00  0.00    +0.000 C 
ATOM     22  C   UNL     1       1.133   8.910  22.068  0.00  0.00    +0.000 C 
ENDBRANCH   1  22
BRANCH   5  23
ATOM     23  O   UNL     1       4.292   3.291  19.722  0.00  0.00    +0.000 OA
ATOM     24  H   UNL     1       3.673   2.608  19.407  0.00  0.00    +0.000 HD
ENDBRANCH   5  23
TORSDOF 4
ENDMDL
MODEL 8
REMARK VINA RESULT:      -6.7      2.161      4.136
REMARK  Name = 
REMARK  6 active torsions:
REMARK  status: ('A' for Active; 'I' for Inactive)
REMARK    1  A    between atoms: C_1  and  C_2
REMARK    2  A    between atoms: C_2  and  C_3
REMARK    3  A    between atoms: C_7  and  O_8
REMARK    4  A    between atoms: C_10  and  C_11
REMARK    5  A    between atoms: C_14  and  C_15
REMARK    6  A    between atoms: C_18  and  O_19
REMARK                            x       y       z     vdW  Elec       q    Type
REMARK                         _______ _______ _______ _____ _____    ______ ____
ROOT
ATOM      1  C   UNL     1       3.546   5.393  19.454  0.00  0.00    +0.000 C 
ATOM      2  O   UNL     1       2.579   5.758  20.433  0.00  0.00    +0.000 OA
ATOM      3  C   UNL     1       1.949   6.953  20.237  0.00  0.00    +0.000 A 
ATOM      4  C   UNL     1       0.985   7.279  21.194  0.00  0.00    +0.000 A 
ATOM      5  C   UNL     1       0.298   8.477  21.090  0.00  0.00    +0.000 A 
ATOM      6  C   UNL     1       0.576   9.368  20.058  0.00  0.00    +0.000 A 
ATOM      7  C   UNL     1       1.542   9.047  19.092  0.00  0.00    +0.000 A 
ATOM      8  C   UNL     1       1.847  10.031  17.997  0.00  0.00    +0.000 C 
ATOM      9  C   UNL     1       2.227   7.818  19.170  0.00  0.00    +0.000 A 
ATOM     10  N   UNL     1       3.176   7.506  18.184  0.00  0.00    +0.000 NA
ATOM     11  C   UNL     1       3.819   6.384  18.301  0.00  0.00    +0.000 C 
ENDROOT
BRANCH  11  12
ATOM     12  C   UNL     1       4.885   6.073  17.292  0.00  0.00    +0.000 A 
ATOM     13  C   UNL     1       6.197   6.507  17.532  0.00  0.00    +0.000 A 
ATOM     14  C   UNL     1       7.225   6.186  16.640  0.00  0.00    +0.000 A 
ATOM     15  C   UNL     1       6.943   5.417  15.512  0.00  0.00    +0.000 A 
ATOM     16  C   UNL     1       5.638   4.983  15.268  0.00  0.00    +0.000 A 
ATOM     17 BR   UNL     1       5.215   3.911  13.760  0.00  0.00    +0.000 Br
ATOM     18  C   UNL     1       4.608   5.314  16.150  0.00  0.00    +0.000 A 
BRANCH  15  19
ATOM     19  O   UNL     1       7.947   5.085  14.647  0.00  0.00    +0.000 OA
ATOM     20  H   UNL     1       8.294   4.207  14.873  0.00  0.00    +0.000 HD
ENDBRANCH  15  19
ENDBRANCH  11  12
BRANCH   1  22
ATOM     21  C   UNL     1       1.809   4.061  18.146  0.00  0.00    +0.000 C 
ATOM     22  C   UNL     1       3.128   4.013  18.912  0.00  0.00    +0.000 C 
ENDBRANCH   1  22
BRANCH   5  23
ATOM     23  O   UNL     1      -0.656   8.834  21.995  0.00  0.00    +0.000 OA
ATOM     24  H   UNL     1      -1.449   8.289  21.839  0.00  0.00    +0.000 HD
ENDBRANCH   5  23
TORSDOF 4
ENDMDL
MODEL 9
REMARK VINA RESULT:      -6.6      2.537      4.725
REMARK  Name = 
REMARK  6 active torsions:
REMARK  status: ('A' for Active; 'I' for Inactive)
REMARK    1  A    between atoms: C_1  and  C_2
REMARK    2  A    between atoms: C_2  and  C_3
REMARK    3  A    between atoms: C_7  and  O_8
REMARK    4  A    between atoms: C_10  and  C_11
REMARK    5  A    between atoms: C_14  and  C_15
REMARK    6  A    between atoms: C_18  and  O_19
REMARK                            x       y       z     vdW  Elec       q    Type
REMARK                         _______ _______ _______ _____ _____    ______ ____
ROOT
ATOM      1  C   UNL     1       2.792   5.667  20.203  0.00  0.00    +0.000 C 
ATOM      2  O   UNL     1       1.745   6.309  20.922  0.00  0.00    +0.000 OA
ATOM      3  C   UNL     1       1.366   7.537  20.461  0.00  0.00    +0.000 A 
ATOM      4  C   UNL     1       0.319   8.137  21.164  0.00  0.00    +0.000 A 
ATOM      5  C   UNL     1      -0.131   9.390  20.781  0.00  0.00    +0.000 A 
ATOM      6  C   UNL     1       0.465  10.064  19.720  0.00  0.00    +0.000 A 
ATOM      7  C   UNL     1       1.516   9.467  19.007  0.00  0.00    +0.000 A 
ATOM      8  C   UNL     1       2.165  10.219  17.879  0.00  0.00    +0.000 C 
ATOM      9  C   UNL     1       1.964   8.180  19.369  0.00  0.00    +0.000 A 
ATOM     10  N   UNL     1       3.003   7.591  18.633  0.00  0.00    +0.000 NA
ATOM     11  C   UNL     1       3.421   6.422  19.010  0.00  0.00    +0.000 C 
ENDROOT
BRANCH  11  12
ATOM     12  C   UNL     1       4.577   5.813  18.274  0.00  0.00    +0.000 A 
ATOM     13  C   UNL     1       5.741   5.487  18.985  0.00  0.00    +0.000 A 
ATOM     14  C   UNL     1       6.817   4.869  18.341  0.00  0.00    +0.000 A 
ATOM     15  C   UNL     1       6.723   4.561  16.985  0.00  0.00    +0.000 A 
ATOM     16  C   UNL     1       5.567   4.883  16.271  0.00  0.00    +0.000 A 
ATOM     17 BR   UNL     1       5.385   4.458  14.431  0.00  0.00    +0.000 Br
ATOM     18  C   UNL     1       4.497   5.514  16.910  0.00  0.00    +0.000 A 
BRANCH  15  19
ATOM     19  O   UNL     1       7.763   3.939  16.355  0.00  0.00    +0.000 OA
ATOM     20  H   UNL     1       7.621   3.957  15.395  0.00  0.00    +0.000 HD
ENDBRANCH  15  19
ENDBRANCH  11  12
BRANCH   1  22
ATOM     21  C   UNL     1       1.240   3.721  20.757  0.00  0.00    +0.000 C 
ATOM     22  C   UNL     1       2.250   4.292  19.766  0.00  0.00    +0.000 C 
ENDBRANCH   1  22
BRANCH   5  23
ATOM     23  O   UNL     1      -1.154  10.011  21.432  0.00  0.00    +0.000 OA
ATOM     24  H   UNL     1      -1.028   9.892  22.391  0.00  0.00    +0.000 HD
ENDBRANCH   5  23
TORSDOF 4
ENDMDL
