MODEL 1
REMARK VINA RESULT:      -8.0      0.000      0.000
REMARK  Name = 
REMARK  9 active torsions:
REMARK  status: ('A' for Active; 'I' for Inactive)
REMARK    1  A    between atoms: C_1  and  O_2
REMARK    2  A    between atoms: O_2  and  C_3
REMARK    3  A    between atoms: C_8  and  C_9
REMARK    4  A    between atoms: C_14  and  N_15
REMARK    5  A    between atoms: N_15  and  C_16
REMARK    6  A    between atoms: C_16  and  C_17
REMARK    7  A    between atoms: N_21  and  C_22
REMARK    8  A    between atoms: C_22  and  C_23
REMARK    9  A    between atoms: C_26  and  C_27
REMARK                            x       y       z     vdW  Elec       q    Type
REMARK                         _______ _______ _______ _____ _____    ______ ____
ROOT
ATOM      1  N   UNL     1       1.575   5.584  20.546  0.00  0.00    +0.000 NA
ATOM      2  H   UNL     1       1.002   6.045  21.256  0.00  0.00    +0.000 HD
ENDROOT
BRANCH   1   8
ATOM      3  C   UNL     1       0.767   9.746  18.880  0.00  0.00    +0.000 C 
ATOM      4  O   UNL     1       0.300   9.990  17.771  0.00  0.00    +0.000 OA
ATOM      5  N   UNL     1       1.740   8.760  19.066  0.00  0.00    +0.000 N 
ATOM      6  C   UNL     1       2.358   8.061  17.955  0.00  0.00    +0.000 C 
ATOM      7  C   UNL     1       2.269   6.589  18.330  0.00  0.00    +0.000 C 
ATOM      8  C   UNL     1       2.381   6.588  19.858  0.00  0.00    +0.000 C 
ATOM      9  C   UNL     1       1.866   7.974  20.279  0.00  0.00    +0.000 C 
BRANCH   3  15
ATOM     10  C   UNL     1       0.917  11.802  20.375  0.00  0.00    +0.000 A 
ATOM     11  N   UNL     1       0.547  12.519  21.474  0.00  0.00    +0.000 NA
ATOM     12  C   UNL     1      -0.381  11.999  22.298  0.00  0.00    +0.000 A 
ATOM     13  C   UNL     1      -0.974  10.771  22.089  0.00  0.00    +0.000 A 
ATOM     14  C   UNL     1      -0.569  10.038  20.981  0.00  0.00    +0.000 A 
ATOM     15  C   UNL     1       0.357  10.562  20.066  0.00  0.00    +0.000 A 
BRANCH  10  17
ATOM     16  C   UNL     1       1.286  13.394  18.708  0.00  0.00    +0.000 C 
ATOM     17  O   UNL     1       1.846  12.375  19.539  0.00  0.00    +0.000 OA
ENDBRANCH  10  17
ENDBRANCH   3  15
ENDBRANCH   1   8
BRANCH   1  18
ATOM     18  C   UNL     1       2.326   4.527  21.188  0.00  0.00    +0.000 C 
BRANCH  18  19
ATOM     19  C   UNL     1       2.532   3.456  20.178  0.00  0.00    +0.000 A 
ATOM     20  C   UNL     1       1.688   2.419  19.823  0.00  0.00    +0.000 A 
ATOM     21  N   UNL     1       2.226   1.650  18.832  0.00  0.00    +0.000 NA
ATOM     22  C   UNL     1       3.390   2.196  18.578  0.00  0.00    +0.000 A 
ATOM     23  N   UNL     1       3.622   3.316  19.341  0.00  0.00    +0.000 N 
BRANCH  23  24
ATOM     24  C   UNL     1       4.878   4.062  19.340  0.00  0.00    +0.000 C 
BRANCH  24  25
ATOM     25  C   UNL     1       5.479   4.301  17.969  0.00  0.00    +0.000 A 
ATOM     26  C   UNL     1       6.866   4.492  17.836  0.00  0.00    +0.000 A 
ATOM     27  C   UNL     1       7.449   4.731  16.583  0.00  0.00    +0.000 A 
ATOM     28  C   UNL     1       6.653   4.761  15.437  0.00  0.00    +0.000 A 
ATOM     29  C   UNL     1       5.280   4.514  15.550  0.00  0.00    +0.000 A 
ATOM     30  C   UNL     1       4.702   4.274  16.801  0.00  0.00    +0.000 A 
BRANCH  28  31
ATOM     31  C   UNL     1       7.221   5.053  14.151  0.00  0.00    +0.000 C 
ATOM     32  N   UNL     1       7.666   5.342  13.115  0.00  0.00    +0.000 NA
ENDBRANCH  28  31
ENDBRANCH  24  25
ENDBRANCH  23  24
ENDBRANCH  18  19
ENDBRANCH   1  18
TORSDOF 8
ENDMDL
MODEL 2
REMARK VINA RESULT:      -8.0      2.903      9.180
REMARK  Name = 
REMARK  9 active torsions:
REMARK  status: ('A' for Active; 'I' for Inactive)
REMARK    1  A    between atoms: C_1  and  O_2
REMARK    2  A    between atoms: O_2  and  C_3
REMARK    3  A    between atoms: C_8  and  C_9
REMARK    4  A    between atoms: C_14  and  N_15
REMARK    5  A    between atoms: N_15  and  C_16
REMARK    6  A    between atoms: C_16  and  C_17
REMARK    7  A    between atoms: N_21  and  C_22
REMARK    8  A    between atoms: C_22  and  C_23
REMARK    9  A    between atoms: C_26  and  C_27
REMARK                            x       y       z     vdW  Elec       q    Type
REMARK                         _______ _______ _______ _____ _____    ______ ____
ROOT
ATOM      1  N   UNL     1       1.839   7.428  18.568  0.00  0.00    +0.000 NA
ATOM      2  H   UNL     1       1.997   7.180  17.589  0.00  0.00    +0.000 HD
ENDROOT
BRANCH   1   8
ATOM      3  C   UNL     1       4.424   3.733  17.922  0.00  0.00    +0.000 C 
ATOM      4  O   UNL     1       4.037   2.571  18.006  0.00  0.00    +0.000 OA
ATOM      5  N   UNL     1       4.033   4.705  18.846  0.00  0.00    +0.000 N 
ATOM      6  C   UNL     1       3.265   4.382  20.035  0.00  0.00    +0.000 C 
ATOM      7  C   UNL     1       2.127   5.393  20.043  0.00  0.00    +0.000 C 
ATOM      8  C   UNL     1       2.740   6.646  19.410  0.00  0.00    +0.000 C 
ATOM      9  C   UNL     1       3.871   6.109  18.517  0.00  0.00    +0.000 C 
BRANCH   3  15
ATOM     10  C   UNL     1       6.721   4.485  17.121  0.00  0.00    +0.000 A 
ATOM     11  N   UNL     1       7.587   4.866  16.138  0.00  0.00    +0.000 NA
ATOM     12  C   UNL     1       7.139   4.910  14.870  0.00  0.00    +0.000 A 
ATOM     13  C   UNL     1       5.844   4.597  14.513  0.00  0.00    +0.000 A 
ATOM     14  C   UNL     1       4.964   4.238  15.526  0.00  0.00    +0.000 A 
ATOM     15  C   UNL     1       5.399   4.127  16.857  0.00  0.00    +0.000 A 
BRANCH  10  17
ATOM     16  C   UNL     1       7.655   5.693  18.885  0.00  0.00    +0.000 C 
ATOM     17  O   UNL     1       7.217   4.422  18.401  0.00  0.00    +0.000 OA
ENDBRANCH  10  17
ENDBRANCH   3  15
ENDBRANCH   1   8
BRANCH   1  18
ATOM     18  C   UNL     1       1.970   8.863  18.696  0.00  0.00    +0.000 C 
BRANCH  18  19
ATOM     19  C   UNL     1       1.050   9.295  19.782  0.00  0.00    +0.000 A 
ATOM     20  C   UNL     1       0.889   8.764  21.049  0.00  0.00    +0.000 A 
ATOM     21  N   UNL     1      -0.043   9.455  21.767  0.00  0.00    +0.000 NA
ATOM     22  C   UNL     1      -0.461  10.397  20.958  0.00  0.00    +0.000 A 
ATOM     23  N   UNL     1       0.188  10.373  19.746  0.00  0.00    +0.000 N 
BRANCH  23  24
ATOM     24  C   UNL     1      -0.148  11.241  18.620  0.00  0.00    +0.000 C 
BRANCH  24  25
ATOM     25  C   UNL     1       0.476  12.621  18.667  0.00  0.00    +0.000 A 
ATOM     26  C   UNL     1      -0.340  13.754  18.837  0.00  0.00    +0.000 A 
ATOM     27  C   UNL     1       0.208  15.044  18.869  0.00  0.00    +0.000 A 
ATOM     28  C   UNL     1       1.587  15.221  18.751  0.00  0.00    +0.000 A 
ATOM     29  C   UNL     1       2.415  14.098  18.639  0.00  0.00    +0.000 A 
ATOM     30  C   UNL     1       1.865  12.812  18.611  0.00  0.00    +0.000 A 
BRANCH  28  31
ATOM     31  C   UNL     1       2.164  16.535  18.730  0.00  0.00    +0.000 C 
ATOM     32  N   UNL     1       2.668  17.583  18.676  0.00  0.00    +0.000 NA
ENDBRANCH  28  31
ENDBRANCH  24  25
ENDBRANCH  23  24
ENDBRANCH  18  19
ENDBRANCH   1  18
TORSDOF 8
ENDMDL
MODEL 3
REMARK VINA RESULT:      -7.9      1.431      1.806
REMARK  Name = 
REMARK  9 active torsions:
REMARK  status: ('A' for Active; 'I' for Inactive)
REMARK    1  A    between atoms: C_1  and  O_2
REMARK    2  A    between atoms: O_2  and  C_3
REMARK    3  A    between atoms: C_8  and  C_9
REMARK    4  A    between atoms: C_14  and  N_15
REMARK    5  A    between atoms: N_15  and  C_16
REMARK    6  A    between atoms: C_16  and  C_17
REMARK    7  A    between atoms: N_21  and  C_22
REMARK    8  A    between atoms: C_22  and  C_23
REMARK    9  A    between atoms: C_26  and  C_27
REMARK                            x       y       z     vdW  Elec       q    Type
REMARK                         _______ _______ _______ _____ _____    ______ ____
ROOT
ATOM      1  N   UNL     1       1.876   5.918  20.542  0.00  0.00    +0.000 NA
ATOM      2  H   UNL     1       1.705   6.269  21.486  0.00  0.00    +0.000 HD
ENDROOT
BRANCH   1   8
ATOM      3  C   UNL     1       0.455   9.941  18.945  0.00  0.00    +0.000 C 
ATOM      4  O   UNL     1      -0.172  10.111  17.904  0.00  0.00    +0.000 OA
ATOM      5  N   UNL     1       1.536   9.058  19.015  0.00  0.00    +0.000 N 
ATOM      6  C   UNL     1       2.073   8.394  17.841  0.00  0.00    +0.000 C 
ATOM      7  C   UNL     1       2.178   6.930  18.243  0.00  0.00    +0.000 C 
ATOM      8  C   UNL     1       2.485   6.977  19.743  0.00  0.00    +0.000 C 
ATOM      9  C   UNL     1       1.894   8.318  20.211  0.00  0.00    +0.000 C 
BRANCH   3  15
ATOM     10  C   UNL     1       0.713  11.972  20.459  0.00  0.00    +0.000 A 
ATOM     11  N   UNL     1       0.415  12.676  21.588  0.00  0.00    +0.000 NA
ATOM     12  C   UNL     1      -0.471  12.153  22.456  0.00  0.00    +0.000 A 
ATOM     13  C   UNL     1      -1.089  10.935  22.263  0.00  0.00    +0.000 A 
ATOM     14  C   UNL     1      -0.755  10.215  21.123  0.00  0.00    +0.000 A 
ATOM     15  C   UNL     1       0.123  10.743  20.164  0.00  0.00    +0.000 A 
BRANCH  10  17
ATOM     16  C   UNL     1       2.530  13.418  20.226  0.00  0.00    +0.000 C 
ATOM     17  O   UNL     1       1.600  12.548  19.580  0.00  0.00    +0.000 OA
ENDBRANCH  10  17
ENDBRANCH   3  15
ENDBRANCH   1   8
BRANCH   1  18
ATOM     18  C   UNL     1       2.655   4.704  20.646  0.00  0.00    +0.000 C 
BRANCH  18  19
ATOM     19  C   UNL     1       1.981   3.674  19.812  0.00  0.00    +0.000 A 
ATOM     20  C   UNL     1       0.633   3.382  19.708  0.00  0.00    +0.000 A 
ATOM     21  N   UNL     1       0.404   2.378  18.814  0.00  0.00    +0.000 NA
ATOM     22  C   UNL     1       1.592   2.044  18.371  0.00  0.00    +0.000 A 
ATOM     23  N   UNL     1       2.590   2.817  18.916  0.00  0.00    +0.000 N 
BRANCH  23  24
ATOM     24  C   UNL     1       4.015   2.598  18.681  0.00  0.00    +0.000 C 
BRANCH  24  25
ATOM     25  C   UNL     1       4.811   3.848  18.366  0.00  0.00    +0.000 A 
ATOM     26  C   UNL     1       4.654   4.484  17.121  0.00  0.00    +0.000 A 
ATOM     27  C   UNL     1       5.388   5.632  16.794  0.00  0.00    +0.000 A 
ATOM     28  C   UNL     1       6.280   6.178  17.719  0.00  0.00    +0.000 A 
ATOM     29  C   UNL     1       6.401   5.589  18.983  0.00  0.00    +0.000 A 
ATOM     30  C   UNL     1       5.665   4.444  19.306  0.00  0.00    +0.000 A 
BRANCH  28  31
ATOM     31  C   UNL     1       7.078   7.324  17.388  0.00  0.00    +0.000 C 
ATOM     32  N   UNL     1       7.766   8.232  17.150  0.00  0.00    +0.000 NA
ENDBRANCH  28  31
ENDBRANCH  24  25
ENDBRANCH  23  24
ENDBRANCH  18  19
ENDBRANCH   1  18
TORSDOF 8
ENDMDL
MODEL 4
REMARK VINA RESULT:      -7.8      3.163      8.472
REMARK  Name = 
REMARK  9 active torsions:
REMARK  status: ('A' for Active; 'I' for Inactive)
REMARK    1  A    between atoms: C_1  and  O_2
REMARK    2  A    between atoms: O_2  and  C_3
REMARK    3  A    between atoms: C_8  and  C_9
REMARK    4  A    between atoms: C_14  and  N_15
REMARK    5  A    between atoms: N_15  and  C_16
REMARK    6  A    between atoms: C_16  and  C_17
REMARK    7  A    between atoms: N_21  and  C_22
REMARK    8  A    between atoms: C_22  and  C_23
REMARK    9  A    between atoms: C_26  and  C_27
REMARK                            x       y       z     vdW  Elec       q    Type
REMARK                         _______ _______ _______ _____ _____    ______ ____
ROOT
ATOM      1  N   UNL     1       1.256   6.295  20.498  0.00  0.00    +0.000 NA
ATOM      2  H   UNL     1       0.518   6.097  19.819  0.00  0.00    +0.000 HD
ENDROOT
BRANCH   1   8
ATOM      3  C   UNL     1       4.596   4.355  18.082  0.00  0.00    +0.000 C 
ATOM      4  O   UNL     1       4.437   3.583  17.141  0.00  0.00    +0.000 OA
ATOM      5  N   UNL     1       3.826   4.263  19.245  0.00  0.00    +0.000 N 
ATOM      6  C   UNL     1       2.894   3.175  19.475  0.00  0.00    +0.000 C 
ATOM      7  C   UNL     1       1.606   3.859  19.911  0.00  0.00    +0.000 C 
ATOM      8  C   UNL     1       2.084   5.105  20.664  0.00  0.00    +0.000 C 
ATOM      9  C   UNL     1       3.467   5.406  20.065  0.00  0.00    +0.000 C 
BRANCH   3  15
ATOM     10  C   UNL     1       5.642   6.513  17.225  0.00  0.00    +0.000 A 
ATOM     11  N   UNL     1       6.657   7.422  17.182  0.00  0.00    +0.000 NA
ATOM     12  C   UNL     1       7.745   7.207  17.943  0.00  0.00    +0.000 A 
ATOM     13  C   UNL     1       7.890   6.107  18.762  0.00  0.00    +0.000 A 
ATOM     14  C   UNL     1       6.862   5.173  18.776  0.00  0.00    +0.000 A 
ATOM     15  C   UNL     1       5.685   5.381  18.039  0.00  0.00    +0.000 A 
BRANCH  10  17
ATOM     16  C   UNL     1       3.630   7.686  17.089  0.00  0.00    +0.000 C 
ATOM     17  O   UNL     1       4.533   6.776  16.458  0.00  0.00    +0.000 OA
ENDBRANCH  10  17
ENDBRANCH   3  15
ENDBRANCH   1   8
BRANCH   1  18
ATOM     18  C   UNL     1       1.964   7.479  20.062  0.00  0.00    +0.000 C 
BRANCH  18  19
ATOM     19  C   UNL     1       1.397   8.632  20.810  0.00  0.00    +0.000 A 
ATOM     20  C   UNL     1       1.232   8.789  22.174  0.00  0.00    +0.000 A 
ATOM     21  N   UNL     1       0.694  10.006  22.478  0.00  0.00    +0.000 NA
ATOM     22  C   UNL     1       0.520  10.595  21.320  0.00  0.00    +0.000 A 
ATOM     23  N   UNL     1       0.957   9.824  20.269  0.00  0.00    +0.000 N 
BRANCH  23  24
ATOM     24  C   UNL     1       0.792  10.187  18.864  0.00  0.00    +0.000 C 
BRANCH  24  25
ATOM     25  C   UNL     1      -0.626  10.534  18.455  0.00  0.00    +0.000 A 
ATOM     26  C   UNL     1      -1.225  11.714  18.932  0.00  0.00    +0.000 A 
ATOM     27  C   UNL     1      -2.539  12.053  18.584  0.00  0.00    +0.000 A 
ATOM     28  C   UNL     1      -3.273  11.225  17.732  0.00  0.00    +0.000 A 
ATOM     29  C   UNL     1      -2.668  10.078  17.204  0.00  0.00    +0.000 A 
ATOM     30  C   UNL     1      -1.355   9.744  17.552  0.00  0.00    +0.000 A 
BRANCH  28  31
ATOM     31  C   UNL     1      -4.636  11.527  17.402  0.00  0.00    +0.000 C 
ATOM     32  N   UNL     1      -5.753  11.773  17.189  0.00  0.00    +0.000 NA
ENDBRANCH  28  31
ENDBRANCH  24  25
ENDBRANCH  23  24
ENDBRANCH  18  19
ENDBRANCH   1  18
TORSDOF 8
ENDMDL
MODEL 5
REMARK VINA RESULT:      -7.8      2.026      4.800
REMARK  Name = 
REMARK  9 active torsions:
REMARK  status: ('A' for Active; 'I' for Inactive)
REMARK    1  A    between atoms: C_1  and  O_2
REMARK    2  A    between atoms: O_2  and  C_3
REMARK    3  A    between atoms: C_8  and  C_9
REMARK    4  A    between atoms: C_14  and  N_15
REMARK    5  A    between atoms: N_15  and  C_16
REMARK    6  A    between atoms: C_16  and  C_17
REMARK    7  A    between atoms: N_21  and  C_22
REMARK    8  A    between atoms: C_22  and  C_23
REMARK    9  A    between atoms: C_26  and  C_27
REMARK                            x       y       z     vdW  Elec       q    Type
REMARK                         _______ _______ _______ _____ _____    ______ ____
ROOT
ATOM      1  N   UNL     1       3.672   7.665  18.149  0.00  0.00    +0.000 NA
ATOM      2  H   UNL     1       3.904   8.660  18.133  0.00  0.00    +0.000 HD
ENDROOT
BRANCH   1   8
ATOM      3  C   UNL     1       0.962  10.226  20.765  0.00  0.00    +0.000 C 
ATOM      4  O   UNL     1       1.009  10.289  21.990  0.00  0.00    +0.000 OA
ATOM      5  N   UNL     1       1.076   9.009  20.088  0.00  0.00    +0.000 N 
ATOM      6  C   UNL     1       1.118   7.736  20.783  0.00  0.00    +0.000 C 
ATOM      7  C   UNL     1       2.309   7.007  20.176  0.00  0.00    +0.000 C 
ATOM      8  C   UNL     1       2.341   7.494  18.724  0.00  0.00    +0.000 C 
ATOM      9  C   UNL     1       1.667   8.875  18.769  0.00  0.00    +0.000 C 
BRANCH   3  15
ATOM     10  C   UNL     1      -0.476  11.668  19.236  0.00  0.00    +0.000 A 
ATOM     11  N   UNL     1      -0.685  12.787  18.485  0.00  0.00    +0.000 NA
ATOM     12  C   UNL     1       0.288  13.714  18.428  0.00  0.00    +0.000 A 
ATOM     13  C   UNL     1       1.494  13.585  19.087  0.00  0.00    +0.000 A 
ATOM     14  C   UNL     1       1.706  12.428  19.826  0.00  0.00    +0.000 A 
ATOM     15  C   UNL     1       0.699  11.458  19.957  0.00  0.00    +0.000 A 
BRANCH  10  17
ATOM     16  C   UNL     1      -1.819  10.197  18.020  0.00  0.00    +0.000 C 
ATOM     17  O   UNL     1      -1.502  10.755  19.297  0.00  0.00    +0.000 OA
ENDBRANCH  10  17
ENDBRANCH   3  15
ENDBRANCH   1   8
BRANCH   1  18
ATOM     18  C   UNL     1       3.834   7.143  16.809  0.00  0.00    +0.000 C 
BRANCH  18  19
ATOM     19  C   UNL     1       5.176   6.507  16.743  0.00  0.00    +0.000 A 
ATOM     20  C   UNL     1       6.424   7.104  16.741  0.00  0.00    +0.000 A 
ATOM     21  N   UNL     1       7.424   6.176  16.692  0.00  0.00    +0.000 NA
ATOM     22  C   UNL     1       6.808   5.020  16.658  0.00  0.00    +0.000 A 
ATOM     23  N   UNL     1       5.441   5.152  16.717  0.00  0.00    +0.000 N 
BRANCH  23  24
ATOM     24  C   UNL     1       4.505   4.037  16.593  0.00  0.00    +0.000 C 
BRANCH  24  25
ATOM     25  C   UNL     1       3.749   3.692  17.860  0.00  0.00    +0.000 A 
ATOM     26  C   UNL     1       4.452   3.277  19.006  0.00  0.00    +0.000 A 
ATOM     27  C   UNL     1       3.779   2.937  20.187  0.00  0.00    +0.000 A 
ATOM     28  C   UNL     1       2.388   3.026  20.249  0.00  0.00    +0.000 A 
ATOM     29  C   UNL     1       1.681   3.493  19.135  0.00  0.00    +0.000 A 
ATOM     30  C   UNL     1       2.356   3.835  17.958  0.00  0.00    +0.000 A 
BRANCH  28  31
ATOM     31  C   UNL     1       1.675   2.635  21.432  0.00  0.00    +0.000 C 
ATOM     32  N   UNL     1       1.067   2.364  22.386  0.00  0.00    +0.000 NA
ENDBRANCH  28  31
ENDBRANCH  24  25
ENDBRANCH  23  24
ENDBRANCH  18  19
ENDBRANCH   1  18
TORSDOF 8
ENDMDL
MODEL 6
REMARK VINA RESULT:      -7.8      1.812      2.149
REMARK  Name = 
REMARK  9 active torsions:
REMARK  status: ('A' for Active; 'I' for Inactive)
REMARK    1  A    between atoms: C_1  and  O_2
REMARK    2  A    between atoms: O_2  and  C_3
REMARK    3  A    between atoms: C_8  and  C_9
REMARK    4  A    between atoms: C_14  and  N_15
REMARK    5  A    between atoms: N_15  and  C_16
REMARK    6  A    between atoms: C_16  and  C_17
REMARK    7  A    between atoms: N_21  and  C_22
REMARK    8  A    between atoms: C_22  and  C_23
REMARK    9  A    between atoms: C_26  and  C_27
REMARK                            x       y       z     vdW  Elec       q    Type
REMARK                         _______ _______ _______ _____ _____    ______ ____
ROOT
ATOM      1  N   UNL     1       2.601   5.993  19.215  0.00  0.00    +0.000 NA
ATOM      2  H   UNL     1       3.455   5.579  19.591  0.00  0.00    +0.000 HD
ENDROOT
BRANCH   1   8
ATOM      3  C   UNL     1       0.181   9.852  19.270  0.00  0.00    +0.000 C 
ATOM      4  O   UNL     1      -0.596  10.217  18.392  0.00  0.00    +0.000 OA
ATOM      5  N   UNL     1       1.421   9.287  18.964  0.00  0.00    +0.000 N 
ATOM      6  C   UNL     1       1.930   9.222  17.606  0.00  0.00    +0.000 C 
ATOM      7  C   UNL     1       2.389   7.780  17.437  0.00  0.00    +0.000 C 
ATOM      8  C   UNL     1       2.868   7.377  18.835  0.00  0.00    +0.000 C 
ATOM      9  C   UNL     1       2.076   8.287  19.788  0.00  0.00    +0.000 C 
BRANCH   3  15
ATOM     10  C   UNL     1      -0.169  11.337  21.309  0.00  0.00    +0.000 A 
ATOM     11  N   UNL     1      -0.451  11.517  22.631  0.00  0.00    +0.000 NA
ATOM     12  C   UNL     1      -0.707  10.434  23.387  0.00  0.00    +0.000 A 
ATOM     13  C   UNL     1      -0.692   9.146  22.892  0.00  0.00    +0.000 A 
ATOM     14  C   UNL     1      -0.376   8.973  21.551  0.00  0.00    +0.000 A 
ATOM     15  C   UNL     1      -0.153  10.076  20.712  0.00  0.00    +0.000 A 
BRANCH  10  17
ATOM     16  C   UNL     1       1.359  13.018  20.777  0.00  0.00    +0.000 C 
ATOM     17  O   UNL     1       0.059  12.466  20.559  0.00  0.00    +0.000 OA
ENDBRANCH  10  17
ENDBRANCH   3  15
ENDBRANCH   1   8
BRANCH   1  18
ATOM     18  C   UNL     1       2.121   5.144  18.146  0.00  0.00    +0.000 C 
BRANCH  18  19
ATOM     19  C   UNL     1       2.554   3.756  18.456  0.00  0.00    +0.000 A 
ATOM     20  C   UNL     1       2.128   2.917  19.469  0.00  0.00    +0.000 A 
ATOM     21  N   UNL     1       2.750   1.703  19.410  0.00  0.00    +0.000 NA
ATOM     22  C   UNL     1       3.556   1.788  18.380  0.00  0.00    +0.000 A 
ATOM     23  N   UNL     1       3.460   3.001  17.739  0.00  0.00    +0.000 N 
BRANCH  23  24
ATOM     24  C   UNL     1       4.315   3.407  16.625  0.00  0.00    +0.000 C 
BRANCH  24  25
ATOM     25  C   UNL     1       5.207   4.599  16.905  0.00  0.00    +0.000 A 
ATOM     26  C   UNL     1       6.147   4.541  17.950  0.00  0.00    +0.000 A 
ATOM     27  C   UNL     1       6.975   5.634  18.243  0.00  0.00    +0.000 A 
ATOM     28  C   UNL     1       6.891   6.799  17.479  0.00  0.00    +0.000 A 
ATOM     29  C   UNL     1       6.001   6.847  16.400  0.00  0.00    +0.000 A 
ATOM     30  C   UNL     1       5.178   5.754  16.109  0.00  0.00    +0.000 A 
BRANCH  28  31
ATOM     31  C   UNL     1       7.694   7.946  17.792  0.00  0.00    +0.000 C 
ATOM     32  N   UNL     1       8.327   8.874  18.097  0.00  0.00    +0.000 NA
ENDBRANCH  28  31
ENDBRANCH  24  25
ENDBRANCH  23  24
ENDBRANCH  18  19
ENDBRANCH   1  18
TORSDOF 8
ENDMDL
MODEL 7
REMARK VINA RESULT:      -7.8      2.886      9.922
REMARK  Name = 
REMARK  9 active torsions:
REMARK  status: ('A' for Active; 'I' for Inactive)
REMARK    1  A    between atoms: C_1  and  O_2
REMARK    2  A    between atoms: O_2  and  C_3
REMARK    3  A    between atoms: C_8  and  C_9
REMARK    4  A    between atoms: C_14  and  N_15
REMARK    5  A    between atoms: N_15  and  C_16
REMARK    6  A    between atoms: C_16  and  C_17
REMARK    7  A    between atoms: N_21  and  C_22
REMARK    8  A    between atoms: C_22  and  C_23
REMARK    9  A    between atoms: C_26  and  C_27
REMARK                            x       y       z     vdW  Elec       q    Type
REMARK                         _______ _______ _______ _____ _____    ______ ____
ROOT
ATOM      1  N   UNL     1       1.765   7.824  18.235  0.00  0.00    +0.000 NA
ATOM      2  H   UNL     1       1.959   7.480  17.292  0.00  0.00    +0.000 HD
ENDROOT
BRANCH   1   8
ATOM      3  C   UNL     1       4.313   4.050  18.091  0.00  0.00    +0.000 C 
ATOM      4  O   UNL     1       3.910   2.912  18.311  0.00  0.00    +0.000 OA
ATOM      5  N   UNL     1       3.920   5.133  18.883  0.00  0.00    +0.000 N 
ATOM      6  C   UNL     1       3.130   4.967  20.088  0.00  0.00    +0.000 C 
ATOM      7  C   UNL     1       2.005   5.983  19.953  0.00  0.00    +0.000 C 
ATOM      8  C   UNL     1       2.643   7.142  19.181  0.00  0.00    +0.000 C 
ATOM      9  C   UNL     1       3.780   6.488  18.380  0.00  0.00    +0.000 C 
BRANCH   3  15
ATOM     10  C   UNL     1       6.661   4.550  17.240  0.00  0.00    +0.000 A 
ATOM     11  N   UNL     1       7.547   4.800  16.235  0.00  0.00    +0.000 NA
ATOM     12  C   UNL     1       7.093   4.821  14.969  0.00  0.00    +0.000 A 
ATOM     13  C   UNL     1       5.771   4.609  14.636  0.00  0.00    +0.000 A 
ATOM     14  C   UNL     1       4.873   4.383  15.670  0.00  0.00    +0.000 A 
ATOM     15  C   UNL     1       5.309   4.300  17.002  0.00  0.00    +0.000 A 
BRANCH  10  17
ATOM     16  C   UNL     1       7.831   5.713  18.890  0.00  0.00    +0.000 C 
ATOM     17  O   UNL     1       7.161   4.506  18.520  0.00  0.00    +0.000 OA
ENDBRANCH  10  17
ENDBRANCH   3  15
ENDBRANCH   1   8
BRANCH   1  18
ATOM     18  C   UNL     1       1.878   9.266  18.221  0.00  0.00    +0.000 C 
BRANCH  18  19
ATOM     19  C   UNL     1       0.508   9.818  18.390  0.00  0.00    +0.000 A 
ATOM     20  C   UNL     1      -0.552   9.805  17.501  0.00  0.00    +0.000 A 
ATOM     21  N   UNL     1      -1.660  10.396  18.034  0.00  0.00    +0.000 NA
ATOM     22  C   UNL     1      -1.295  10.777  19.234  0.00  0.00    +0.000 A 
ATOM     23  N   UNL     1       0.003  10.427  19.522  0.00  0.00    +0.000 N 
BRANCH  23  24
ATOM     24  C   UNL     1       0.703  10.814  20.744  0.00  0.00    +0.000 C 
BRANCH  24  25
ATOM     25  C   UNL     1      -0.057  11.771  21.641  0.00  0.00    +0.000 A 
ATOM     26  C   UNL     1      -1.040  11.277  22.518  0.00  0.00    +0.000 A 
ATOM     27  C   UNL     1      -1.770  12.139  23.348  0.00  0.00    +0.000 A 
ATOM     28  C   UNL     1      -1.514  13.511  23.330  0.00  0.00    +0.000 A 
ATOM     29  C   UNL     1      -0.498  14.007  22.504  0.00  0.00    +0.000 A 
ATOM     30  C   UNL     1       0.230  13.143  21.678  0.00  0.00    +0.000 A 
BRANCH  28  31
ATOM     31  C   UNL     1      -2.283  14.417  24.134  0.00  0.00    +0.000 C 
ATOM     32  N   UNL     1      -2.870  15.146  24.827  0.00  0.00    +0.000 NA
ENDBRANCH  28  31
ENDBRANCH  24  25
ENDBRANCH  23  24
ENDBRANCH  18  19
ENDBRANCH   1  18
TORSDOF 8
ENDMDL
MODEL 8
REMARK VINA RESULT:      -7.8      1.784      2.020
REMARK  Name = 
REMARK  9 active torsions:
REMARK  status: ('A' for Active; 'I' for Inactive)
REMARK    1  A    between atoms: C_1  and  O_2
REMARK    2  A    between atoms: O_2  and  C_3
REMARK    3  A    between atoms: C_8  and  C_9
REMARK    4  A    between atoms: C_14  and  N_15
REMARK    5  A    between atoms: N_15  and  C_16
REMARK    6  A    between atoms: C_16  and  C_17
REMARK    7  A    between atoms: N_21  and  C_22
REMARK    8  A    between atoms: C_22  and  C_23
REMARK    9  A    between atoms: C_26  and  C_27
REMARK                            x       y       z     vdW  Elec       q    Type
REMARK                         _______ _______ _______ _____ _____    ______ ____
ROOT
ATOM      1  N   UNL     1       1.920   6.289  20.394  0.00  0.00    +0.000 NA
ATOM      2  H   UNL     1       2.626   6.061  21.097  0.00  0.00    +0.000 HD
ENDROOT
BRANCH   1   8
ATOM      3  C   UNL     1      -0.165  10.161  19.206  0.00  0.00    +0.000 C 
ATOM      4  O   UNL     1      -0.848  10.321  18.199  0.00  0.00    +0.000 OA
ATOM      5  N   UNL     1       1.041   9.457  19.170  0.00  0.00    +0.000 N 
ATOM      6  C   UNL     1       1.632   8.992  17.929  0.00  0.00    +0.000 C 
ATOM      7  C   UNL     1       1.978   7.533  18.192  0.00  0.00    +0.000 C 
ATOM      8  C   UNL     1       2.327   7.497  19.683  0.00  0.00    +0.000 C 
ATOM      9  C   UNL     1       1.553   8.681  20.285  0.00  0.00    +0.000 C 
BRANCH   3  15
ATOM     10  C   UNL     1      -0.959  12.127  20.617  0.00  0.00    +0.000 A 
ATOM     11  N   UNL     1      -1.303  12.689  21.810  0.00  0.00    +0.000 NA
ATOM     12  C   UNL     1      -1.253  11.926  22.918  0.00  0.00    +0.000 A 
ATOM     13  C   UNL     1      -0.863  10.603  22.907  0.00  0.00    +0.000 A 
ATOM     14  C   UNL     1      -0.487  10.050  21.689  0.00  0.00    +0.000 A 
ATOM     15  C   UNL     1      -0.574  10.791  20.500  0.00  0.00    +0.000 A 
BRANCH  10  17
ATOM     16  C   UNL     1      -0.290  14.130  19.623  0.00  0.00    +0.000 C 
ATOM     17  O   UNL     1      -1.049  12.925  19.501  0.00  0.00    +0.000 OA
ENDBRANCH  10  17
ENDBRANCH   3  15
ENDBRANCH   1   8
BRANCH   1  18
ATOM     18  C   UNL     1       1.720   5.123  19.561  0.00  0.00    +0.000 C 
BRANCH  18  19
ATOM     19  C   UNL     1       2.338   3.968  20.263  0.00  0.00    +0.000 A 
ATOM     20  C   UNL     1       2.150   3.537  21.564  0.00  0.00    +0.000 A 
ATOM     21  N   UNL     1       2.884   2.418  21.833  0.00  0.00    +0.000 NA
ATOM     22  C   UNL     1       3.524   2.160  20.719  0.00  0.00    +0.000 A 
ATOM     23  N   UNL     1       3.211   3.048  19.717  0.00  0.00    +0.000 N 
BRANCH  23  24
ATOM     24  C   UNL     1       3.853   3.060  18.405  0.00  0.00    +0.000 C 
BRANCH  24  25
ATOM     25  C   UNL     1       4.750   4.253  18.142  0.00  0.00    +0.000 A 
ATOM     26  C   UNL     1       5.848   4.504  18.986  0.00  0.00    +0.000 A 
ATOM     27  C   UNL     1       6.686   5.608  18.777  0.00  0.00    +0.000 A 
ATOM     28  C   UNL     1       6.451   6.471  17.705  0.00  0.00    +0.000 A 
ATOM     29  C   UNL     1       5.398   6.199  16.825  0.00  0.00    +0.000 A 
ATOM     30  C   UNL     1       4.565   5.094  17.035  0.00  0.00    +0.000 A 
BRANCH  28  31
ATOM     31  C   UNL     1       7.266   7.635  17.502  0.00  0.00    +0.000 C 
ATOM     32  N   UNL     1       7.963   8.558  17.374  0.00  0.00    +0.000 NA
ENDBRANCH  28  31
ENDBRANCH  24  25
ENDBRANCH  23  24
ENDBRANCH  18  19
ENDBRANCH   1  18
TORSDOF 8
ENDMDL
MODEL 9
REMARK VINA RESULT:      -7.8      3.302      8.965
REMARK  Name = 
REMARK  9 active torsions:
REMARK  status: ('A' for Active; 'I' for Inactive)
REMARK    1  A    between atoms: C_1  and  O_2
REMARK    2  A    between atoms: O_2  and  C_3
REMARK    3  A    between atoms: C_8  and  C_9
REMARK    4  A    between atoms: C_14  and  N_15
REMARK    5  A    between atoms: N_15  and  C_16
REMARK    6  A    between atoms: C_16  and  C_17
REMARK    7  A    between atoms: N_21  and  C_22
REMARK    8  A    between atoms: C_22  and  C_23
REMARK    9  A    between atoms: C_26  and  C_27
REMARK                            x       y       z     vdW  Elec       q    Type
REMARK                         _______ _______ _______ _____ _____    ______ ____
ROOT
ATOM      1  N   UNL     1       1.413   6.120  20.342  0.00  0.00    +0.000 NA
ATOM      2  H   UNL     1       1.338   6.079  19.323  0.00  0.00    +0.000 HD
ENDROOT
BRANCH   1   8
ATOM      3  C   UNL     1       4.104   3.104  18.241  0.00  0.00    +0.000 C 
ATOM      4  O   UNL     1       3.782   1.963  17.926  0.00  0.00    +0.000 OA
ATOM      5  N   UNL     1       3.750   3.651  19.478  0.00  0.00    +0.000 N 
ATOM      6  C   UNL     1       3.106   2.869  20.516  0.00  0.00    +0.000 C 
ATOM      7  C   UNL     1       1.926   3.721  20.962  0.00  0.00    +0.000 C 
ATOM      8  C   UNL     1       2.419   5.161  20.785  0.00  0.00    +0.000 C 
ATOM      9  C   UNL     1       3.492   5.064  19.688  0.00  0.00    +0.000 C 
BRANCH   3  15
ATOM     10  C   UNL     1       6.150   4.534  17.735  0.00  0.00    +0.000 A 
ATOM     11  N   UNL     1       6.905   5.298  16.895  0.00  0.00    +0.000 NA
ATOM     12  C   UNL     1       6.475   5.481  15.633  0.00  0.00    +0.000 A 
ATOM     13  C   UNL     1       5.304   4.939  15.147  0.00  0.00    +0.000 A 
ATOM     14  C   UNL     1       4.529   4.186  16.020  0.00  0.00    +0.000 A 
ATOM     15  C   UNL     1       4.963   3.924  17.330  0.00  0.00    +0.000 A 
BRANCH  10  17
ATOM     16  C   UNL     1       7.191   5.532  19.570  0.00  0.00    +0.000 C 
ATOM     17  O   UNL     1       6.631   4.343  19.008  0.00  0.00    +0.000 OA
ENDBRANCH  10  17
ENDBRANCH   3  15
ENDBRANCH   1   8
BRANCH   1  18
ATOM     18  C   UNL     1       1.663   7.493  20.722  0.00  0.00    +0.000 C 
BRANCH  18  19
ATOM     19  C   UNL     1       1.785   8.283  19.469  0.00  0.00    +0.000 A 
ATOM     20  C   UNL     1       2.544   8.018  18.343  0.00  0.00    +0.000 A 
ATOM     21  N   UNL     1       2.372   8.975  17.386  0.00  0.00    +0.000 NA
ATOM     22  C   UNL     1       1.524   9.826  17.909  0.00  0.00    +0.000 A 
ATOM     23  N   UNL     1       1.105   9.445  19.162  0.00  0.00    +0.000 N 
BRANCH  23  24
ATOM     24  C   UNL     1       0.243  10.256  20.018  0.00  0.00    +0.000 C 
BRANCH  24  25
ATOM     25  C   UNL     1      -1.077  10.662  19.395  0.00  0.00    +0.000 A 
ATOM     26  C   UNL     1      -1.726  11.833  19.829  0.00  0.00    +0.000 A 
ATOM     27  C   UNL     1      -2.955  12.226  19.282  0.00  0.00    +0.000 A 
ATOM     28  C   UNL     1      -3.549  11.463  18.275  0.00  0.00    +0.000 A 
ATOM     29  C   UNL     1      -2.885  10.328  17.795  0.00  0.00    +0.000 A 
ATOM     30  C   UNL     1      -1.657   9.940  18.341  0.00  0.00    +0.000 A 
BRANCH  28  31
ATOM     31  C   UNL     1      -4.830  11.820  17.736  0.00  0.00    +0.000 C 
ATOM     32  N   UNL     1      -5.866  12.066  17.265  0.00  0.00    +0.000 NA
ENDBRANCH  28  31
ENDBRANCH  24  25
ENDBRANCH  23  24
ENDBRANCH  18  19
ENDBRANCH   1  18
TORSDOF 8
ENDMDL
