MODEL 1
REMARK VINA RESULT:      -7.1      0.000      0.000
REMARK  Name = 
REMARK  3 active torsions:
REMARK  status: ('A' for Active; 'I' for Inactive)
REMARK    1  A    between atoms: C_1  and  C_2
REMARK    2  A    between atoms: C_4  and  C_5
REMARK    3  A    between atoms: C_13  and  C_15
REMARK                            x       y       z     vdW  Elec       q    Type
REMARK                         _______ _______ _______ _____ _____    ______ ____
ROOT
ATOM      1  C   UNL     1       3.045   6.597  18.203  0.00  0.00    +0.000 A 
ATOM      2  C   UNL     1       2.976   7.740  17.421  0.00  0.00    +0.000 A 
ATOM      3  C   UNL     1       2.311   8.862  17.900  0.00  0.00    +0.000 A 
ATOM      4  C   UNL     1       1.728   8.859  19.162  0.00  0.00    +0.000 A 
ATOM      5  N   UNL     1       1.032   9.948  19.624  0.00  0.00    +0.000 N 
ATOM      6  C   UNL     1       1.311  11.331  19.208  0.00  0.00    +0.000 C 
ATOM      7  C   UNL     1      -0.014  12.081  18.967  0.00  0.00    +0.000 C 
ATOM      8  N   UNL     1      -0.934  11.931  20.103  0.00  0.00    +0.000 N 
ATOM      9  C   UNL     1      -1.629  13.050  20.566  0.00  0.00    +0.000 C 
ATOM     10  O   UNL     1      -1.503  14.131  19.985  0.00  0.00    +0.000 OA
ATOM     11  C   UNL     1      -1.166  10.521  20.476  0.00  0.00    +0.000 C 
ATOM     12  C   UNL     1       0.169   9.824  20.802  0.00  0.00    +0.000 C 
ATOM     13  N   UNL     1       1.782   7.742  19.929  0.00  0.00    +0.000 NA
ATOM     14  C   UNL     1       2.434   6.651  19.445  0.00  0.00    +0.000 A 
ENDROOT
BRANCH   1  18
ATOM     15  C   UNL     1       5.993   3.633  15.644  0.00  0.00    +0.000 C 
ATOM     16  C   UNL     1       5.012   4.233  16.560  0.00  0.00    +0.000 A 
ATOM     17  N   UNL     1       4.649   5.484  16.698  0.00  0.00    +0.000 NA
ATOM     18  C   UNL     1       3.718   5.414  17.714  0.00  0.00    +0.000 A 
ATOM     19  N   UNL     1       3.513   4.170  18.181  0.00  0.00    +0.000 NA
ATOM     20  O   UNL     1       4.370   3.385  17.412  0.00  0.00    +0.000 OA
ENDBRANCH   1  18
BRANCH   9  21
ATOM     21  C   UNL     1      -2.479  12.905  21.744  0.00  0.00    +0.000 A 
ATOM     22  C   UNL     1      -2.152  12.741  23.079  0.00  0.00    +0.000 A 
ATOM     23  C   UNL     1      -3.290  12.535  23.907  0.00  0.00    +0.000 A 
ATOM     24  C   UNL     1      -4.462  12.684  23.204  0.00  0.00    +0.000 A 
ATOM     25  S   UNL     1      -4.184  13.005  21.549  0.00  0.00    +0.000 S 
ENDBRANCH   9  21
TORSDOF 2
ENDMDL
MODEL 2
REMARK VINA RESULT:      -7.0      1.903      2.520
REMARK  Name = 
REMARK  3 active torsions:
REMARK  status: ('A' for Active; 'I' for Inactive)
REMARK    1  A    between atoms: C_1  and  C_2
REMARK    2  A    between atoms: C_4  and  C_5
REMARK    3  A    between atoms: C_13  and  C_15
REMARK                            x       y       z     vdW  Elec       q    Type
REMARK                         _______ _______ _______ _____ _____    ______ ____
ROOT
ATOM      1  C   UNL     1       3.623   6.467  17.946  0.00  0.00    +0.000 A 
ATOM      2  C   UNL     1       3.144   6.094  19.193  0.00  0.00    +0.000 A 
ATOM      3  C   UNL     1       2.285   6.941  19.882  0.00  0.00    +0.000 A 
ATOM      4  C   UNL     1       1.884   8.152  19.329  0.00  0.00    +0.000 A 
ATOM      5  N   UNL     1       1.070   9.014  20.021  0.00  0.00    +0.000 N 
ATOM      6  C   UNL     1       0.091   8.578  21.029  0.00  0.00    +0.000 C 
ATOM      7  C   UNL     1       0.131   9.530  22.240  0.00  0.00    +0.000 C 
ATOM      8  N   UNL     1       0.036  10.937  21.826  0.00  0.00    +0.000 N 
ATOM      9  C   UNL     1      -0.802  11.799  22.536  0.00  0.00    +0.000 C 
ATOM     10  O   UNL     1      -1.406  11.384  23.528  0.00  0.00    +0.000 OA
ATOM     11  C   UNL     1       1.040  11.308  20.809  0.00  0.00    +0.000 C 
ATOM     12  C   UNL     1       0.914  10.400  19.571  0.00  0.00    +0.000 C 
ATOM     13  N   UNL     1       2.355   8.529  18.115  0.00  0.00    +0.000 NA
ATOM     14  C   UNL     1       3.198   7.691  17.454  0.00  0.00    +0.000 A 
ENDROOT
BRANCH   1  18
ATOM     15  C   UNL     1       6.656   4.725  14.513  0.00  0.00    +0.000 C 
ATOM     16  C   UNL     1       5.808   4.950  15.694  0.00  0.00    +0.000 A 
ATOM     17  N   UNL     1       5.055   5.976  16.001  0.00  0.00    +0.000 NA
ATOM     18  C   UNL     1       4.531   5.606  17.223  0.00  0.00    +0.000 A 
ATOM     19  N   UNL     1       4.941   4.398  17.648  0.00  0.00    +0.000 NA
ATOM     20  O   UNL     1       5.788   3.962  16.630  0.00  0.00    +0.000 OA
ENDBRANCH   1  18
BRANCH   9  21
ATOM     21  C   UNL     1      -0.948  13.173  22.067  0.00  0.00    +0.000 A 
ATOM     22  C   UNL     1      -0.300  14.334  22.454  0.00  0.00    +0.000 A 
ATOM     23  C   UNL     1      -0.812  15.495  21.813  0.00  0.00    +0.000 A 
ATOM     24  C   UNL     1      -1.743  15.175  20.854  0.00  0.00    +0.000 A 
ATOM     25  S   UNL     1      -2.039  13.494  20.778  0.00  0.00    +0.000 S 
ENDBRANCH   9  21
TORSDOF 2
ENDMDL
MODEL 3
REMARK VINA RESULT:      -7.0      1.311      1.577
REMARK  Name = 
REMARK  3 active torsions:
REMARK  status: ('A' for Active; 'I' for Inactive)
REMARK    1  A    between atoms: C_1  and  C_2
REMARK    2  A    between atoms: C_4  and  C_5
REMARK    3  A    between atoms: C_13  and  C_15
REMARK                            x       y       z     vdW  Elec       q    Type
REMARK                         _______ _______ _______ _____ _____    ______ ____
ROOT
ATOM      1  C   UNL     1       2.656   6.595  18.414  0.00  0.00    +0.000 A 
ATOM      2  C   UNL     1       2.592   7.646  17.511  0.00  0.00    +0.000 A 
ATOM      3  C   UNL     1       2.066   8.867  17.912  0.00  0.00    +0.000 A 
ATOM      4  C   UNL     1       1.620   9.057  19.215  0.00  0.00    +0.000 A 
ATOM      5  N   UNL     1       1.060  10.247  19.607  0.00  0.00    +0.000 N 
ATOM      6  C   UNL     1       1.397  11.545  19.003  0.00  0.00    +0.000 C 
ATOM      7  C   UNL     1       0.114  12.375  18.801  0.00  0.00    +0.000 C 
ATOM      8  N   UNL     1      -0.691  12.433  20.029  0.00  0.00    +0.000 N 
ATOM      9  C   UNL     1      -1.247  13.653  20.418  0.00  0.00    +0.000 C 
ATOM     10  O   UNL     1      -1.102  14.648  19.702  0.00  0.00    +0.000 OA
ATOM     11  C   UNL     1      -0.987  11.099  20.589  0.00  0.00    +0.000 C 
ATOM     12  C   UNL     1       0.318  10.330  20.868  0.00  0.00    +0.000 C 
ATOM     13  N   UNL     1       1.671   8.032  20.102  0.00  0.00    +0.000 NA
ATOM     14  C   UNL     1       2.184   6.842  19.693  0.00  0.00    +0.000 A 
ENDROOT
BRANCH   1  18
ATOM     15  C   UNL     1       3.462   1.770  18.117  0.00  0.00    +0.000 C 
ATOM     16  C   UNL     1       3.459   3.232  17.965  0.00  0.00    +0.000 A 
ATOM     17  N   UNL     1       2.759   4.140  18.601  0.00  0.00    +0.000 NA
ATOM     18  C   UNL     1       3.184   5.311  18.009  0.00  0.00    +0.000 A 
ATOM     19  N   UNL     1       4.112   5.134  17.052  0.00  0.00    +0.000 NA
ATOM     20  O   UNL     1       4.296   3.753  17.025  0.00  0.00    +0.000 OA
ENDBRANCH   1  18
BRANCH   9  21
ATOM     21  C   UNL     1      -1.978  13.716  21.680  0.00  0.00    +0.000 A 
ATOM     22  C   UNL     1      -3.323  13.537  21.955  0.00  0.00    +0.000 A 
ATOM     23  C   UNL     1      -3.649  13.785  23.317  0.00  0.00    +0.000 A 
ATOM     24  C   UNL     1      -2.523  14.014  24.073  0.00  0.00    +0.000 A 
ATOM     25  S   UNL     1      -1.098  13.990  23.131  0.00  0.00    +0.000 S 
ENDBRANCH   9  21
TORSDOF 2
ENDMDL
MODEL 4
REMARK VINA RESULT:      -7.0      1.436      1.619
REMARK  Name = 
REMARK  3 active torsions:
REMARK  status: ('A' for Active; 'I' for Inactive)
REMARK    1  A    between atoms: C_1  and  C_2
REMARK    2  A    between atoms: C_4  and  C_5
REMARK    3  A    between atoms: C_13  and  C_15
REMARK                            x       y       z     vdW  Elec       q    Type
REMARK                         _______ _______ _______ _____ _____    ______ ____
ROOT
ATOM      1  C   UNL     1       2.394   7.034  18.501  0.00  0.00    +0.000 A 
ATOM      2  C   UNL     1       2.274   8.071  17.588  0.00  0.00    +0.000 A 
ATOM      3  C   UNL     1       1.796   9.306  18.008  0.00  0.00    +0.000 A 
ATOM      4  C   UNL     1       1.453   9.522  19.338  0.00  0.00    +0.000 A 
ATOM      5  N   UNL     1       0.940  10.725  19.752  0.00  0.00    +0.000 N 
ATOM      6  C   UNL     1       1.246  12.009  19.102  0.00  0.00    +0.000 C 
ATOM      7  C   UNL     1      -0.039  12.853  18.985  0.00  0.00    +0.000 C 
ATOM      8  N   UNL     1      -0.746  12.942  20.270  0.00  0.00    +0.000 N 
ATOM      9  C   UNL     1      -1.256  14.175  20.680  0.00  0.00    +0.000 C 
ATOM     10  O   UNL     1      -1.153  15.157  19.939  0.00  0.00    +0.000 OA
ATOM     11  C   UNL     1      -1.016  11.621  20.872  0.00  0.00    +0.000 C 
ATOM     12  C   UNL     1       0.297  10.839  21.064  0.00  0.00    +0.000 C 
ATOM     13  N   UNL     1       1.558   8.511  20.236  0.00  0.00    +0.000 NA
ATOM     14  C   UNL     1       2.024   7.307  19.809  0.00  0.00    +0.000 A 
ENDROOT
BRANCH   1  18
ATOM     15  C   UNL     1       2.731   2.199  17.774  0.00  0.00    +0.000 C 
ATOM     16  C   UNL     1       2.926   3.655  17.827  0.00  0.00    +0.000 A 
ATOM     17  N   UNL     1       2.179   4.582  18.374  0.00  0.00    +0.000 NA
ATOM     18  C   UNL     1       2.873   5.737  18.079  0.00  0.00    +0.000 A 
ATOM     19  N   UNL     1       4.005   5.530  17.383  0.00  0.00    +0.000 NA
ATOM     20  O   UNL     1       4.041   4.146  17.219  0.00  0.00    +0.000 OA
ENDBRANCH   1  18
BRANCH   9  21
ATOM     21  C   UNL     1      -1.887  14.268  21.993  0.00  0.00    +0.000 A 
ATOM     22  C   UNL     1      -1.336  14.444  23.250  0.00  0.00    +0.000 A 
ATOM     23  C   UNL     1      -2.300  14.377  24.293  0.00  0.00    +0.000 A 
ATOM     24  C   UNL     1      -3.579  14.289  23.796  0.00  0.00    +0.000 A 
ATOM     25  S   UNL     1      -3.603  14.223  22.089  0.00  0.00    +0.000 S 
ENDBRANCH   9  21
TORSDOF 2
ENDMDL
MODEL 5
REMARK VINA RESULT:      -6.9      1.923      2.752
REMARK  Name = 
REMARK  3 active torsions:
REMARK  status: ('A' for Active; 'I' for Inactive)
REMARK    1  A    between atoms: C_1  and  C_2
REMARK    2  A    between atoms: C_4  and  C_5
REMARK    3  A    between atoms: C_13  and  C_15
REMARK                            x       y       z     vdW  Elec       q    Type
REMARK                         _______ _______ _______ _____ _____    ______ ____
ROOT
ATOM      1  C   UNL     1       3.067   6.596  18.273  0.00  0.00    +0.000 A 
ATOM      2  C   UNL     1       2.612   6.428  19.572  0.00  0.00    +0.000 A 
ATOM      3  C   UNL     1       1.866   7.433  20.176  0.00  0.00    +0.000 A 
ATOM      4  C   UNL     1       1.556   8.600  19.488  0.00  0.00    +0.000 A 
ATOM      5  N   UNL     1       0.857   9.615  20.091  0.00  0.00    +0.000 N 
ATOM      6  C   UNL     1      -0.113   9.404  21.177  0.00  0.00    +0.000 C 
ATOM      7  C   UNL     1       0.068  10.489  22.257  0.00  0.00    +0.000 C 
ATOM      8  N   UNL     1       0.086  11.836  21.671  0.00  0.00    +0.000 N 
ATOM      9  C   UNL     1      -0.636  12.856  22.293  0.00  0.00    +0.000 C 
ATOM     10  O   UNL     1      -1.232  12.627  23.349  0.00  0.00    +0.000 OA
ATOM     11  C   UNL     1       1.074  11.980  20.583  0.00  0.00    +0.000 C 
ATOM     12  C   UNL     1       0.809  10.944  19.475  0.00  0.00    +0.000 C 
ATOM     13  N   UNL     1       2.005   8.777  18.220  0.00  0.00    +0.000 NA
ATOM     14  C   UNL     1       2.737   7.786  17.644  0.00  0.00    +0.000 A 
ENDROOT
BRANCH   1  18
ATOM     15  C   UNL     1       6.299   4.333  15.365  0.00  0.00    +0.000 C 
ATOM     16  C   UNL     1       5.264   4.697  16.344  0.00  0.00    +0.000 A 
ATOM     17  N   UNL     1       4.773   5.873  16.647  0.00  0.00    +0.000 NA
ATOM     18  C   UNL     1       3.859   5.568  17.635  0.00  0.00    +0.000 A 
ATOM     19  N   UNL     1       3.786   4.257  17.925  0.00  0.00    +0.000 NA
ATOM     20  O   UNL     1       4.718   3.679  17.065  0.00  0.00    +0.000 OA
ENDBRANCH   1  18
BRANCH   9  21
ATOM     21  C   UNL     1      -0.675  14.171  21.660  0.00  0.00    +0.000 A 
ATOM     22  C   UNL     1      -1.477  14.660  20.643  0.00  0.00    +0.000 A 
ATOM     23  C   UNL     1      -1.123  15.978  20.243  0.00  0.00    +0.000 A 
ATOM     24  C   UNL     1      -0.150  16.510  21.056  0.00  0.00    +0.000 A 
ATOM     25  S   UNL     1       0.372  15.402  22.247  0.00  0.00    +0.000 S 
ENDBRANCH   9  21
TORSDOF 2
ENDMDL
MODEL 6
REMARK VINA RESULT:      -6.9      1.532      1.685
REMARK  Name = 
REMARK  3 active torsions:
REMARK  status: ('A' for Active; 'I' for Inactive)
REMARK    1  A    between atoms: C_1  and  C_2
REMARK    2  A    between atoms: C_4  and  C_5
REMARK    3  A    between atoms: C_13  and  C_15
REMARK                            x       y       z     vdW  Elec       q    Type
REMARK                         _______ _______ _______ _____ _____    ______ ____
ROOT
ATOM      1  C   UNL     1       2.240   7.479  18.683  0.00  0.00    +0.000 A 
ATOM      2  C   UNL     1       2.065   8.533  17.800  0.00  0.00    +0.000 A 
ATOM      3  C   UNL     1       1.524   9.730  18.254  0.00  0.00    +0.000 A 
ATOM      4  C   UNL     1       1.172   9.890  19.589  0.00  0.00    +0.000 A 
ATOM      5  N   UNL     1       0.598  11.053  20.037  0.00  0.00    +0.000 N 
ATOM      6  C   UNL     1       0.835  12.369  19.423  0.00  0.00    +0.000 C 
ATOM      7  C   UNL     1      -0.491  13.148  19.329  0.00  0.00    +0.000 C 
ATOM      8  N   UNL     1      -1.201  13.164  20.616  0.00  0.00    +0.000 N 
ATOM      9  C   UNL     1      -1.774  14.357  21.060  0.00  0.00    +0.000 C 
ATOM     10  O   UNL     1      -1.723  15.362  20.347  0.00  0.00    +0.000 OA
ATOM     11  C   UNL     1      -1.401  11.814  21.181  0.00  0.00    +0.000 C 
ATOM     12  C   UNL     1      -0.049  11.096  21.351  0.00  0.00    +0.000 C 
ATOM     13  N   UNL     1       1.331   8.861  20.458  0.00  0.00    +0.000 NA
ATOM     14  C   UNL     1       1.858   7.695  19.997  0.00  0.00    +0.000 A 
ENDROOT
BRANCH   1  18
ATOM     15  C   UNL     1       5.134   4.161  16.529  0.00  0.00    +0.000 C 
ATOM     16  C   UNL     1       4.085   4.884  17.263  0.00  0.00    +0.000 A 
ATOM     17  N   UNL     1       3.933   6.170  17.460  0.00  0.00    +0.000 NA
ATOM     18  C   UNL     1       2.786   6.221  18.224  0.00  0.00    +0.000 A 
ATOM     19  N   UNL     1       2.249   5.016  18.483  0.00  0.00    +0.000 NA
ATOM     20  O   UNL     1       3.111   4.128  17.842  0.00  0.00    +0.000 OA
ENDBRANCH   1  18
BRANCH   9  21
ATOM     21  C   UNL     1      -2.407  14.379  22.375  0.00  0.00    +0.000 A 
ATOM     22  C   UNL     1      -3.724  14.167  22.747  0.00  0.00    +0.000 A 
ATOM     23  C   UNL     1      -3.950  14.382  24.134  0.00  0.00    +0.000 A 
ATOM     24  C   UNL     1      -2.775  14.619  24.808  0.00  0.00    +0.000 A 
ATOM     25  S   UNL     1      -1.425  14.643  23.761  0.00  0.00    +0.000 S 
ENDBRANCH   9  21
TORSDOF 2
ENDMDL
MODEL 7
REMARK VINA RESULT:      -6.8      3.171     10.001
REMARK  Name = 
REMARK  3 active torsions:
REMARK  status: ('A' for Active; 'I' for Inactive)
REMARK    1  A    between atoms: C_1  and  C_2
REMARK    2  A    between atoms: C_4  and  C_5
REMARK    3  A    between atoms: C_13  and  C_15
REMARK                            x       y       z     vdW  Elec       q    Type
REMARK                         _______ _______ _______ _____ _____    ______ ____
ROOT
ATOM      1  C   UNL     1      -0.266  10.092  21.277  0.00  0.00    +0.000 A 
ATOM      2  C   UNL     1      -0.487   8.785  21.687  0.00  0.00    +0.000 A 
ATOM      3  C   UNL     1       0.355   7.773  21.244  0.00  0.00    +0.000 A 
ATOM      4  C   UNL     1       1.430   8.055  20.408  0.00  0.00    +0.000 A 
ATOM      5  N   UNL     1       2.240   7.056  19.933  0.00  0.00    +0.000 N 
ATOM      6  C   UNL     1       2.485   5.794  20.648  0.00  0.00    +0.000 C 
ATOM      7  C   UNL     1       2.455   4.616  19.654  0.00  0.00    +0.000 C 
ATOM      8  N   UNL     1       3.320   4.868  18.493  0.00  0.00    +0.000 N 
ATOM      9  C   UNL     1       4.143   3.842  18.026  0.00  0.00    +0.000 C 
ATOM     10  O   UNL     1       4.096   2.730  18.557  0.00  0.00    +0.000 OA
ATOM     11  C   UNL     1       3.028   6.152  17.824  0.00  0.00    +0.000 C 
ATOM     12  C   UNL     1       3.158   7.319  18.821  0.00  0.00    +0.000 C 
ATOM     13  N   UNL     1       1.647   9.328  19.995  0.00  0.00    +0.000 NA
ATOM     14  C   UNL     1       0.812  10.307  20.433  0.00  0.00    +0.000 A 
ENDROOT
BRANCH   1  18
ATOM     15  C   UNL     1      -3.193  12.878  24.050  0.00  0.00    +0.000 C 
ATOM     16  C   UNL     1      -2.385  12.274  22.980  0.00  0.00    +0.000 A 
ATOM     17  N   UNL     1      -1.668  11.178  22.989  0.00  0.00    +0.000 NA
ATOM     18  C   UNL     1      -1.143  11.155  21.713  0.00  0.00    +0.000 A 
ATOM     19  N   UNL     1      -1.525  12.193  20.948  0.00  0.00    +0.000 NA
ATOM     20  O   UNL     1      -2.353  12.934  21.790  0.00  0.00    +0.000 OA
ENDBRANCH   1  18
BRANCH   9  21
ATOM     21  C   UNL     1       5.054   4.127  16.921  0.00  0.00    +0.000 A 
ATOM     22  C   UNL     1       4.879   4.012  15.553  0.00  0.00    +0.000 A 
ATOM     23  C   UNL     1       6.061   4.299  14.816  0.00  0.00    +0.000 A 
ATOM     24  C   UNL     1       7.068   4.758  15.633  0.00  0.00    +0.000 A 
ATOM     25  S   UNL     1       6.605   4.779  17.277  0.00  0.00    +0.000 S 
ENDBRANCH   9  21
TORSDOF 2
ENDMDL
MODEL 8
REMARK VINA RESULT:      -6.8      3.633      9.782
REMARK  Name = 
REMARK  3 active torsions:
REMARK  status: ('A' for Active; 'I' for Inactive)
REMARK    1  A    between atoms: C_1  and  C_2
REMARK    2  A    between atoms: C_4  and  C_5
REMARK    3  A    between atoms: C_13  and  C_15
REMARK                            x       y       z     vdW  Elec       q    Type
REMARK                         _______ _______ _______ _____ _____    ______ ____
ROOT
ATOM      1  C   UNL     1      -1.074  13.032  22.830  0.00  0.00    +0.000 A 
ATOM      2  C   UNL     1      -0.309  13.202  21.686  0.00  0.00    +0.000 A 
ATOM      3  C   UNL     1       0.135  12.089  20.982  0.00  0.00    +0.000 A 
ATOM      4  C   UNL     1      -0.194  10.805  21.401  0.00  0.00    +0.000 A 
ATOM      5  N   UNL     1       0.276   9.700  20.736  0.00  0.00    +0.000 N 
ATOM      6  C   UNL     1       0.601   9.688  19.301  0.00  0.00    +0.000 C 
ATOM      7  C   UNL     1       1.913   8.914  19.069  0.00  0.00    +0.000 C 
ATOM      8  N   UNL     1       1.888   7.600  19.728  0.00  0.00    +0.000 N 
ATOM      9  C   UNL     1       2.364   6.486  19.035  0.00  0.00    +0.000 C 
ATOM     10  O   UNL     1       2.844   6.625  17.907  0.00  0.00    +0.000 OA
ATOM     11  C   UNL     1       1.550   7.681  21.163  0.00  0.00    +0.000 C 
ATOM     12  C   UNL     1       0.189   8.376  21.357  0.00  0.00    +0.000 C 
ATOM     13  N   UNL     1      -0.933  10.629  22.524  0.00  0.00    +0.000 NA
ATOM     14  C   UNL     1      -1.357  11.728  23.204  0.00  0.00    +0.000 A 
ENDROOT
BRANCH   1  18
ATOM     15  C   UNL     1      -3.976  16.388  24.912  0.00  0.00    +0.000 C 
ATOM     16  C   UNL     1      -2.857  15.565  24.428  0.00  0.00    +0.000 A 
ATOM     17  N   UNL     1      -2.870  14.492  23.677  0.00  0.00    +0.000 NA
ATOM     18  C   UNL     1      -1.529  14.178  23.585  0.00  0.00    +0.000 A 
ATOM     19  N   UNL     1      -0.724  15.026  24.247  0.00  0.00    +0.000 NA
ATOM     20  O   UNL     1      -1.606  15.949  24.805  0.00  0.00    +0.000 OA
ENDBRANCH   1  18
BRANCH   9  21
ATOM     21  C   UNL     1       2.262   5.175  19.670  0.00  0.00    +0.000 A 
ATOM     22  C   UNL     1       1.183   4.538  20.259  0.00  0.00    +0.000 A 
ATOM     23  C   UNL     1       1.532   3.295  20.857  0.00  0.00    +0.000 A 
ATOM     24  C   UNL     1       2.836   2.952  20.589  0.00  0.00    +0.000 A 
ATOM     25  S   UNL     1       3.644   4.152  19.680  0.00  0.00    +0.000 S 
ENDBRANCH   9  21
TORSDOF 2
ENDMDL
MODEL 9
REMARK VINA RESULT:      -6.7      2.688      3.758
REMARK  Name = 
REMARK  3 active torsions:
REMARK  status: ('A' for Active; 'I' for Inactive)
REMARK    1  A    between atoms: C_1  and  C_2
REMARK    2  A    between atoms: C_4  and  C_5
REMARK    3  A    between atoms: C_13  and  C_15
REMARK                            x       y       z     vdW  Elec       q    Type
REMARK                         _______ _______ _______ _____ _____    ______ ____
ROOT
ATOM      1  C   UNL     1       2.421   6.884  19.252  0.00  0.00    +0.000 A 
ATOM      2  C   UNL     1       1.807   7.169  20.462  0.00  0.00    +0.000 A 
ATOM      3  C   UNL     1       1.245   8.423  20.670  0.00  0.00    +0.000 A 
ATOM      4  C   UNL     1       1.275   9.391  19.673  0.00  0.00    +0.000 A 
ATOM      5  N   UNL     1       0.760  10.645  19.886  0.00  0.00    +0.000 N 
ATOM      6  C   UNL     1      -0.340  10.927  20.821  0.00  0.00    +0.000 C 
ATOM      7  C   UNL     1      -0.035  12.215  21.611  0.00  0.00    +0.000 C 
ATOM      8  N   UNL     1       0.343  13.320  20.719  0.00  0.00    +0.000 N 
ATOM      9  C   UNL     1      -0.195  14.588  20.946  0.00  0.00    +0.000 C 
ATOM     10  O   UNL     1      -0.933  14.775  21.916  0.00  0.00    +0.000 OA
ATOM     11  C   UNL     1       1.446  12.970  19.803  0.00  0.00    +0.000 C 
ATOM     12  C   UNL     1       1.074  11.736  18.959  0.00  0.00    +0.000 C 
ATOM     13  N   UNL     1       1.882   9.123  18.490  0.00  0.00    +0.000 NA
ATOM     14  C   UNL     1       2.431   7.893  18.303  0.00  0.00    +0.000 A 
ENDROOT
BRANCH   1  18
ATOM     15  C   UNL     1       3.078   2.216  17.912  0.00  0.00    +0.000 C 
ATOM     16  C   UNL     1       3.202   3.589  18.421  0.00  0.00    +0.000 A 
ATOM     17  N   UNL     1       2.317   4.555  18.452  0.00  0.00    +0.000 NA
ATOM     18  C   UNL     1       3.026   5.591  19.024  0.00  0.00    +0.000 A 
ATOM     19  N   UNL     1       4.295   5.275  19.338  0.00  0.00    +0.000 NA
ATOM     20  O   UNL     1       4.410   3.944  18.940  0.00  0.00    +0.000 OA
ENDBRANCH   1  18
BRANCH   9  21
ATOM     21  C   UNL     1       0.126  15.659  20.007  0.00  0.00    +0.000 A 
ATOM     22  C   UNL     1      -0.438  15.991  18.787  0.00  0.00    +0.000 A 
ATOM     23  C   UNL     1       0.240  17.056  18.133  0.00  0.00    +0.000 A 
ATOM     24  C   UNL     1       1.219  17.599  18.932  0.00  0.00    +0.000 A 
ATOM     25  S   UNL     1       1.355  16.786  20.428  0.00  0.00    +0.000 S 
ENDBRANCH   9  21
TORSDOF 2
ENDMDL
