MODEL 1
REMARK VINA RESULT:      -7.9      0.000      0.000
REMARK  Name = 
REMARK  9 active torsions:
REMARK  status: ('A' for Active; 'I' for Inactive)
REMARK    1  A    between atoms: C_1  and  N_2
REMARK    2  A    between atoms: N_2  and  C_3
REMARK    3  A    between atoms: C_3  and  C_4
REMARK    4  A    between atoms: C_4  and  N_5
REMARK    5  A    between atoms: C_8  and  C_9
REMARK    6  A    between atoms: C_14  and  C_15
REMARK    7  A    between atoms: C_19  and  O_20
REMARK    8  A    between atoms: O_20  and  C_21
REMARK    9  A    between atoms: C_23  and  C_24
REMARK                            x       y       z     vdW  Elec       q    Type
REMARK                         _______ _______ _______ _____ _____    ______ ____
ROOT
ATOM      1  C   UNL     1       0.298  10.918  20.214  0.00  0.00    +0.000 A 
ATOM      2  C   UNL     1       0.067  10.412  21.503  0.00  0.00    +0.000 A 
ATOM      3  C   UNL     1       0.483   9.123  21.891  0.00  0.00    +0.000 A 
ATOM      4  C   UNL     1       1.165   8.353  20.944  0.00  0.00    +0.000 A 
ATOM      5  N   UNL     1       1.714   7.096  21.021  0.00  0.00    +0.000 N 
ATOM      6  C   UNL     1       2.375   6.761  19.851  0.00  0.00    +0.000 A 
ATOM      7  C   UNL     1       2.160   7.810  18.962  0.00  0.00    +0.000 A 
ATOM      8  C   UNL     1       2.661   7.998  17.570  0.00  0.00    +0.000 C 
ATOM      9  C   UNL     1       1.396   8.802  19.656  0.00  0.00    +0.000 A 
ATOM     10  C   UNL     1       0.923  10.071  19.287  0.00  0.00    +0.000 A 
ATOM     11  H   UNL     1       1.674   6.509  21.840  0.00  0.00    +0.000 HD
ENDROOT
BRANCH   1  15
ATOM     12  N   UNL     1      -2.969  12.328  18.821  0.00  0.00    +0.000 NA
ATOM     13  C   UNL     1      -2.671  12.271  20.260  0.00  0.00    +0.000 C 
ATOM     14  C   UNL     1      -1.328  12.907  20.639  0.00  0.00    +0.000 C 
ATOM     15  C   UNL     1      -0.145  12.334  19.837  0.00  0.00    +0.000 C 
ATOM     16  C   UNL     1      -0.507  12.492  18.351  0.00  0.00    +0.000 C 
ATOM     17  C   UNL     1      -1.845  11.828  18.007  0.00  0.00    +0.000 C 
BRANCH  12  18
ATOM     18  C   UNL     1      -4.182  11.526  18.510  0.00  0.00    +0.000 C 
BRANCH  18  19
ATOM     19  C   UNL     1      -4.735  11.749  17.084  0.00  0.00    +0.000 C 
BRANCH  19  21
ATOM     20  C   UNL     1      -6.760  11.224  18.268  0.00  0.00    +0.000 C 
ATOM     21  N   UNL     1      -6.202  11.853  17.076  0.00  0.00    +0.000 NA
ATOM     22  H   UNL     1      -6.470  12.837  17.058  0.00  0.00    +0.000 HD
ENDBRANCH  19  21
ENDBRANCH  18  19
ENDBRANCH  12  18
ENDBRANCH   1  15
BRANCH   6  23
ATOM     23  C   UNL     1       3.165   5.530  19.725  0.00  0.00    +0.000 A 
ATOM     24  C   UNL     1       2.588   4.272  19.936  0.00  0.00    +0.000 A 
ATOM     25  C   UNL     1       3.319   3.106  19.713  0.00  0.00    +0.000 A 
ATOM     26  C   UNL     1       4.653   3.186  19.321  0.00  0.00    +0.000 A 
ATOM     27  C   UNL     1       5.264   4.429  19.148  0.00  0.00    +0.000 A 
ATOM     28  C   UNL     1       4.514   5.593  19.338  0.00  0.00    +0.000 A 
BRANCH  27  29
ATOM     29  O   UNL     1       6.582   4.378  18.784  0.00  0.00    +0.000 OA
ATOM     30  C   UNL     1       6.881   4.676  17.425  0.00  0.00    +0.000 C 
ENDBRANCH  27  29
ENDBRANCH   6  23
TORSDOF 6
ENDMDL
MODEL 2
REMARK VINA RESULT:      -7.8      1.371      1.455
REMARK  Name = 
REMARK  9 active torsions:
REMARK  status: ('A' for Active; 'I' for Inactive)
REMARK    1  A    between atoms: C_1  and  N_2
REMARK    2  A    between atoms: N_2  and  C_3
REMARK    3  A    between atoms: C_3  and  C_4
REMARK    4  A    between atoms: C_4  and  N_5
REMARK    5  A    between atoms: C_8  and  C_9
REMARK    6  A    between atoms: C_14  and  C_15
REMARK    7  A    between atoms: C_19  and  O_20
REMARK    8  A    between atoms: O_20  and  C_21
REMARK    9  A    between atoms: C_23  and  C_24
REMARK                            x       y       z     vdW  Elec       q    Type
REMARK                         _______ _______ _______ _____ _____    ______ ____
ROOT
ATOM      1  C   UNL     1       0.445  11.050  21.029  0.00  0.00    +0.000 A 
ATOM      2  C   UNL     1       0.235  10.266  22.176  0.00  0.00    +0.000 A 
ATOM      3  C   UNL     1       0.568   8.899  22.223  0.00  0.00    +0.000 A 
ATOM      4  C   UNL     1       1.142   8.334  21.080  0.00  0.00    +0.000 A 
ATOM      5  N   UNL     1       1.595   7.063  20.825  0.00  0.00    +0.000 N 
ATOM      6  C   UNL     1       2.172   6.975  19.569  0.00  0.00    +0.000 A 
ATOM      7  C   UNL     1       1.999   8.218  18.967  0.00  0.00    +0.000 A 
ATOM      8  C   UNL     1       2.447   8.700  17.629  0.00  0.00    +0.000 C 
ATOM      9  C   UNL     1       1.347   9.062  19.922  0.00  0.00    +0.000 A 
ATOM     10  C   UNL     1       0.958  10.410  19.891  0.00  0.00    +0.000 A 
ATOM     11  H   UNL     1       1.547   6.301  21.484  0.00  0.00    +0.000 HD
ENDROOT
BRANCH   1  15
ATOM     12  N   UNL     1      -2.759  12.961  20.202  0.00  0.00    +0.000 NA
ATOM     13  C   UNL     1      -2.408  12.541  21.567  0.00  0.00    +0.000 C 
ATOM     14  C   UNL     1      -1.005  12.979  22.007  0.00  0.00    +0.000 C 
ATOM     15  C   UNL     1       0.096  12.540  21.025  0.00  0.00    +0.000 C 
ATOM     16  C   UNL     1      -0.314  13.074  19.642  0.00  0.00    +0.000 C 
ATOM     17  C   UNL     1      -1.711  12.600  19.229  0.00  0.00    +0.000 C 
BRANCH  12  18
ATOM     18  C   UNL     1      -4.041  12.337  19.781  0.00  0.00    +0.000 C 
BRANCH  18  19
ATOM     19  C   UNL     1      -5.275  12.851  20.558  0.00  0.00    +0.000 C 
BRANCH  19  21
ATOM     20  C   UNL     1      -7.149  11.453  19.999  0.00  0.00    +0.000 C 
ATOM     21  N   UNL     1      -6.137  11.747  21.008  0.00  0.00    +0.000 NA
ATOM     22  H   UNL     1      -5.567  10.916  21.164  0.00  0.00    +0.000 HD
ENDBRANCH  19  21
ENDBRANCH  18  19
ENDBRANCH  12  18
ENDBRANCH   1  15
BRANCH   6  23
ATOM     23  C   UNL     1       2.858   5.761  19.107  0.00  0.00    +0.000 A 
ATOM     24  C   UNL     1       2.174   4.765  18.399  0.00  0.00    +0.000 A 
ATOM     25  C   UNL     1       2.855   3.667  17.875  0.00  0.00    +0.000 A 
ATOM     26  C   UNL     1       4.223   3.529  18.095  0.00  0.00    +0.000 A 
ATOM     27  C   UNL     1       4.918   4.485  18.837  0.00  0.00    +0.000 A 
ATOM     28  C   UNL     1       4.236   5.601  19.327  0.00  0.00    +0.000 A 
BRANCH  27  29
ATOM     29  O   UNL     1       6.252   4.227  19.003  0.00  0.00    +0.000 OA
ATOM     30  C   UNL     1       7.130   4.735  18.005  0.00  0.00    +0.000 C 
ENDBRANCH  27  29
ENDBRANCH   6  23
TORSDOF 6
ENDMDL
MODEL 3
REMARK VINA RESULT:      -7.7      2.127      2.783
REMARK  Name = 
REMARK  9 active torsions:
REMARK  status: ('A' for Active; 'I' for Inactive)
REMARK    1  A    between atoms: C_1  and  N_2
REMARK    2  A    between atoms: N_2  and  C_3
REMARK    3  A    between atoms: C_3  and  C_4
REMARK    4  A    between atoms: C_4  and  N_5
REMARK    5  A    between atoms: C_8  and  C_9
REMARK    6  A    between atoms: C_14  and  C_15
REMARK    7  A    between atoms: C_19  and  O_20
REMARK    8  A    between atoms: O_20  and  C_21
REMARK    9  A    between atoms: C_23  and  C_24
REMARK                            x       y       z     vdW  Elec       q    Type
REMARK                         _______ _______ _______ _____ _____    ______ ____
ROOT
ATOM      1  C   UNL     1       0.442  11.204  20.859  0.00  0.00    +0.000 A 
ATOM      2  C   UNL     1       0.236  10.486  22.048  0.00  0.00    +0.000 A 
ATOM      3  C   UNL     1       0.582   9.127  22.174  0.00  0.00    +0.000 A 
ATOM      4  C   UNL     1       1.164   8.503  21.067  0.00  0.00    +0.000 A 
ATOM      5  N   UNL     1       1.630   7.223  20.886  0.00  0.00    +0.000 N 
ATOM      6  C   UNL     1       2.211   7.069  19.638  0.00  0.00    +0.000 A 
ATOM      7  C   UNL     1       2.028   8.273  18.966  0.00  0.00    +0.000 A 
ATOM      8  C   UNL     1       2.475   8.682  17.603  0.00  0.00    +0.000 C 
ATOM      9  C   UNL     1       1.366   9.165  19.869  0.00  0.00    +0.000 A 
ATOM     10  C   UNL     1       0.964  10.505  19.761  0.00  0.00    +0.000 A 
ATOM     11  H   UNL     1       1.587   6.500  21.588  0.00  0.00    +0.000 HD
ENDROOT
BRANCH   1  15
ATOM     12  N   UNL     1      -2.626  13.196  21.966  0.00  0.00    +0.000 NA
ATOM     13  C   UNL     1      -1.431  13.032  22.809  0.00  0.00    +0.000 C 
ATOM     14  C   UNL     1      -0.122  13.418  22.109  0.00  0.00    +0.000 C 
ATOM     15  C   UNL     1       0.079  12.688  20.768  0.00  0.00    +0.000 C 
ATOM     16  C   UNL     1      -1.178  12.966  19.927  0.00  0.00    +0.000 C 
ATOM     17  C   UNL     1      -2.463  12.550  20.651  0.00  0.00    +0.000 C 
BRANCH  12  18
ATOM     18  C   UNL     1      -3.819  12.622  22.641  0.00  0.00    +0.000 C 
BRANCH  18  19
ATOM     19  C   UNL     1      -3.670  12.483  24.173  0.00  0.00    +0.000 C 
BRANCH  19  21
ATOM     20  C   UNL     1      -6.040  12.801  23.930  0.00  0.00    +0.000 C 
ATOM     21  N   UNL     1      -4.976  12.404  24.846  0.00  0.00    +0.000 NA
ATOM     22  H   UNL     1      -5.138  11.446  25.155  0.00  0.00    +0.000 HD
ENDBRANCH  19  21
ENDBRANCH  18  19
ENDBRANCH  12  18
ENDBRANCH   1  15
BRANCH   6  23
ATOM     23  C   UNL     1       2.909   5.837  19.249  0.00  0.00    +0.000 A 
ATOM     24  C   UNL     1       2.226   4.775  18.644  0.00  0.00    +0.000 A 
ATOM     25  C   UNL     1       2.915   3.654  18.184  0.00  0.00    +0.000 A 
ATOM     26  C   UNL     1       4.292   3.562  18.366  0.00  0.00    +0.000 A 
ATOM     27  C   UNL     1       4.989   4.586  19.007  0.00  0.00    +0.000 A 
ATOM     28  C   UNL     1       4.298   5.724  19.432  0.00  0.00    +0.000 A 
BRANCH  27  29
ATOM     29  O   UNL     1       6.334   4.370  19.146  0.00  0.00    +0.000 OA
ATOM     30  C   UNL     1       7.142   5.515  19.394  0.00  0.00    +0.000 C 
ENDBRANCH  27  29
ENDBRANCH   6  23
TORSDOF 6
ENDMDL
MODEL 4
REMARK VINA RESULT:      -7.7      3.612      9.275
REMARK  Name = 
REMARK  9 active torsions:
REMARK  status: ('A' for Active; 'I' for Inactive)
REMARK    1  A    between atoms: C_1  and  N_2
REMARK    2  A    between atoms: N_2  and  C_3
REMARK    3  A    between atoms: C_3  and  C_4
REMARK    4  A    between atoms: C_4  and  N_5
REMARK    5  A    between atoms: C_8  and  C_9
REMARK    6  A    between atoms: C_14  and  C_15
REMARK    7  A    between atoms: C_19  and  O_20
REMARK    8  A    between atoms: O_20  and  C_21
REMARK    9  A    between atoms: C_23  and  C_24
REMARK                            x       y       z     vdW  Elec       q    Type
REMARK                         _______ _______ _______ _____ _____    ______ ____
ROOT
ATOM      1  C   UNL     1       3.338   5.935  18.400  0.00  0.00    +0.000 A 
ATOM      2  C   UNL     1       2.955   5.202  19.536  0.00  0.00    +0.000 A 
ATOM      3  C   UNL     1       2.153   5.756  20.552  0.00  0.00    +0.000 A 
ATOM      4  C   UNL     1       1.723   7.077  20.388  0.00  0.00    +0.000 A 
ATOM      5  N   UNL     1       0.925   7.876  21.170  0.00  0.00    +0.000 N 
ATOM      6  C   UNL     1       0.692   9.101  20.568  0.00  0.00    +0.000 A 
ATOM      7  C   UNL     1       1.447   9.116  19.398  0.00  0.00    +0.000 A 
ATOM      8  C   UNL     1       1.555  10.167  18.347  0.00  0.00    +0.000 C 
ATOM      9  C   UNL     1       2.094   7.843  19.297  0.00  0.00    +0.000 A 
ATOM     10  C   UNL     1       2.935   7.276  18.327  0.00  0.00    +0.000 A 
ATOM     11  H   UNL     1       0.527   7.590  22.052  0.00  0.00    +0.000 HD
ENDROOT
BRANCH   1  15
ATOM     12  N   UNL     1       7.063   6.106  17.568  0.00  0.00    +0.000 NA
ATOM     13  C   UNL     1       6.481   5.058  18.420  0.00  0.00    +0.000 C 
ATOM     14  C   UNL     1       5.292   4.330  17.780  0.00  0.00    +0.000 C 
ATOM     15  C   UNL     1       4.187   5.290  17.303  0.00  0.00    +0.000 C 
ATOM     16  C   UNL     1       4.865   6.307  16.369  0.00  0.00    +0.000 C 
ATOM     17  C   UNL     1       6.035   7.027  17.049  0.00  0.00    +0.000 C 
BRANCH  12  18
ATOM     18  C   UNL     1       8.073   6.890  18.326  0.00  0.00    +0.000 C 
BRANCH  18  19
ATOM     19  C   UNL     1       8.096   8.395  17.974  0.00  0.00    +0.000 C 
BRANCH  19  21
ATOM     20  C   UNL     1       9.073  10.534  18.470  0.00  0.00    +0.000 C 
ATOM     21  N   UNL     1       8.862   9.176  18.957  0.00  0.00    +0.000 NA
ATOM     22  H   UNL     1       8.345   9.211  19.836  0.00  0.00    +0.000 HD
ENDBRANCH  19  21
ENDBRANCH  18  19
ENDBRANCH  12  18
ENDBRANCH   1  15
BRANCH   6  23
ATOM     23  C   UNL     1      -0.243  10.083  21.131  0.00  0.00    +0.000 A 
ATOM     24  C   UNL     1      -0.407  10.220  22.515  0.00  0.00    +0.000 A 
ATOM     25  C   UNL     1      -1.217  11.224  23.042  0.00  0.00    +0.000 A 
ATOM     26  C   UNL     1      -1.912  12.076  22.186  0.00  0.00    +0.000 A 
ATOM     27  C   UNL     1      -1.801  11.931  20.803  0.00  0.00    +0.000 A 
ATOM     28  C   UNL     1      -0.957  10.946  20.283  0.00  0.00    +0.000 A 
BRANCH  27  29
ATOM     29  O   UNL     1      -2.548  12.812  20.069  0.00  0.00    +0.000 OA
ATOM     30  C   UNL     1      -3.491  12.250  19.164  0.00  0.00    +0.000 C 
ENDBRANCH  27  29
ENDBRANCH   6  23
TORSDOF 6
ENDMDL
MODEL 5
REMARK VINA RESULT:      -7.6      1.250      1.495
REMARK  Name = 
REMARK  9 active torsions:
REMARK  status: ('A' for Active; 'I' for Inactive)
REMARK    1  A    between atoms: C_1  and  N_2
REMARK    2  A    between atoms: N_2  and  C_3
REMARK    3  A    between atoms: C_3  and  C_4
REMARK    4  A    between atoms: C_4  and  N_5
REMARK    5  A    between atoms: C_8  and  C_9
REMARK    6  A    between atoms: C_14  and  C_15
REMARK    7  A    between atoms: C_19  and  O_20
REMARK    8  A    between atoms: O_20  and  C_21
REMARK    9  A    between atoms: C_23  and  C_24
REMARK                            x       y       z     vdW  Elec       q    Type
REMARK                         _______ _______ _______ _____ _____    ______ ____
ROOT
ATOM      1  C   UNL     1       0.286  11.095  21.339  0.00  0.00    +0.000 A 
ATOM      2  C   UNL     1       0.176  10.251  22.457  0.00  0.00    +0.000 A 
ATOM      3  C   UNL     1       0.565   8.898  22.418  0.00  0.00    +0.000 A 
ATOM      4  C   UNL     1       1.092   8.411  21.217  0.00  0.00    +0.000 A 
ATOM      5  N   UNL     1       1.578   7.173  20.875  0.00  0.00    +0.000 N 
ATOM      6  C   UNL     1       2.082   7.167  19.585  0.00  0.00    +0.000 A 
ATOM      7  C   UNL     1       1.824   8.428  19.055  0.00  0.00    +0.000 A 
ATOM      8  C   UNL     1       2.173   8.989  17.719  0.00  0.00    +0.000 C 
ATOM      9  C   UNL     1       1.198   9.200  20.086  0.00  0.00    +0.000 A 
ATOM     10  C   UNL     1       0.755  10.530  20.143  0.00  0.00    +0.000 A 
ATOM     11  H   UNL     1       1.600   6.381  21.499  0.00  0.00    +0.000 HD
ENDROOT
BRANCH   1  15
ATOM     12  N   UNL     1      -3.067  12.886  20.952  0.00  0.00    +0.000 NA
ATOM     13  C   UNL     1      -2.543  12.442  22.253  0.00  0.00    +0.000 C 
ATOM     14  C   UNL     1      -1.117  12.928  22.544  0.00  0.00    +0.000 C 
ATOM     15  C   UNL     1      -0.121  12.567  21.427  0.00  0.00    +0.000 C 
ATOM     16  C   UNL     1      -0.710  13.124  20.119  0.00  0.00    +0.000 C 
ATOM     17  C   UNL     1      -2.125  12.601  19.854  0.00  0.00    +0.000 C 
BRANCH  12  18
ATOM     18  C   UNL     1      -4.363  12.219  20.661  0.00  0.00    +0.000 C 
BRANCH  18  19
ATOM     19  C   UNL     1      -4.929  12.532  19.256  0.00  0.00    +0.000 C 
BRANCH  19  21
ATOM     20  C   UNL     1      -4.959  11.614  17.035  0.00  0.00    +0.000 C 
ATOM     21  N   UNL     1      -5.109  11.312  18.454  0.00  0.00    +0.000 NA
ATOM     22  H   UNL     1      -4.409  10.623  18.728  0.00  0.00    +0.000 HD
ENDBRANCH  19  21
ENDBRANCH  18  19
ENDBRANCH  12  18
ENDBRANCH   1  15
BRANCH   6  23
ATOM     23  C   UNL     1       2.786   6.006  19.027  0.00  0.00    +0.000 A 
ATOM     24  C   UNL     1       2.146   5.121  18.150  0.00  0.00    +0.000 A 
ATOM     25  C   UNL     1       2.852   4.083  17.544  0.00  0.00    +0.000 A 
ATOM     26  C   UNL     1       4.197   3.889  17.846  0.00  0.00    +0.000 A 
ATOM     27  C   UNL     1       4.846   4.729  18.751  0.00  0.00    +0.000 A 
ATOM     28  C   UNL     1       4.142   5.790  19.326  0.00  0.00    +0.000 A 
BRANCH  27  29
ATOM     29  O   UNL     1       6.160   4.424  18.982  0.00  0.00    +0.000 OA
ATOM     30  C   UNL     1       7.072   4.683  17.921  0.00  0.00    +0.000 C 
ENDBRANCH  27  29
ENDBRANCH   6  23
TORSDOF 6
ENDMDL
MODEL 6
REMARK VINA RESULT:      -7.6      3.546      9.358
REMARK  Name = 
REMARK  9 active torsions:
REMARK  status: ('A' for Active; 'I' for Inactive)
REMARK    1  A    between atoms: C_1  and  N_2
REMARK    2  A    between atoms: N_2  and  C_3
REMARK    3  A    between atoms: C_3  and  C_4
REMARK    4  A    between atoms: C_4  and  N_5
REMARK    5  A    between atoms: C_8  and  C_9
REMARK    6  A    between atoms: C_14  and  C_15
REMARK    7  A    between atoms: C_19  and  O_20
REMARK    8  A    between atoms: O_20  and  C_21
REMARK    9  A    between atoms: C_23  and  C_24
REMARK                            x       y       z     vdW  Elec       q    Type
REMARK                         _______ _______ _______ _____ _____    ______ ____
ROOT
ATOM      1  C   UNL     1       2.901   5.585  18.801  0.00  0.00    +0.000 A 
ATOM      2  C   UNL     1       2.395   5.131  20.031  0.00  0.00    +0.000 A 
ATOM      3  C   UNL     1       1.667   5.968  20.899  0.00  0.00    +0.000 A 
ATOM      4  C   UNL     1       1.441   7.286  20.487  0.00  0.00    +0.000 A 
ATOM      5  N   UNL     1       0.757   8.317  21.081  0.00  0.00    +0.000 N 
ATOM      6  C   UNL     1       0.719   9.435  20.264  0.00  0.00    +0.000 A 
ATOM      7  C   UNL     1       1.486   9.131  19.144  0.00  0.00    +0.000 A 
ATOM      8  C   UNL     1       1.767   9.950  17.930  0.00  0.00    +0.000 C 
ATOM      9  C   UNL     1       1.939   7.781  19.295  0.00  0.00    +0.000 A 
ATOM     10  C   UNL     1       2.703   6.935  18.477  0.00  0.00    +0.000 A 
ATOM     11  H   UNL     1       0.307   8.255  21.982  0.00  0.00    +0.000 HD
ENDROOT
BRANCH   1  15
ATOM     12  N   UNL     1       6.614   5.176  17.995  0.00  0.00    +0.000 NA
ATOM     13  C   UNL     1       5.931   4.397  19.039  0.00  0.00    +0.000 C 
ATOM     14  C   UNL     1       4.664   3.685  18.550  0.00  0.00    +0.000 C 
ATOM     15  C   UNL     1       3.663   4.639  17.871  0.00  0.00    +0.000 C 
ATOM     16  C   UNL     1       4.437   5.361  16.755  0.00  0.00    +0.000 C 
ATOM     17  C   UNL     1       5.685   6.075  17.285  0.00  0.00    +0.000 C 
BRANCH  12  18
ATOM     18  C   UNL     1       7.711   5.987  18.586  0.00  0.00    +0.000 C 
BRANCH  18  19
ATOM     19  C   UNL     1       7.866   7.390  17.956  0.00  0.00    +0.000 C 
BRANCH  19  21
ATOM     20  C   UNL     1       8.603   9.653  18.292  0.00  0.00    +0.000 C 
ATOM     21  N   UNL     1       8.647   8.292  18.816  0.00  0.00    +0.000 NA
ATOM     22  H   UNL     1       8.257   8.282  19.758  0.00  0.00    +0.000 HD
ENDBRANCH  19  21
ENDBRANCH  18  19
ENDBRANCH  12  18
ENDBRANCH   1  15
BRANCH   6  23
ATOM     23  C   UNL     1      -0.069  10.626  20.605  0.00  0.00    +0.000 A 
ATOM     24  C   UNL     1      -1.025  11.142  19.721  0.00  0.00    +0.000 A 
ATOM     25  C   UNL     1      -1.841  12.209  20.096  0.00  0.00    +0.000 A 
ATOM     26  C   UNL     1      -1.678  12.802  21.345  0.00  0.00    +0.000 A 
ATOM     27  C   UNL     1      -0.702  12.335  22.226  0.00  0.00    +0.000 A 
ATOM     28  C   UNL     1       0.087  11.242  21.858  0.00  0.00    +0.000 A 
BRANCH  27  29
ATOM     29  O   UNL     1      -0.624  13.013  23.413  0.00  0.00    +0.000 OA
ATOM     30  C   UNL     1      -1.403  14.199  23.522  0.00  0.00    +0.000 C 
ENDBRANCH  27  29
ENDBRANCH   6  23
TORSDOF 6
ENDMDL
MODEL 7
REMARK VINA RESULT:      -7.6      2.734      4.414
REMARK  Name = 
REMARK  9 active torsions:
REMARK  status: ('A' for Active; 'I' for Inactive)
REMARK    1  A    between atoms: C_1  and  N_2
REMARK    2  A    between atoms: N_2  and  C_3
REMARK    3  A    between atoms: C_3  and  C_4
REMARK    4  A    between atoms: C_4  and  N_5
REMARK    5  A    between atoms: C_8  and  C_9
REMARK    6  A    between atoms: C_14  and  C_15
REMARK    7  A    between atoms: C_19  and  O_20
REMARK    8  A    between atoms: O_20  and  C_21
REMARK    9  A    between atoms: C_23  and  C_24
REMARK                            x       y       z     vdW  Elec       q    Type
REMARK                         _______ _______ _______ _____ _____    ______ ____
ROOT
ATOM      1  C   UNL     1       0.279  10.970  21.005  0.00  0.00    +0.000 A 
ATOM      2  C   UNL     1       0.201  10.225  22.193  0.00  0.00    +0.000 A 
ATOM      3  C   UNL     1       0.644   8.890  22.273  0.00  0.00    +0.000 A 
ATOM      4  C   UNL     1       1.191   8.321  21.119  0.00  0.00    +0.000 A 
ATOM      5  N   UNL     1       1.728   7.078  20.887  0.00  0.00    +0.000 N 
ATOM      6  C   UNL     1       2.233   6.978  19.601  0.00  0.00    +0.000 A 
ATOM      7  C   UNL     1       1.926   8.176  18.962  0.00  0.00    +0.000 A 
ATOM      8  C   UNL     1       2.253   8.630  17.581  0.00  0.00    +0.000 C 
ATOM      9  C   UNL     1       1.268   9.010  19.922  0.00  0.00    +0.000 A 
ATOM     10  C   UNL     1       0.771  10.321  19.863  0.00  0.00    +0.000 A 
ATOM     11  H   UNL     1       1.781   6.345  21.578  0.00  0.00    +0.000 HD
ENDROOT
BRANCH   1  15
ATOM     12  N   UNL     1       1.483  14.022  19.045  0.00  0.00    +0.000 NA
ATOM     13  C   UNL     1       0.400  13.145  18.575  0.00  0.00    +0.000 C 
ATOM     14  C   UNL     1      -0.715  12.929  19.606  0.00  0.00    +0.000 C 
ATOM     15  C   UNL     1      -0.187  12.427  20.963  0.00  0.00    +0.000 C 
ATOM     16  C   UNL     1       0.887  13.431  21.413  0.00  0.00    +0.000 C 
ATOM     17  C   UNL     1       1.992  13.605  20.365  0.00  0.00    +0.000 C 
BRANCH  12  18
ATOM     18  C   UNL     1       2.608  14.024  18.074  0.00  0.00    +0.000 C 
BRANCH  18  19
ATOM     19  C   UNL     1       3.937  14.562  18.652  0.00  0.00    +0.000 C 
BRANCH  19  21
ATOM     20  C   UNL     1       6.238  15.094  18.204  0.00  0.00    +0.000 C 
ATOM     21  N   UNL     1       5.044  14.430  17.693  0.00  0.00    +0.000 NA
ATOM     22  H   UNL     1       5.247  13.441  17.546  0.00  0.00    +0.000 HD
ENDBRANCH  19  21
ENDBRANCH  18  19
ENDBRANCH  12  18
ENDBRANCH   1  15
BRANCH   6  23
ATOM     23  C   UNL     1       2.984   5.802  19.146  0.00  0.00    +0.000 A 
ATOM     24  C   UNL     1       2.356   4.767  18.442  0.00  0.00    +0.000 A 
ATOM     25  C   UNL     1       3.096   3.705  17.924  0.00  0.00    +0.000 A 
ATOM     26  C   UNL     1       4.470   3.642  18.146  0.00  0.00    +0.000 A 
ATOM     27  C   UNL     1       5.112   4.637  18.883  0.00  0.00    +0.000 A 
ATOM     28  C   UNL     1       4.369   5.718  19.367  0.00  0.00    +0.000 A 
BRANCH  27  29
ATOM     29  O   UNL     1       6.458   4.453  19.052  0.00  0.00    +0.000 OA
ATOM     30  C   UNL     1       7.231   5.615  19.328  0.00  0.00    +0.000 C 
ENDBRANCH  27  29
ENDBRANCH   6  23
TORSDOF 6
ENDMDL
MODEL 8
REMARK VINA RESULT:      -7.6      2.338      3.233
REMARK  Name = 
REMARK  9 active torsions:
REMARK  status: ('A' for Active; 'I' for Inactive)
REMARK    1  A    between atoms: C_1  and  N_2
REMARK    2  A    between atoms: N_2  and  C_3
REMARK    3  A    between atoms: C_3  and  C_4
REMARK    4  A    between atoms: C_4  and  N_5
REMARK    5  A    between atoms: C_8  and  C_9
REMARK    6  A    between atoms: C_14  and  C_15
REMARK    7  A    between atoms: C_19  and  O_20
REMARK    8  A    between atoms: O_20  and  C_21
REMARK    9  A    between atoms: C_23  and  C_24
REMARK                            x       y       z     vdW  Elec       q    Type
REMARK                         _______ _______ _______ _____ _____    ______ ____
ROOT
ATOM      1  C   UNL     1       0.350  11.214  20.931  0.00  0.00    +0.000 A 
ATOM      2  C   UNL     1       0.202  10.538  22.153  0.00  0.00    +0.000 A 
ATOM      3  C   UNL     1       0.575   9.190  22.317  0.00  0.00    +0.000 A 
ATOM      4  C   UNL     1       1.126   8.534  21.212  0.00  0.00    +0.000 A 
ATOM      5  N   UNL     1       1.607   7.256  21.061  0.00  0.00    +0.000 N 
ATOM      6  C   UNL     1       2.143   7.063  19.799  0.00  0.00    +0.000 A 
ATOM      7  C   UNL     1       1.913   8.238  19.089  0.00  0.00    +0.000 A 
ATOM      8  C   UNL     1       2.302   8.602  17.696  0.00  0.00    +0.000 C 
ATOM      9  C   UNL     1       1.271   9.153  19.983  0.00  0.00    +0.000 A 
ATOM     10  C   UNL     1       0.842  10.482  19.840  0.00  0.00    +0.000 A 
ATOM     11  H   UNL     1       1.603   6.560  21.791  0.00  0.00    +0.000 HD
ENDROOT
BRANCH   1  15
ATOM     12  N   UNL     1      -2.795  13.158  21.896  0.00  0.00    +0.000 NA
ATOM     13  C   UNL     1      -1.627  13.036  22.781  0.00  0.00    +0.000 C 
ATOM     14  C   UNL     1      -0.304  13.438  22.118  0.00  0.00    +0.000 C 
ATOM     15  C   UNL     1      -0.042  12.688  20.799  0.00  0.00    +0.000 C 
ATOM     16  C   UNL     1      -1.276  12.921  19.911  0.00  0.00    +0.000 C 
ATOM     17  C   UNL     1      -2.575  12.490  20.600  0.00  0.00    +0.000 C 
BRANCH  12  18
ATOM     18  C   UNL     1      -3.998  12.570  22.542  0.00  0.00    +0.000 C 
BRANCH  18  19
ATOM     19  C   UNL     1      -4.306  13.147  23.943  0.00  0.00    +0.000 C 
BRANCH  19  21
ATOM     20  C   UNL     1      -6.654  12.674  24.144  0.00  0.00    +0.000 C 
ATOM     21  N   UNL     1      -5.323  12.355  24.650  0.00  0.00    +0.000 NA
ATOM     22  H   UNL     1      -5.138  11.363  24.506  0.00  0.00    +0.000 HD
ENDBRANCH  19  21
ENDBRANCH  18  19
ENDBRANCH  12  18
ENDBRANCH   1  15
BRANCH   6  23
ATOM     23  C   UNL     1       2.847   5.829  19.429  0.00  0.00    +0.000 A 
ATOM     24  C   UNL     1       4.245   5.787  19.347  0.00  0.00    +0.000 A 
ATOM     25  C   UNL     1       4.909   4.587  19.098  0.00  0.00    +0.000 A 
ATOM     26  C   UNL     1       4.178   3.421  18.882  0.00  0.00    +0.000 A 
ATOM     27  C   UNL     1       2.784   3.446  18.914  0.00  0.00    +0.000 A 
ATOM     28  C   UNL     1       2.126   4.645  19.201  0.00  0.00    +0.000 A 
BRANCH  27  29
ATOM     29  O   UNL     1       2.179   2.243  18.665  0.00  0.00    +0.000 OA
ATOM     30  C   UNL     1       0.762   2.204  18.784  0.00  0.00    +0.000 C 
ENDBRANCH  27  29
ENDBRANCH   6  23
TORSDOF 6
ENDMDL
MODEL 9
REMARK VINA RESULT:      -7.5      0.833      1.116
REMARK  Name = 
REMARK  9 active torsions:
REMARK  status: ('A' for Active; 'I' for Inactive)
REMARK    1  A    between atoms: C_1  and  N_2
REMARK    2  A    between atoms: N_2  and  C_3
REMARK    3  A    between atoms: C_3  and  C_4
REMARK    4  A    between atoms: C_4  and  N_5
REMARK    5  A    between atoms: C_8  and  C_9
REMARK    6  A    between atoms: C_14  and  C_15
REMARK    7  A    between atoms: C_19  and  O_20
REMARK    8  A    between atoms: O_20  and  C_21
REMARK    9  A    between atoms: C_23  and  C_24
REMARK                            x       y       z     vdW  Elec       q    Type
REMARK                         _______ _______ _______ _____ _____    ______ ____
ROOT
ATOM      1  C   UNL     1       0.237  10.931  20.414  0.00  0.00    +0.000 A 
ATOM      2  C   UNL     1       0.086  10.365  21.690  0.00  0.00    +0.000 A 
ATOM      3  C   UNL     1       0.557   9.074  22.000  0.00  0.00    +0.000 A 
ATOM      4  C   UNL     1       1.209   8.364  20.987  0.00  0.00    +0.000 A 
ATOM      5  N   UNL     1       1.796   7.123  20.982  0.00  0.00    +0.000 N 
ATOM      6  C   UNL     1       2.404   6.856  19.767  0.00  0.00    +0.000 A 
ATOM      7  C   UNL     1       2.115   7.935  18.936  0.00  0.00    +0.000 A 
ATOM      8  C   UNL     1       2.539   8.195  17.530  0.00  0.00    +0.000 C 
ATOM      9  C   UNL     1       1.361   8.874  19.710  0.00  0.00    +0.000 A 
ATOM     10  C   UNL     1       0.836  10.142  19.420  0.00  0.00    +0.000 A 
ATOM     11  H   UNL     1       1.813   6.501  21.776  0.00  0.00    +0.000 HD
ENDROOT
BRANCH   1  15
ATOM     12  N   UNL     1      -2.944  12.272  18.775  0.00  0.00    +0.000 NA
ATOM     13  C   UNL     1      -2.810  12.087  20.228  0.00  0.00    +0.000 C 
ATOM     14  C   UNL     1      -1.569  12.762  20.825  0.00  0.00    +0.000 C 
ATOM     15  C   UNL     1      -0.263  12.348  20.122  0.00  0.00    +0.000 C 
ATOM     16  C   UNL     1      -0.464  12.635  18.624  0.00  0.00    +0.000 C 
ATOM     17  C   UNL     1      -1.701  11.929  18.060  0.00  0.00    +0.000 C 
BRANCH  12  18
ATOM     18  C   UNL     1      -4.051  11.433  18.246  0.00  0.00    +0.000 C 
BRANCH  18  19
ATOM     19  C   UNL     1      -4.438  11.751  16.783  0.00  0.00    +0.000 C 
BRANCH  19  21
ATOM     20  C   UNL     1      -3.243  10.610  15.037  0.00  0.00    +0.000 C 
ATOM     21  N   UNL     1      -4.394  10.553  15.932  0.00  0.00    +0.000 NA
ATOM     22  H   UNL     1      -4.320   9.723  16.521  0.00  0.00    +0.000 HD
ENDBRANCH  19  21
ENDBRANCH  18  19
ENDBRANCH  12  18
ENDBRANCH   1  15
BRANCH   6  23
ATOM     23  C   UNL     1       3.220   5.655  19.548  0.00  0.00    +0.000 A 
ATOM     24  C   UNL     1       2.950   4.460  20.228  0.00  0.00    +0.000 A 
ATOM     25  C   UNL     1       3.664   3.298  19.937  0.00  0.00    +0.000 A 
ATOM     26  C   UNL     1       4.688   3.330  18.995  0.00  0.00    +0.000 A 
ATOM     27  C   UNL     1       5.006   4.519  18.337  0.00  0.00    +0.000 A 
ATOM     28  C   UNL     1       4.262   5.670  18.607  0.00  0.00    +0.000 A 
BRANCH  27  29
ATOM     29  O   UNL     1       6.046   4.428  17.451  0.00  0.00    +0.000 OA
ATOM     30  C   UNL     1       7.337   4.761  17.947  0.00  0.00    +0.000 C 
ENDBRANCH  27  29
ENDBRANCH   6  23
TORSDOF 6
ENDMDL
