MODEL 1
REMARK VINA RESULT:      -7.9      0.000      0.000
REMARK  Name = 
REMARK  4 active torsions:
REMARK  status: ('A' for Active; 'I' for Inactive)
REMARK    1  A    between atoms: C_1  and  C_2
REMARK    2  A    between atoms: C_2  and  S_3
REMARK    3  A    between atoms: S_3  and  N_6
REMARK    4  A    between atoms: C_8  and  C_9
REMARK                            x       y       z     vdW  Elec       q    Type
REMARK                         _______ _______ _______ _____ _____    ______ ____
ROOT
ATOM      1  N   UNL     1       5.162   5.518  17.194  0.00  0.00    +0.000 N 
ATOM      2  C   UNL     1       4.756   6.808  17.426  0.00  0.00    +0.000 A 
ATOM      3  C   UNL     1       3.429   6.774  17.783  0.00  0.00    +0.000 A 
ATOM      4  C   UNL     1       3.029   5.395  17.798  0.00  0.00    +0.000 A 
ATOM      5  C   UNL     1       1.808   4.729  18.057  0.00  0.00    +0.000 A 
ATOM      6  C   UNL     1       1.748   3.334  18.020  0.00  0.00    +0.000 A 
ATOM      7  C   UNL     1       2.886   2.587  17.748  0.00  0.00    +0.000 A 
ATOM      8  C   UNL     1       4.108   3.211  17.481  0.00  0.00    +0.000 A 
ATOM      9  C   UNL     1       4.159   4.618  17.486  0.00  0.00    +0.000 A 
ENDROOT
BRANCH   3  10
ATOM     10  C   UNL     1       2.578   7.954  18.128  0.00  0.00    +0.000 A 
ATOM     11  O   UNL     1       2.381   9.008  17.260  0.00  0.00    +0.000 OA
ATOM     12  C   UNL     1       1.531   9.840  17.910  0.00  0.00    +0.000 A 
ATOM     13  N   UNL     1       1.170   9.447  19.105  0.00  0.00    +0.000 NA
ATOM     14  C   UNL     1       1.834   8.252  19.260  0.00  0.00    +0.000 A 
ATOM     15 BR   UNL     1       1.649   7.288  20.871  0.00  0.00    +0.000 Br
ENDBRANCH   3  10
BRANCH   1  16
ATOM     16  S   UNL     1       6.794   5.138  16.854  0.00  0.00    +0.000 S 
ATOM     17  O   UNL     1       7.233   4.361  17.999  0.00  0.00    +0.000 OA
ATOM     18  O   UNL     1       7.436   6.394  16.515  0.00  0.00    +0.000 OA
BRANCH  16  20
ATOM     19  C   UNL     1       5.792   4.550  14.391  0.00  0.00    +0.000 C 
ATOM     20  C   UNL     1       6.801   4.081  15.422  0.00  0.00    +0.000 C 
ENDBRANCH  16  20
ENDBRANCH   1  16
TORSDOF 3
ENDMDL
MODEL 2
REMARK VINA RESULT:      -7.9      1.170      1.574
REMARK  Name = 
REMARK  4 active torsions:
REMARK  status: ('A' for Active; 'I' for Inactive)
REMARK    1  A    between atoms: C_1  and  C_2
REMARK    2  A    between atoms: C_2  and  S_3
REMARK    3  A    between atoms: S_3  and  N_6
REMARK    4  A    between atoms: C_8  and  C_9
REMARK                            x       y       z     vdW  Elec       q    Type
REMARK                         _______ _______ _______ _____ _____    ______ ____
ROOT
ATOM      1  N   UNL     1       5.210   5.648  17.005  0.00  0.00    +0.000 N 
ATOM      2  C   UNL     1       4.774   6.920  17.273  0.00  0.00    +0.000 A 
ATOM      3  C   UNL     1       3.469   6.839  17.697  0.00  0.00    +0.000 A 
ATOM      4  C   UNL     1       3.115   5.448  17.714  0.00  0.00    +0.000 A 
ATOM      5  C   UNL     1       1.932   4.738  18.026  0.00  0.00    +0.000 A 
ATOM      6  C   UNL     1       1.915   3.342  17.975  0.00  0.00    +0.000 A 
ATOM      7  C   UNL     1       3.062   2.637  17.637  0.00  0.00    +0.000 A 
ATOM      8  C   UNL     1       4.247   3.304  17.316  0.00  0.00    +0.000 A 
ATOM      9  C   UNL     1       4.253   4.711  17.336  0.00  0.00    +0.000 A 
ENDROOT
BRANCH   3  10
ATOM     10  C   UNL     1       2.599   7.986  18.099  0.00  0.00    +0.000 A 
ATOM     11  O   UNL     1       2.368   9.069  17.276  0.00  0.00    +0.000 OA
ATOM     12  C   UNL     1       1.509   9.857  17.968  0.00  0.00    +0.000 A 
ATOM     13  N   UNL     1       1.173   9.410  19.152  0.00  0.00    +0.000 NA
ATOM     14  C   UNL     1       1.863   8.224  19.251  0.00  0.00    +0.000 A 
ATOM     15 BR   UNL     1       1.721   7.193  20.825  0.00  0.00    +0.000 Br
ENDBRANCH   3  10
BRANCH   1  16
ATOM     16  S   UNL     1       6.834   5.326  16.579  0.00  0.00    +0.000 S 
ATOM     17  O   UNL     1       7.405   6.633  16.304  0.00  0.00    +0.000 OA
ATOM     18  O   UNL     1       6.784   4.303  15.552  0.00  0.00    +0.000 OA
BRANCH  16  20
ATOM     19  C   UNL     1       7.813   5.719  19.090  0.00  0.00    +0.000 C 
ATOM     20  C   UNL     1       7.633   4.657  18.022  0.00  0.00    +0.000 C 
ENDBRANCH  16  20
ENDBRANCH   1  16
TORSDOF 3
ENDMDL
MODEL 3
REMARK VINA RESULT:      -7.9      3.273      5.655
REMARK  Name = 
REMARK  4 active torsions:
REMARK  status: ('A' for Active; 'I' for Inactive)
REMARK    1  A    between atoms: C_1  and  C_2
REMARK    2  A    between atoms: C_2  and  S_3
REMARK    3  A    between atoms: S_3  and  N_6
REMARK    4  A    between atoms: C_8  and  C_9
REMARK                            x       y       z     vdW  Elec       q    Type
REMARK                         _______ _______ _______ _____ _____    ______ ____
ROOT
ATOM      1  N   UNL     1       3.167   3.628  18.245  0.00  0.00    +0.000 N 
ATOM      2  C   UNL     1       4.208   3.402  17.381  0.00  0.00    +0.000 A 
ATOM      3  C   UNL     1       4.638   4.621  16.913  0.00  0.00    +0.000 A 
ATOM      4  C   UNL     1       3.838   5.627  17.552  0.00  0.00    +0.000 A 
ATOM      5  C   UNL     1       3.782   7.038  17.469  0.00  0.00    +0.000 A 
ATOM      6  C   UNL     1       2.887   7.754  18.267  0.00  0.00    +0.000 A 
ATOM      7  C   UNL     1       2.059   7.093  19.163  0.00  0.00    +0.000 A 
ATOM      8  C   UNL     1       2.082   5.699  19.268  0.00  0.00    +0.000 A 
ATOM      9  C   UNL     1       2.960   4.977  18.439  0.00  0.00    +0.000 A 
ENDROOT
BRANCH   3  10
ATOM     10  C   UNL     1       5.756   4.851  15.947  0.00  0.00    +0.000 A 
ATOM     11  O   UNL     1       5.803   4.247  14.707  0.00  0.00    +0.000 OA
ATOM     12  C   UNL     1       6.927   4.734  14.125  0.00  0.00    +0.000 A 
ATOM     13  N   UNL     1       7.616   5.573  14.857  0.00  0.00    +0.000 NA
ATOM     14  C   UNL     1       6.887   5.652  16.021  0.00  0.00    +0.000 A 
ATOM     15 BR   UNL     1       7.500   6.744  17.432  0.00  0.00    +0.000 Br
ENDBRANCH   3  10
BRANCH   1  16
ATOM     16  S   UNL     1       2.451   2.357  19.137  0.00  0.00    +0.000 S 
ATOM     17  O   UNL     1       3.202   1.175  18.755  0.00  0.00    +0.000 OA
ATOM     18  O   UNL     1       1.025   2.447  18.889  0.00  0.00    +0.000 OA
BRANCH  16  20
ATOM     19  C   UNL     1       1.460   2.802  21.635  0.00  0.00    +0.000 C 
ATOM     20  C   UNL     1       2.759   2.686  20.860  0.00  0.00    +0.000 C 
ENDBRANCH  16  20
ENDBRANCH   1  16
TORSDOF 3
ENDMDL
MODEL 4
REMARK VINA RESULT:      -7.8      3.121      5.578
REMARK  Name = 
REMARK  4 active torsions:
REMARK  status: ('A' for Active; 'I' for Inactive)
REMARK    1  A    between atoms: C_1  and  C_2
REMARK    2  A    between atoms: C_2  and  S_3
REMARK    3  A    between atoms: S_3  and  N_6
REMARK    4  A    between atoms: C_8  and  C_9
REMARK                            x       y       z     vdW  Elec       q    Type
REMARK                         _______ _______ _______ _____ _____    ______ ____
ROOT
ATOM      1  N   UNL     1       3.242   4.412  19.329  0.00  0.00    +0.000 N 
ATOM      2  C   UNL     1       4.263   3.974  18.525  0.00  0.00    +0.000 A 
ATOM      3  C   UNL     1       4.598   5.000  17.672  0.00  0.00    +0.000 A 
ATOM      4  C   UNL     1       3.759   6.117  18.004  0.00  0.00    +0.000 A 
ATOM      5  C   UNL     1       3.611   7.423  17.482  0.00  0.00    +0.000 A 
ATOM      6  C   UNL     1       2.701   8.312  18.061  0.00  0.00    +0.000 A 
ATOM      7  C   UNL     1       1.950   7.930  19.164  0.00  0.00    +0.000 A 
ATOM      8  C   UNL     1       2.065   6.646  19.702  0.00  0.00    +0.000 A 
ATOM      9  C   UNL     1       2.957   5.741  19.098  0.00  0.00    +0.000 A 
ENDROOT
BRANCH   3  10
ATOM     10  C   UNL     1       5.664   4.964  16.624  0.00  0.00    +0.000 A 
ATOM     11  O   UNL     1       5.638   4.077  15.568  0.00  0.00    +0.000 OA
ATOM     12  C   UNL     1       6.732   4.384  14.828  0.00  0.00    +0.000 A 
ATOM     13  N   UNL     1       7.467   5.359  15.299  0.00  0.00    +0.000 NA
ATOM     14  C   UNL     1       6.804   5.734  16.444  0.00  0.00    +0.000 A 
ATOM     15 BR   UNL     1       7.503   7.121  17.513  0.00  0.00    +0.000 Br
ENDBRANCH   3  10
BRANCH   1  16
ATOM     16  S   UNL     1       2.641   3.459  20.614  0.00  0.00    +0.000 S 
ATOM     17  O   UNL     1       2.519   4.382  21.728  0.00  0.00    +0.000 OA
ATOM     18  O   UNL     1       3.511   2.301  20.697  0.00  0.00    +0.000 OA
BRANCH  16  20
ATOM     19  C   UNL     1       0.963   2.504  18.693  0.00  0.00    +0.000 C 
ATOM     20  C   UNL     1       1.008   2.920  20.151  0.00  0.00    +0.000 C 
ENDBRANCH  16  20
ENDBRANCH   1  16
TORSDOF 3
ENDMDL
MODEL 5
REMARK VINA RESULT:      -7.5      2.466      3.922
REMARK  Name = 
REMARK  4 active torsions:
REMARK  status: ('A' for Active; 'I' for Inactive)
REMARK    1  A    between atoms: C_1  and  C_2
REMARK    2  A    between atoms: C_2  and  S_3
REMARK    3  A    between atoms: S_3  and  N_6
REMARK    4  A    between atoms: C_8  and  C_9
REMARK                            x       y       z     vdW  Elec       q    Type
REMARK                         _______ _______ _______ _____ _____    ______ ____
ROOT
ATOM      1  N   UNL     1       2.889   4.331  18.483  0.00  0.00    +0.000 N 
ATOM      2  C   UNL     1       2.168   5.434  18.863  0.00  0.00    +0.000 A 
ATOM      3  C   UNL     1       2.724   6.533  18.252  0.00  0.00    +0.000 A 
ATOM      4  C   UNL     1       3.811   6.062  17.441  0.00  0.00    +0.000 A 
ATOM      5  C   UNL     1       4.764   6.697  16.610  0.00  0.00    +0.000 A 
ATOM      6  C   UNL     1       5.703   5.935  15.910  0.00  0.00    +0.000 A 
ATOM      7  C   UNL     1       5.699   4.550  16.006  0.00  0.00    +0.000 A 
ATOM      8  C   UNL     1       4.777   3.890  16.822  0.00  0.00    +0.000 A 
ATOM      9  C   UNL     1       3.853   4.660  17.553  0.00  0.00    +0.000 A 
ENDROOT
BRANCH   3  10
ATOM     10  C   UNL     1       2.255   7.947  18.383  0.00  0.00    +0.000 A 
ATOM     11  O   UNL     1       2.350   8.860  17.352  0.00  0.00    +0.000 OA
ATOM     12  C   UNL     1       1.788   9.994  17.839  0.00  0.00    +0.000 A 
ATOM     13  N   UNL     1       1.357   9.918  19.073  0.00  0.00    +0.000 NA
ATOM     14  C   UNL     1       1.653   8.624  19.433  0.00  0.00    +0.000 A 
ATOM     15 BR   UNL     1       1.236   8.024  21.173  0.00  0.00    +0.000 Br
ENDBRANCH   3  10
BRANCH   1  16
ATOM     16  S   UNL     1       2.418   2.752  18.934  0.00  0.00    +0.000 S 
ATOM     17  O   UNL     1       3.584   2.199  19.601  0.00  0.00    +0.000 OA
ATOM     18  O   UNL     1       1.882   2.135  17.736  0.00  0.00    +0.000 OA
BRANCH  16  20
ATOM     19  C   UNL     1       1.653   2.831  21.548  0.00  0.00    +0.000 C 
ATOM     20  C   UNL     1       1.111   2.915  20.133  0.00  0.00    +0.000 C 
ENDBRANCH  16  20
ENDBRANCH   1  16
TORSDOF 3
ENDMDL
MODEL 6
REMARK VINA RESULT:      -7.4      1.237      1.610
REMARK  Name = 
REMARK  4 active torsions:
REMARK  status: ('A' for Active; 'I' for Inactive)
REMARK    1  A    between atoms: C_1  and  C_2
REMARK    2  A    between atoms: C_2  and  S_3
REMARK    3  A    between atoms: S_3  and  N_6
REMARK    4  A    between atoms: C_8  and  C_9
REMARK                            x       y       z     vdW  Elec       q    Type
REMARK                         _______ _______ _______ _____ _____    ______ ____
ROOT
ATOM      1  N   UNL     1       4.964   5.475  17.477  0.00  0.00    +0.000 N 
ATOM      2  C   UNL     1       4.576   6.774  17.688  0.00  0.00    +0.000 A 
ATOM      3  C   UNL     1       3.224   6.775  17.940  0.00  0.00    +0.000 A 
ATOM      4  C   UNL     1       2.787   5.408  17.911  0.00  0.00    +0.000 A 
ATOM      5  C   UNL     1       1.532   4.774  18.068  0.00  0.00    +0.000 A 
ATOM      6  C   UNL     1       1.437   3.381  18.015  0.00  0.00    +0.000 A 
ATOM      7  C   UNL     1       2.573   2.605  17.827  0.00  0.00    +0.000 A 
ATOM      8  C   UNL     1       3.828   3.197  17.661  0.00  0.00    +0.000 A 
ATOM      9  C   UNL     1       3.917   4.601  17.682  0.00  0.00    +0.000 A 
ENDROOT
BRANCH   3  10
ATOM     10  C   UNL     1       2.381   7.976  18.227  0.00  0.00    +0.000 A 
ATOM     11  O   UNL     1       2.174   8.978  17.301  0.00  0.00    +0.000 OA
ATOM     12  C   UNL     1       1.335   9.849  17.913  0.00  0.00    +0.000 A 
ATOM     13  N   UNL     1       0.991   9.528  19.134  0.00  0.00    +0.000 NA
ATOM     14  C   UNL     1       1.654   8.343  19.350  0.00  0.00    +0.000 A 
ATOM     15 BR   UNL     1       1.491   7.475  21.017  0.00  0.00    +0.000 Br
ENDBRANCH   3  10
BRANCH   1  16
ATOM     16  S   UNL     1       6.606   5.053  17.263  0.00  0.00    +0.000 S 
ATOM     17  O   UNL     1       6.649   4.397  15.968  0.00  0.00    +0.000 OA
ATOM     18  O   UNL     1       7.000   4.349  18.469  0.00  0.00    +0.000 OA
BRANCH  16  20
ATOM     19  C   UNL     1       8.061   6.988  18.512  0.00  0.00    +0.000 C 
ATOM     20  C   UNL     1       7.530   6.571  17.153  0.00  0.00    +0.000 C 
ENDBRANCH  16  20
ENDBRANCH   1  16
TORSDOF 3
ENDMDL
MODEL 7
REMARK VINA RESULT:      -7.4      1.923      2.277
REMARK  Name = 
REMARK  4 active torsions:
REMARK  status: ('A' for Active; 'I' for Inactive)
REMARK    1  A    between atoms: C_1  and  C_2
REMARK    2  A    between atoms: C_2  and  S_3
REMARK    3  A    between atoms: S_3  and  N_6
REMARK    4  A    between atoms: C_8  and  C_9
REMARK                            x       y       z     vdW  Elec       q    Type
REMARK                         _______ _______ _______ _____ _____    ______ ____
ROOT
ATOM      1  N   UNL     1       4.269   5.579  17.212  0.00  0.00    +0.000 N 
ATOM      2  C   UNL     1       3.900   6.711  17.892  0.00  0.00    +0.000 A 
ATOM      3  C   UNL     1       2.794   6.407  18.649  0.00  0.00    +0.000 A 
ATOM      4  C   UNL     1       2.506   5.016  18.439  0.00  0.00    +0.000 A 
ATOM      5  C   UNL     1       1.500   4.139  18.908  0.00  0.00    +0.000 A 
ATOM      6  C   UNL     1       1.511   2.793  18.534  0.00  0.00    +0.000 A 
ATOM      7  C   UNL     1       2.518   2.299  17.715  0.00  0.00    +0.000 A 
ATOM      8  C   UNL     1       3.523   3.137  17.227  0.00  0.00    +0.000 A 
ATOM      9  C   UNL     1       3.492   4.500  17.578  0.00  0.00    +0.000 A 
ENDROOT
BRANCH   3  10
ATOM     10  C   UNL     1       2.057   7.344  19.551  0.00  0.00    +0.000 A 
ATOM     11  O   UNL     1       1.663   6.994  20.826  0.00  0.00    +0.000 OA
ATOM     12  C   UNL     1       1.075   8.108  21.328  0.00  0.00    +0.000 A 
ATOM     13  N   UNL     1       1.033   9.132  20.513  0.00  0.00    +0.000 NA
ATOM     14  C   UNL     1       1.648   8.659  19.377  0.00  0.00    +0.000 A 
ATOM     15 BR   UNL     1       1.814   9.783  17.871  0.00  0.00    +0.000 Br
ENDBRANCH   3  10
BRANCH   1  16
ATOM     16  S   UNL     1       5.689   5.525  16.262  0.00  0.00    +0.000 S 
ATOM     17  O   UNL     1       6.112   6.910  16.160  0.00  0.00    +0.000 OA
ATOM     18  O   UNL     1       5.351   4.759  15.078  0.00  0.00    +0.000 OA
BRANCH  16  20
ATOM     19  C   UNL     1       7.476   5.486  18.318  0.00  0.00    +0.000 C 
ATOM     20  C   UNL     1       6.914   4.632  17.197  0.00  0.00    +0.000 C 
ENDBRANCH  16  20
ENDBRANCH   1  16
TORSDOF 3
ENDMDL
MODEL 8
REMARK VINA RESULT:      -7.3      2.267      2.695
REMARK  Name = 
REMARK  4 active torsions:
REMARK  status: ('A' for Active; 'I' for Inactive)
REMARK    1  A    between atoms: C_1  and  C_2
REMARK    2  A    between atoms: C_2  and  S_3
REMARK    3  A    between atoms: S_3  and  N_6
REMARK    4  A    between atoms: C_8  and  C_9
REMARK                            x       y       z     vdW  Elec       q    Type
REMARK                         _______ _______ _______ _____ _____    ______ ____
ROOT
ATOM      1  N   UNL     1       3.969   5.184  18.501  0.00  0.00    +0.000 N 
ATOM      2  C   UNL     1       3.645   6.480  18.815  0.00  0.00    +0.000 A 
ATOM      3  C   UNL     1       2.514   6.454  19.596  0.00  0.00    +0.000 A 
ATOM      4  C   UNL     1       2.161   5.076  19.786  0.00  0.00    +0.000 A 
ATOM      5  C   UNL     1       1.107   4.415  20.459  0.00  0.00    +0.000 A 
ATOM      6  C   UNL     1       1.058   3.019  20.488  0.00  0.00    +0.000 A 
ATOM      7  C   UNL     1       2.051   2.267  19.876  0.00  0.00    +0.000 A 
ATOM      8  C   UNL     1       3.104   2.885  19.196  0.00  0.00    +0.000 A 
ATOM      9  C   UNL     1       3.134   4.291  19.140  0.00  0.00    +0.000 A 
ENDROOT
BRANCH   3  10
ATOM     10  C   UNL     1       1.810   7.643  20.168  0.00  0.00    +0.000 A 
ATOM     11  O   UNL     1       1.374   7.690  21.476  0.00  0.00    +0.000 OA
ATOM     12  C   UNL     1       0.836   8.926  21.620  0.00  0.00    +0.000 A 
ATOM     13  N   UNL     1       0.864   9.675  20.546  0.00  0.00    +0.000 NA
ATOM     14  C   UNL     1       1.475   8.869  19.613  0.00  0.00    +0.000 A 
ATOM     15 BR   UNL     1       1.729   9.508  17.856  0.00  0.00    +0.000 Br
ENDBRANCH   3  10
BRANCH   1  16
ATOM     16  S   UNL     1       5.399   4.798  17.648  0.00  0.00    +0.000 S 
ATOM     17  O   UNL     1       4.953   3.962  16.548  0.00  0.00    +0.000 OA
ATOM     18  O   UNL     1       6.332   4.293  18.637  0.00  0.00    +0.000 OA
BRANCH  16  20
ATOM     19  C   UNL     1       7.324   6.725  17.668  0.00  0.00    +0.000 C 
ATOM     20  C   UNL     1       6.037   6.318  16.976  0.00  0.00    +0.000 C 
ENDBRANCH  16  20
ENDBRANCH   1  16
TORSDOF 3
ENDMDL
MODEL 9
REMARK VINA RESULT:      -7.3      2.213      3.545
REMARK  Name = 
REMARK  4 active torsions:
REMARK  status: ('A' for Active; 'I' for Inactive)
REMARK    1  A    between atoms: C_1  and  C_2
REMARK    2  A    between atoms: C_2  and  S_3
REMARK    3  A    between atoms: S_3  and  N_6
REMARK    4  A    between atoms: C_8  and  C_9
REMARK                            x       y       z     vdW  Elec       q    Type
REMARK                         _______ _______ _______ _____ _____    ______ ____
ROOT
ATOM      1  N   UNL     1       3.495   4.554  19.111  0.00  0.00    +0.000 N 
ATOM      2  C   UNL     1       2.713   5.627  19.453  0.00  0.00    +0.000 A 
ATOM      3  C   UNL     1       2.960   6.634  18.550  0.00  0.00    +0.000 A 
ATOM      4  C   UNL     1       3.913   6.129  17.602  0.00  0.00    +0.000 A 
ATOM      5  C   UNL     1       4.566   6.682  16.476  0.00  0.00    +0.000 A 
ATOM      6  C   UNL     1       5.442   5.900  15.718  0.00  0.00    +0.000 A 
ATOM      7  C   UNL     1       5.663   4.570  16.048  0.00  0.00    +0.000 A 
ATOM      8  C   UNL     1       5.040   3.992  17.158  0.00  0.00    +0.000 A 
ATOM      9  C   UNL     1       4.184   4.790  17.940  0.00  0.00    +0.000 A 
ENDROOT
BRANCH   3  10
ATOM     10  C   UNL     1       2.324   7.987  18.542  0.00  0.00    +0.000 A 
ATOM     11  O   UNL     1       2.354   8.816  17.439  0.00  0.00    +0.000 OA
ATOM     12  C   UNL     1       1.644   9.910  17.806  0.00  0.00    +0.000 A 
ATOM     13  N   UNL     1       1.173   9.886  19.027  0.00  0.00    +0.000 NA
ATOM     14  C   UNL     1       1.603   8.672  19.509  0.00  0.00    +0.000 A 
ATOM     15 BR   UNL     1       1.186   8.173  21.280  0.00  0.00    +0.000 Br
ENDBRANCH   3  10
BRANCH   1  16
ATOM     16  S   UNL     1       3.368   3.056  19.924  0.00  0.00    +0.000 S 
ATOM     17  O   UNL     1       2.580   3.349  21.108  0.00  0.00    +0.000 OA
ATOM     18  O   UNL     1       4.721   2.544  20.036  0.00  0.00    +0.000 OA
BRANCH  16  20
ATOM     19  C   UNL     1       0.994   2.452  18.733  0.00  0.00    +0.000 C 
ATOM     20  C   UNL     1       2.425   1.967  18.877  0.00  0.00    +0.000 C 
ENDBRANCH  16  20
ENDBRANCH   1  16
TORSDOF 3
ENDMDL
