MODEL 1
REMARK VINA RESULT:      -8.1      0.000      0.000
REMARK  Name = 
REMARK  3 active torsions:
REMARK  status: ('A' for Active; 'I' for Inactive)
REMARK    1  A    between atoms: C_2  and  C_11
REMARK    2  A    between atoms: N_3  and  C_4
REMARK    3  A    between atoms: N_15  and  C_16
REMARK                            x       y       z     vdW  Elec       q    Type
REMARK                         _______ _______ _______ _____ _____    ______ ____
ROOT
ATOM      1  C   UNL     1       6.455   5.634  17.996  0.00  0.00    +0.000 C 
ATOM      2  C   UNL     1       5.792   6.888  17.452  0.00  0.00    +0.000 C 
ATOM      3  C   UNL     1       5.625   6.590  15.980  0.00  0.00    +0.000 C 
ATOM      4  O   UNL     1       4.874   7.218  15.253  0.00  0.00    +0.000 OA
ATOM      5  N   UNL     1       6.410   5.463  15.679  0.00  0.00    +0.000 N 
ATOM      6  C   UNL     1       7.221   5.081  16.814  0.00  0.00    +0.000 C 
ENDROOT
BRANCH   5   7
ATOM      7  C   UNL     1       6.517   4.843  14.409  0.00  0.00    +0.000 A 
ATOM      8  C   UNL     1       7.558   5.166  13.531  0.00  0.00    +0.000 A 
ATOM      9  C   UNL     1       7.662   4.553  12.278  0.00  0.00    +0.000 A 
ATOM     10  C   UNL     1       6.706   3.629  11.871  0.00  0.00    +0.000 A 
ATOM     11  C   UNL     1       5.652   3.311  12.720  0.00  0.00    +0.000 A 
ATOM     12  C   UNL     1       5.566   3.903  13.984  0.00  0.00    +0.000 A 
ENDBRANCH   5   7
BRANCH   1  14
ATOM     13  O   UNL     1       5.852   3.583  19.054  0.00  0.00    +0.000 OA
ATOM     14  C   UNL     1       5.445   4.622  18.539  0.00  0.00    +0.000 C 
ATOM     15  N   UNL     1       4.119   4.979  18.374  0.00  0.00    +0.000 N 
ATOM     16  H   UNL     1       3.922   5.821  17.840  0.00  0.00    +0.000 HD
BRANCH  15  17
ATOM     17  C   UNL     1       2.980   4.225  18.721  0.00  0.00    +0.000 A 
ATOM     18  C   UNL     1       1.963   3.901  17.823  0.00  0.00    +0.000 A 
ATOM     19  C   UNL     1       0.845   3.177  18.248  0.00  0.00    +0.000 A 
ATOM     20  C   UNL     1       0.735   2.779  19.581  0.00  0.00    +0.000 A 
ATOM     21  C   UNL     1       1.754   3.093  20.475  0.00  0.00    +0.000 A 
ATOM     22 CL   UNL     1       1.612   2.625  22.126  0.00  0.00    +0.000 Cl
ATOM     23  C   UNL     1       2.879   3.799  20.051  0.00  0.00    +0.000 A 
ENDBRANCH  15  17
ENDBRANCH   1  14
TORSDOF 3
ENDMDL
MODEL 2
REMARK VINA RESULT:      -8.1      0.038      1.025
REMARK  Name = 
REMARK  3 active torsions:
REMARK  status: ('A' for Active; 'I' for Inactive)
REMARK    1  A    between atoms: C_2  and  C_11
REMARK    2  A    between atoms: N_3  and  C_4
REMARK    3  A    between atoms: N_15  and  C_16
REMARK                            x       y       z     vdW  Elec       q    Type
REMARK                         _______ _______ _______ _____ _____    ______ ____
ROOT
ATOM      1  C   UNL     1       6.430   5.624  18.005  0.00  0.00    +0.000 C 
ATOM      2  C   UNL     1       5.758   6.879  17.472  0.00  0.00    +0.000 C 
ATOM      3  C   UNL     1       5.587   6.590  15.999  0.00  0.00    +0.000 C 
ATOM      4  O   UNL     1       4.829   7.218  15.279  0.00  0.00    +0.000 OA
ATOM      5  N   UNL     1       6.376   5.469  15.686  0.00  0.00    +0.000 N 
ATOM      6  C   UNL     1       7.194   5.084  16.816  0.00  0.00    +0.000 C 
ENDROOT
BRANCH   5   7
ATOM      7  C   UNL     1       6.482   4.858  14.412  0.00  0.00    +0.000 A 
ATOM      8  C   UNL     1       5.543   3.914  13.981  0.00  0.00    +0.000 A 
ATOM      9  C   UNL     1       5.649   3.313  12.723  0.00  0.00    +0.000 A 
ATOM     10  C   UNL     1       6.716   3.624  11.888  0.00  0.00    +0.000 A 
ATOM     11  C   UNL     1       7.671   4.543  12.306  0.00  0.00    +0.000 A 
ATOM     12  C   UNL     1       7.548   5.166  13.553  0.00  0.00    +0.000 A 
ENDBRANCH   5   7
BRANCH   1  14
ATOM     13  O   UNL     1       5.842   3.563  19.050  0.00  0.00    +0.000 OA
ATOM     14  C   UNL     1       5.428   4.604  18.545  0.00  0.00    +0.000 C 
ATOM     15  N   UNL     1       4.099   4.956  18.389  0.00  0.00    +0.000 N 
ATOM     16  H   UNL     1       3.895   5.801  17.863  0.00  0.00    +0.000 HD
BRANCH  15  17
ATOM     17  C   UNL     1       2.966   4.194  18.736  0.00  0.00    +0.000 A 
ATOM     18  C   UNL     1       1.963   3.843  17.833  0.00  0.00    +0.000 A 
ATOM     19  C   UNL     1       0.849   3.112  18.258  0.00  0.00    +0.000 A 
ATOM     20  C   UNL     1       0.729   2.735  19.596  0.00  0.00    +0.000 A 
ATOM     21  C   UNL     1       1.734   3.076  20.496  0.00  0.00    +0.000 A 
ATOM     22 CL   UNL     1       1.579   2.634  22.152  0.00  0.00    +0.000 Cl
ATOM     23  C   UNL     1       2.855   3.788  20.072  0.00  0.00    +0.000 A 
ENDBRANCH  15  17
ENDBRANCH   1  14
TORSDOF 3
ENDMDL
MODEL 3
REMARK VINA RESULT:      -8.0      2.365      6.760
REMARK  Name = 
REMARK  3 active torsions:
REMARK  status: ('A' for Active; 'I' for Inactive)
REMARK    1  A    between atoms: C_2  and  C_11
REMARK    2  A    between atoms: N_3  and  C_4
REMARK    3  A    between atoms: N_15  and  C_16
REMARK                            x       y       z     vdW  Elec       q    Type
REMARK                         _______ _______ _______ _____ _____    ______ ____
ROOT
ATOM      1  C   UNL     1       5.419   6.813  17.507  0.00  0.00    +0.000 C 
ATOM      2  C   UNL     1       6.338   5.921  18.326  0.00  0.00    +0.000 C 
ATOM      3  C   UNL     1       5.438   4.787  18.757  0.00  0.00    +0.000 C 
ATOM      4  O   UNL     1       5.860   3.723  19.179  0.00  0.00    +0.000 OA
ATOM      5  N   UNL     1       4.109   5.174  18.507  0.00  0.00    +0.000 N 
ATOM      6  C   UNL     1       4.046   6.557  18.088  0.00  0.00    +0.000 C 
ENDROOT
BRANCH   5   7
ATOM      7  C   UNL     1       2.957   4.386  18.750  0.00  0.00    +0.000 A 
ATOM      8  C   UNL     1       2.151   4.608  19.873  0.00  0.00    +0.000 A 
ATOM      9  C   UNL     1       1.014   3.829  20.110  0.00  0.00    +0.000 A 
ATOM     10  C   UNL     1       0.683   2.793  19.244  0.00  0.00    +0.000 A 
ATOM     11  C   UNL     1       1.483   2.542  18.135  0.00  0.00    +0.000 A 
ATOM     12  C   UNL     1       2.604   3.341  17.883  0.00  0.00    +0.000 A 
ENDBRANCH   5   7
BRANCH   1  14
ATOM     13  O   UNL     1       4.709   7.083  15.247  0.00  0.00    +0.000 OA
ATOM     14  C   UNL     1       5.469   6.496  16.012  0.00  0.00    +0.000 C 
ATOM     15  N   UNL     1       6.388   5.525  15.655  0.00  0.00    +0.000 N 
ATOM     16  H   UNL     1       6.883   5.048  16.403  0.00  0.00    +0.000 HD
BRANCH  15  17
ATOM     17  C   UNL     1       6.614   4.992  14.370  0.00  0.00    +0.000 A 
ATOM     18  C   UNL     1       7.777   5.217  13.633  0.00  0.00    +0.000 A 
ATOM     19  C   UNL     1       7.916   4.682  12.349  0.00  0.00    +0.000 A 
ATOM     20  C   UNL     1       6.887   3.924  11.790  0.00  0.00    +0.000 A 
ATOM     21  C   UNL     1       5.731   3.691  12.529  0.00  0.00    +0.000 A 
ATOM     22 CL   UNL     1       4.447   2.777  11.836  0.00  0.00    +0.000 Cl
ATOM     23  C   UNL     1       5.595   4.207  13.817  0.00  0.00    +0.000 A 
ENDBRANCH  15  17
ENDBRANCH   1  14
TORSDOF 3
ENDMDL
MODEL 4
REMARK VINA RESULT:      -8.0      2.382      6.786
REMARK  Name = 
REMARK  3 active torsions:
REMARK  status: ('A' for Active; 'I' for Inactive)
REMARK    1  A    between atoms: C_2  and  C_11
REMARK    2  A    between atoms: N_3  and  C_4
REMARK    3  A    between atoms: N_15  and  C_16
REMARK                            x       y       z     vdW  Elec       q    Type
REMARK                         _______ _______ _______ _____ _____    ______ ____
ROOT
ATOM      1  C   UNL     1       5.506   6.748  17.562  0.00  0.00    +0.000 C 
ATOM      2  C   UNL     1       6.417   5.839  18.370  0.00  0.00    +0.000 C 
ATOM      3  C   UNL     1       5.511   4.700  18.775  0.00  0.00    +0.000 C 
ATOM      4  O   UNL     1       5.927   3.627  19.180  0.00  0.00    +0.000 OA
ATOM      5  N   UNL     1       4.185   5.096  18.526  0.00  0.00    +0.000 N 
ATOM      6  C   UNL     1       4.128   6.487  18.131  0.00  0.00    +0.000 C 
ENDROOT
BRANCH   5   7
ATOM      7  C   UNL     1       3.028   4.308  18.748  0.00  0.00    +0.000 A 
ATOM      8  C   UNL     1       2.702   3.244  17.900  0.00  0.00    +0.000 A 
ATOM      9  C   UNL     1       1.560   2.468  18.122  0.00  0.00    +0.000 A 
ATOM     10  C   UNL     1       0.708   2.764  19.179  0.00  0.00    +0.000 A 
ATOM     11  C   UNL     1       1.003   3.831  20.021  0.00  0.00    +0.000 A 
ATOM     12  C   UNL     1       2.161   4.588  19.815  0.00  0.00    +0.000 A 
ENDBRANCH   5   7
BRANCH   1  14
ATOM     13  O   UNL     1       4.743   6.986  15.316  0.00  0.00    +0.000 OA
ATOM     14  C   UNL     1       5.563   6.458  16.062  0.00  0.00    +0.000 C 
ATOM     15  N   UNL     1       6.559   5.577  15.678  0.00  0.00    +0.000 N 
ATOM     16  H   UNL     1       7.105   5.136  16.413  0.00  0.00    +0.000 HD
BRANCH  15  17
ATOM     17  C   UNL     1       6.813   5.085  14.383  0.00  0.00    +0.000 A 
ATOM     18  C   UNL     1       7.856   5.538  13.574  0.00  0.00    +0.000 A 
ATOM     19  C   UNL     1       8.027   5.025  12.284  0.00  0.00    +0.000 A 
ATOM     20  C   UNL     1       7.147   4.061  11.792  0.00  0.00    +0.000 A 
ATOM     21  C   UNL     1       6.113   3.601  12.602  0.00  0.00    +0.000 A 
ATOM     22 CL   UNL     1       5.010   2.428  11.992  0.00  0.00    +0.000 Cl
ATOM     23  C   UNL     1       5.950   4.096  13.896  0.00  0.00    +0.000 A 
ENDBRANCH  15  17
ENDBRANCH   1  14
TORSDOF 3
ENDMDL
MODEL 5
REMARK VINA RESULT:      -7.9      1.268      1.647
REMARK  Name = 
REMARK  3 active torsions:
REMARK  status: ('A' for Active; 'I' for Inactive)
REMARK    1  A    between atoms: C_2  and  C_11
REMARK    2  A    between atoms: N_3  and  C_4
REMARK    3  A    between atoms: N_15  and  C_16
REMARK                            x       y       z     vdW  Elec       q    Type
REMARK                         _______ _______ _______ _____ _____    ______ ____
ROOT
ATOM      1  C   UNL     1       7.122   4.978  18.710  0.00  0.00    +0.000 C 
ATOM      2  C   UNL     1       7.436   6.437  18.423  0.00  0.00    +0.000 C 
ATOM      3  C   UNL     1       7.269   6.547  16.925  0.00  0.00    +0.000 C 
ATOM      4  O   UNL     1       7.145   7.612  16.343  0.00  0.00    +0.000 OA
ATOM      5  N   UNL     1       7.214   5.243  16.402  0.00  0.00    +0.000 N 
ATOM      6  C   UNL     1       7.496   4.264  17.430  0.00  0.00    +0.000 C 
ENDROOT
BRANCH   5   7
ATOM      7  C   UNL     1       7.043   4.903  15.037  0.00  0.00    +0.000 A 
ATOM      8  C   UNL     1       6.027   4.032  14.630  0.00  0.00    +0.000 A 
ATOM      9  C   UNL     1       5.859   3.698  13.282  0.00  0.00    +0.000 A 
ATOM     10  C   UNL     1       6.727   4.208  12.323  0.00  0.00    +0.000 A 
ATOM     11  C   UNL     1       7.756   5.058  12.710  0.00  0.00    +0.000 A 
ATOM     12  C   UNL     1       7.905   5.414  14.055  0.00  0.00    +0.000 A 
ENDBRANCH   5   7
BRANCH   1  14
ATOM     13  O   UNL     1       5.087   5.557  19.809  0.00  0.00    +0.000 OA
ATOM     14  C   UNL     1       5.655   4.752  19.076  0.00  0.00    +0.000 C 
ATOM     15  N   UNL     1       5.092   3.607  18.541  0.00  0.00    +0.000 N 
ATOM     16  H   UNL     1       5.705   2.975  18.032  0.00  0.00    +0.000 HD
BRANCH  15  17
ATOM     17  C   UNL     1       3.788   3.116  18.750  0.00  0.00    +0.000 A 
ATOM     18  C   UNL     1       2.928   2.741  17.718  0.00  0.00    +0.000 A 
ATOM     19  C   UNL     1       1.633   2.294  18.002  0.00  0.00    +0.000 A 
ATOM     20  C   UNL     1       1.189   2.227  19.322  0.00  0.00    +0.000 A 
ATOM     21  C   UNL     1       2.051   2.591  20.353  0.00  0.00    +0.000 A 
ATOM     22 CL   UNL     1       1.500   2.533  21.983  0.00  0.00    +0.000 Cl
ATOM     23  C   UNL     1       3.348   3.019  20.076  0.00  0.00    +0.000 A 
ENDBRANCH  15  17
ENDBRANCH   1  14
TORSDOF 3
ENDMDL
MODEL 6
REMARK VINA RESULT:      -7.9      1.272      1.296
REMARK  Name = 
REMARK  3 active torsions:
REMARK  status: ('A' for Active; 'I' for Inactive)
REMARK    1  A    between atoms: C_2  and  C_11
REMARK    2  A    between atoms: N_3  and  C_4
REMARK    3  A    between atoms: N_15  and  C_16
REMARK                            x       y       z     vdW  Elec       q    Type
REMARK                         _______ _______ _______ _____ _____    ______ ____
ROOT
ATOM      1  C   UNL     1       7.080   4.979  18.745  0.00  0.00    +0.000 C 
ATOM      2  C   UNL     1       7.423   6.431  18.456  0.00  0.00    +0.000 C 
ATOM      3  C   UNL     1       7.285   6.535  16.955  0.00  0.00    +0.000 C 
ATOM      4  O   UNL     1       7.189   7.599  16.366  0.00  0.00    +0.000 OA
ATOM      5  N   UNL     1       7.218   5.229  16.438  0.00  0.00    +0.000 N 
ATOM      6  C   UNL     1       7.465   4.251  17.476  0.00  0.00    +0.000 C 
ENDROOT
BRANCH   5   7
ATOM      7  C   UNL     1       7.065   4.885  15.072  0.00  0.00    +0.000 A 
ATOM      8  C   UNL     1       7.906   5.423  14.091  0.00  0.00    +0.000 A 
ATOM      9  C   UNL     1       7.753   5.081  12.744  0.00  0.00    +0.000 A 
ATOM     10  C   UNL     1       6.734   4.221  12.352  0.00  0.00    +0.000 A 
ATOM     11  C   UNL     1       5.874   3.693  13.309  0.00  0.00    +0.000 A 
ATOM     12  C   UNL     1       6.047   4.012  14.660  0.00  0.00    +0.000 A 
ENDBRANCH   5   7
BRANCH   1  14
ATOM     13  O   UNL     1       5.020   5.630  19.752  0.00  0.00    +0.000 OA
ATOM     14  C   UNL     1       5.603   4.779  19.086  0.00  0.00    +0.000 C 
ATOM     15  N   UNL     1       5.051   3.603  18.609  0.00  0.00    +0.000 N 
ATOM     16  H   UNL     1       5.674   2.940  18.157  0.00  0.00    +0.000 HD
BRANCH  15  17
ATOM     17  C   UNL     1       3.740   3.129  18.815  0.00  0.00    +0.000 A 
ATOM     18  C   UNL     1       2.862   2.808  17.779  0.00  0.00    +0.000 A 
ATOM     19  C   UNL     1       1.563   2.374  18.060  0.00  0.00    +0.000 A 
ATOM     20  C   UNL     1       1.131   2.267  19.382  0.00  0.00    +0.000 A 
ATOM     21  C   UNL     1       2.009   2.577  20.416  0.00  0.00    +0.000 A 
ATOM     22 CL   UNL     1       1.475   2.470  22.049  0.00  0.00    +0.000 Cl
ATOM     23  C   UNL     1       3.312   2.992  20.141  0.00  0.00    +0.000 A 
ENDBRANCH  15  17
ENDBRANCH   1  14
TORSDOF 3
ENDMDL
MODEL 7
REMARK VINA RESULT:      -7.9      3.627      7.244
REMARK  Name = 
REMARK  3 active torsions:
REMARK  status: ('A' for Active; 'I' for Inactive)
REMARK    1  A    between atoms: C_2  and  C_11
REMARK    2  A    between atoms: N_3  and  C_4
REMARK    3  A    between atoms: N_15  and  C_16
REMARK                            x       y       z     vdW  Elec       q    Type
REMARK                         _______ _______ _______ _____ _____    ______ ____
ROOT
ATOM      1  C   UNL     1       4.988   4.681  18.104  0.00  0.00    +0.000 C 
ATOM      2  C   UNL     1       3.766   3.779  18.168  0.00  0.00    +0.000 C 
ATOM      3  C   UNL     1       2.625   4.745  18.384  0.00  0.00    +0.000 C 
ATOM      4  O   UNL     1       1.456   4.450  18.197  0.00  0.00    +0.000 OA
ATOM      5  N   UNL     1       3.175   5.988  18.745  0.00  0.00    +0.000 N 
ATOM      6  C   UNL     1       4.604   5.879  18.944  0.00  0.00    +0.000 C 
ENDROOT
BRANCH   5   7
ATOM      7  C   UNL     1       2.444   7.171  19.015  0.00  0.00    +0.000 A 
ATOM      8  C   UNL     1       1.910   7.419  20.285  0.00  0.00    +0.000 A 
ATOM      9  C   UNL     1       1.190   8.588  20.549  0.00  0.00    +0.000 A 
ATOM     10  C   UNL     1       0.964   9.514  19.537  0.00  0.00    +0.000 A 
ATOM     11  C   UNL     1       1.467   9.276  18.263  0.00  0.00    +0.000 A 
ATOM     12  C   UNL     1       2.213   8.120  18.007  0.00  0.00    +0.000 A 
ENDBRANCH   5   7
BRANCH   1  14
ATOM     13  O   UNL     1       5.027   6.199  16.265  0.00  0.00    +0.000 OA
ATOM     14  C   UNL     1       5.347   5.085  16.673  0.00  0.00    +0.000 C 
ATOM     15  N   UNL     1       6.005   4.112  15.942  0.00  0.00    +0.000 N 
ATOM     16  H   UNL     1       6.119   3.198  16.372  0.00  0.00    +0.000 HD
BRANCH  15  17
ATOM     17  C   UNL     1       6.407   4.180  14.593  0.00  0.00    +0.000 A 
ATOM     18  C   UNL     1       7.430   5.008  14.132  0.00  0.00    +0.000 A 
ATOM     19  C   UNL     1       7.751   5.047  12.771  0.00  0.00    +0.000 A 
ATOM     20  C   UNL     1       7.042   4.262  11.862  0.00  0.00    +0.000 A 
ATOM     21  C   UNL     1       6.028   3.428  12.323  0.00  0.00    +0.000 A 
ATOM     22 CL   UNL     1       5.134   2.474  11.203  0.00  0.00    +0.000 Cl
ATOM     23  C   UNL     1       5.717   3.372  13.682  0.00  0.00    +0.000 A 
ENDBRANCH  15  17
ENDBRANCH   1  14
TORSDOF 3
ENDMDL
MODEL 8
REMARK VINA RESULT:      -7.9      3.640      7.206
REMARK  Name = 
REMARK  3 active torsions:
REMARK  status: ('A' for Active; 'I' for Inactive)
REMARK    1  A    between atoms: C_2  and  C_11
REMARK    2  A    between atoms: N_3  and  C_4
REMARK    3  A    between atoms: N_15  and  C_16
REMARK                            x       y       z     vdW  Elec       q    Type
REMARK                         _______ _______ _______ _____ _____    ______ ____
ROOT
ATOM      1  C   UNL     1       4.987   4.711  18.086  0.00  0.00    +0.000 C 
ATOM      2  C   UNL     1       3.767   3.806  18.135  0.00  0.00    +0.000 C 
ATOM      3  C   UNL     1       2.620   4.770  18.328  0.00  0.00    +0.000 C 
ATOM      4  O   UNL     1       1.455   4.471  18.124  0.00  0.00    +0.000 OA
ATOM      5  N   UNL     1       3.161   6.015  18.692  0.00  0.00    +0.000 N 
ATOM      6  C   UNL     1       4.587   5.911  18.915  0.00  0.00    +0.000 C 
ENDROOT
BRANCH   5   7
ATOM      7  C   UNL     1       2.423   7.199  18.945  0.00  0.00    +0.000 A 
ATOM      8  C   UNL     1       2.200   8.143  17.937  0.00  0.00    +0.000 A 
ATOM      9  C   UNL     1       1.472   9.310  18.189  0.00  0.00    +0.000 A 
ATOM     10  C   UNL     1       0.982   9.566  19.465  0.00  0.00    +0.000 A 
ATOM     11  C   UNL     1       1.212   8.650  20.486  0.00  0.00    +0.000 A 
ATOM     12  C   UNL     1       1.915   7.469  20.225  0.00  0.00    +0.000 A 
ENDBRANCH   5   7
BRANCH   1  14
ATOM     13  O   UNL     1       5.087   6.234  16.254  0.00  0.00    +0.000 OA
ATOM     14  C   UNL     1       5.368   5.109  16.660  0.00  0.00    +0.000 C 
ATOM     15  N   UNL     1       5.999   4.118  15.928  0.00  0.00    +0.000 N 
ATOM     16  H   UNL     1       6.080   3.199  16.354  0.00  0.00    +0.000 HD
BRANCH  15  17
ATOM     17  C   UNL     1       6.411   4.179  14.582  0.00  0.00    +0.000 A 
ATOM     18  C   UNL     1       7.404   5.041  14.115  0.00  0.00    +0.000 A 
ATOM     19  C   UNL     1       7.736   5.070  12.757  0.00  0.00    +0.000 A 
ATOM     20  C   UNL     1       7.070   4.240  11.856  0.00  0.00    +0.000 A 
ATOM     21  C   UNL     1       6.087   3.372  12.322  0.00  0.00    +0.000 A 
ATOM     22 CL   UNL     1       5.245   2.362  11.211  0.00  0.00    +0.000 Cl
ATOM     23  C   UNL     1       5.765   3.327  13.679  0.00  0.00    +0.000 A 
ENDBRANCH  15  17
ENDBRANCH   1  14
TORSDOF 3
ENDMDL
MODEL 9
REMARK VINA RESULT:      -7.7      1.134      1.405
REMARK  Name = 
REMARK  3 active torsions:
REMARK  status: ('A' for Active; 'I' for Inactive)
REMARK    1  A    between atoms: C_2  and  C_11
REMARK    2  A    between atoms: N_3  and  C_4
REMARK    3  A    between atoms: N_15  and  C_16
REMARK                            x       y       z     vdW  Elec       q    Type
REMARK                         _______ _______ _______ _____ _____    ______ ____
ROOT
ATOM      1  C   UNL     1       6.747   5.660  17.941  0.00  0.00    +0.000 C 
ATOM      2  C   UNL     1       6.245   6.976  17.371  0.00  0.00    +0.000 C 
ATOM      3  C   UNL     1       5.893   6.633  15.942  0.00  0.00    +0.000 C 
ATOM      4  O   UNL     1       5.186   7.337  15.241  0.00  0.00    +0.000 OA
ATOM      5  N   UNL     1       6.454   5.377  15.652  0.00  0.00    +0.000 N 
ATOM      6  C   UNL     1       7.297   4.926  16.738  0.00  0.00    +0.000 C 
ENDROOT
BRANCH   5   7
ATOM      7  C   UNL     1       6.338   4.681  14.422  0.00  0.00    +0.000 A 
ATOM      8  C   UNL     1       7.352   4.740  13.459  0.00  0.00    +0.000 A 
ATOM      9  C   UNL     1       7.235   4.053  12.247  0.00  0.00    +0.000 A 
ATOM     10  C   UNL     1       6.087   3.321  11.965  0.00  0.00    +0.000 A 
ATOM     11  C   UNL     1       5.060   3.268  12.900  0.00  0.00    +0.000 A 
ATOM     12  C   UNL     1       5.190   3.932  14.125  0.00  0.00    +0.000 A 
ENDBRANCH   5   7
BRANCH   1  14
ATOM     13  O   UNL     1       5.890   3.730  19.048  0.00  0.00    +0.000 OA
ATOM     14  C   UNL     1       5.644   4.860  18.635  0.00  0.00    +0.000 C 
ATOM     15  N   UNL     1       4.422   5.505  18.717  0.00  0.00    +0.000 N 
ATOM     16  H   UNL     1       4.330   6.400  18.244  0.00  0.00    +0.000 HD
BRANCH  15  17
ATOM     17  C   UNL     1       3.220   4.996  19.247  0.00  0.00    +0.000 A 
ATOM     18  C   UNL     1       2.548   5.569  20.327  0.00  0.00    +0.000 A 
ATOM     19  C   UNL     1       1.375   4.988  20.821  0.00  0.00    +0.000 A 
ATOM     20  C   UNL     1       0.873   3.823  20.240  0.00  0.00    +0.000 A 
ATOM     21  C   UNL     1       1.537   3.258  19.156  0.00  0.00    +0.000 A 
ATOM     22 CL   UNL     1       0.935   1.807  18.451  0.00  0.00    +0.000 Cl
ATOM     23  C   UNL     1       2.696   3.844  18.648  0.00  0.00    +0.000 A 
ENDBRANCH  15  17
ENDBRANCH   1  14
TORSDOF 3
ENDMDL
