MODEL 1
REMARK VINA RESULT:      -7.1      0.000      0.000
REMARK  Name = 
REMARK  5 active torsions:
REMARK  status: ('A' for Active; 'I' for Inactive)
REMARK    1  A    between atoms: C_2  and  C_3
REMARK    2  A    between atoms: C_6  and  N_7
REMARK    3  A    between atoms: C_8  and  C_9
REMARK    4  A    between atoms: C_11  and  N_12
REMARK    5  A    between atoms: C_17  and  O_18
REMARK                            x       y       z     vdW  Elec       q    Type
REMARK                         _______ _______ _______ _____ _____    ______ ____
ROOT
ATOM      1  C   UNL     1       3.574   6.087  17.844  0.00  0.00    +0.000 A 
ATOM      2  C   UNL     1       4.930   6.291  17.562  0.00  0.00    +0.000 A 
ATOM      3  C   UNL     1       5.696   5.238  17.046  0.00  0.00    +0.000 A 
ATOM      4  C   UNL     1       5.119   3.980  16.817  0.00  0.00    +0.000 A 
ATOM      5  C   UNL     1       3.764   3.781  17.093  0.00  0.00    +0.000 A 
ATOM      6  C   UNL     1       2.994   4.833  17.598  0.00  0.00    +0.000 A 
ENDROOT
BRANCH   3   7
ATOM      7  N   UNL     1       7.114   5.455  16.731  0.00  0.00    +0.000 N 
ATOM      8  O   UNL     1       7.476   6.606  16.453  0.00  0.00    +0.000 OA
ATOM      9  O   UNL     1       7.865   4.468  16.758  0.00  0.00    +0.000 OA
ENDBRANCH   3   7
BRANCH   1  11
ATOM     10  N   UNL     1       2.338   7.167  19.624  0.00  0.00    +0.000 NA
ATOM     11  C   UNL     1       2.771   7.204  18.404  0.00  0.00    +0.000 C 
BRANCH  10  15
ATOM     12  C   UNL     1       0.122  10.296  21.423  0.00  0.00    +0.000 A 
ATOM     13  C   UNL     1       0.479   9.155  22.140  0.00  0.00    +0.000 A 
ATOM     14  C   UNL     1       1.200   8.131  21.508  0.00  0.00    +0.000 A 
ATOM     15  C   UNL     1       1.563   8.216  20.156  0.00  0.00    +0.000 A 
ATOM     16  C   UNL     1       1.197   9.366  19.451  0.00  0.00    +0.000 A 
ATOM     17  C   UNL     1       0.476  10.395  20.076  0.00  0.00    +0.000 A 
BRANCH  12  19
ATOM     18  C   UNL     1      -1.143  12.273  22.621  0.00  0.00    +0.000 C 
ATOM     19  C   UNL     1      -0.577  11.375  22.055  0.00  0.00    +0.000 C 
ENDBRANCH  12  19
ENDBRANCH  10  15
ENDBRANCH   1  11
BRANCH   6  20
ATOM     20  O   UNL     1       1.665   4.631  17.845  0.00  0.00    +0.000 OA
ATOM     21  H   UNL     1       1.137   5.237  17.295  0.00  0.00    +0.000 HD
ENDBRANCH   6  20
TORSDOF 5
ENDMDL
MODEL 2
REMARK VINA RESULT:      -7.0      0.483      1.170
REMARK  Name = 
REMARK  5 active torsions:
REMARK  status: ('A' for Active; 'I' for Inactive)
REMARK    1  A    between atoms: C_2  and  C_3
REMARK    2  A    between atoms: C_6  and  N_7
REMARK    3  A    between atoms: C_8  and  C_9
REMARK    4  A    between atoms: C_11  and  N_12
REMARK    5  A    between atoms: C_17  and  O_18
REMARK                            x       y       z     vdW  Elec       q    Type
REMARK                         _______ _______ _______ _____ _____    ______ ____
ROOT
ATOM      1  C   UNL     1       3.780   5.697  18.249  0.00  0.00    +0.000 A 
ATOM      2  C   UNL     1       5.101   5.985  17.886  0.00  0.00    +0.000 A 
ATOM      3  C   UNL     1       5.772   5.145  16.988  0.00  0.00    +0.000 A 
ATOM      4  C   UNL     1       5.135   4.014  16.456  0.00  0.00    +0.000 A 
ATOM      5  C   UNL     1       3.815   3.732  16.815  0.00  0.00    +0.000 A 
ATOM      6  C   UNL     1       3.138   4.574  17.702  0.00  0.00    +0.000 A 
ENDROOT
BRANCH   3   7
ATOM      7  N   UNL     1       7.151   5.456  16.591  0.00  0.00    +0.000 N 
ATOM      8  O   UNL     1       7.509   6.641  16.619  0.00  0.00    +0.000 OA
ATOM      9  O   UNL     1       7.875   4.511  16.247  0.00  0.00    +0.000 OA
ENDBRANCH   3   7
BRANCH   1  11
ATOM     10  N   UNL     1       2.247   7.488  18.802  0.00  0.00    +0.000 NA
ATOM     11  C   UNL     1       3.079   6.584  19.212  0.00  0.00    +0.000 C 
BRANCH  10  15
ATOM     12  C   UNL     1       0.130  10.113  21.364  0.00  0.00    +0.000 A 
ATOM     13  C   UNL     1       0.335  10.421  20.020  0.00  0.00    +0.000 A 
ATOM     14  C   UNL     1       1.054   9.535  19.204  0.00  0.00    +0.000 A 
ATOM     15  C   UNL     1       1.592   8.343  19.710  0.00  0.00    +0.000 A 
ATOM     16  C   UNL     1       1.378   8.050  21.060  0.00  0.00    +0.000 A 
ATOM     17  C   UNL     1       0.659   8.930  21.883  0.00  0.00    +0.000 A 
BRANCH  12  19
ATOM     18  C   UNL     1      -1.253  11.736  22.913  0.00  0.00    +0.000 C 
ATOM     19  C   UNL     1      -0.637  10.979  22.210  0.00  0.00    +0.000 C 
ENDBRANCH  12  19
ENDBRANCH  10  15
ENDBRANCH   1  11
BRANCH   6  20
ATOM     20  O   UNL     1       1.840   4.299  18.029  0.00  0.00    +0.000 OA
ATOM     21  H   UNL     1       1.771   4.154  18.990  0.00  0.00    +0.000 HD
ENDBRANCH   6  20
TORSDOF 5
ENDMDL
MODEL 3
REMARK VINA RESULT:      -6.9      0.927      1.047
REMARK  Name = 
REMARK  5 active torsions:
REMARK  status: ('A' for Active; 'I' for Inactive)
REMARK    1  A    between atoms: C_2  and  C_3
REMARK    2  A    between atoms: C_6  and  N_7
REMARK    3  A    between atoms: C_8  and  C_9
REMARK    4  A    between atoms: C_11  and  N_12
REMARK    5  A    between atoms: C_17  and  O_18
REMARK                            x       y       z     vdW  Elec       q    Type
REMARK                         _______ _______ _______ _____ _____    ______ ____
ROOT
ATOM      1  C   UNL     1       3.490   5.570  18.640  0.00  0.00    +0.000 A 
ATOM      2  C   UNL     1       4.883   5.622  18.776  0.00  0.00    +0.000 A 
ATOM      3  C   UNL     1       5.685   4.754  18.024  0.00  0.00    +0.000 A 
ATOM      4  C   UNL     1       5.107   3.829  17.143  0.00  0.00    +0.000 A 
ATOM      5  C   UNL     1       3.717   3.783  17.004  0.00  0.00    +0.000 A 
ATOM      6  C   UNL     1       2.914   4.654  17.745  0.00  0.00    +0.000 A 
ENDROOT
BRANCH   3   7
ATOM      7  N   UNL     1       7.147   4.820  18.150  0.00  0.00    +0.000 N 
ATOM      8  O   UNL     1       7.827   4.542  17.154  0.00  0.00    +0.000 OA
ATOM      9  O   UNL     1       7.613   5.147  19.251  0.00  0.00    +0.000 OA
ENDBRANCH   3   7
BRANCH   1  11
ATOM     10  N   UNL     1       2.255   7.624  18.979  0.00  0.00    +0.000 NA
ATOM     11  C   UNL     1       2.645   6.483  19.450  0.00  0.00    +0.000 C 
BRANCH  10  15
ATOM     12  C   UNL     1       0.025  10.221  21.474  0.00  0.00    +0.000 A 
ATOM     13  C   UNL     1       0.592   9.048  21.970  0.00  0.00    +0.000 A 
ATOM     14  C   UNL     1       1.311   8.203  21.112  0.00  0.00    +0.000 A 
ATOM     15  C   UNL     1       1.466   8.501  19.750  0.00  0.00    +0.000 A 
ATOM     16  C   UNL     1       0.891   9.679  19.268  0.00  0.00    +0.000 A 
ATOM     17  C   UNL     1       0.171  10.530  20.120  0.00  0.00    +0.000 A 
BRANCH  12  19
ATOM     18  C   UNL     1      -1.277  11.904  23.027  0.00  0.00    +0.000 C 
ATOM     19  C   UNL     1      -0.678  11.123  22.337  0.00  0.00    +0.000 C 
ENDBRANCH  12  19
ENDBRANCH  10  15
ENDBRANCH   1  11
BRANCH   6  20
ATOM     20  O   UNL     1       1.556   4.613  17.585  0.00  0.00    +0.000 OA
ATOM     21  H   UNL     1       1.131   4.488  18.452  0.00  0.00    +0.000 HD
ENDBRANCH   6  20
TORSDOF 5
ENDMDL
MODEL 4
REMARK VINA RESULT:      -6.9      2.095      2.427
REMARK  Name = 
REMARK  5 active torsions:
REMARK  status: ('A' for Active; 'I' for Inactive)
REMARK    1  A    between atoms: C_2  and  C_3
REMARK    2  A    between atoms: C_6  and  N_7
REMARK    3  A    between atoms: C_8  and  C_9
REMARK    4  A    between atoms: C_11  and  N_12
REMARK    5  A    between atoms: C_17  and  O_18
REMARK                            x       y       z     vdW  Elec       q    Type
REMARK                         _______ _______ _______ _____ _____    ______ ____
ROOT
ATOM      1  C   UNL     1       5.196   6.214  17.246  0.00  0.00    +0.000 A 
ATOM      2  C   UNL     1       5.571   6.028  15.910  0.00  0.00    +0.000 A 
ATOM      3  C   UNL     1       6.563   5.092  15.593  0.00  0.00    +0.000 A 
ATOM      4  C   UNL     1       7.189   4.344  16.601  0.00  0.00    +0.000 A 
ATOM      5  C   UNL     1       6.808   4.526  17.933  0.00  0.00    +0.000 A 
ATOM      6  C   UNL     1       5.811   5.453  18.253  0.00  0.00    +0.000 A 
ENDROOT
BRANCH   3   7
ATOM      7  N   UNL     1       6.945   4.881  14.191  0.00  0.00    +0.000 N 
ATOM      8  O   UNL     1       6.323   4.030  13.542  0.00  0.00    +0.000 OA
ATOM      9  O   UNL     1       7.874   5.568  13.740  0.00  0.00    +0.000 OA
ENDBRANCH   3   7
BRANCH   1  11
ATOM     10  N   UNL     1       3.237   6.965  18.455  0.00  0.00    +0.000 NA
ATOM     11  C   UNL     1       4.154   7.219  17.576  0.00  0.00    +0.000 C 
BRANCH  10  15
ATOM     12  C   UNL     1       0.334   9.837  19.580  0.00  0.00    +0.000 A 
ATOM     13  C   UNL     1       0.860   8.936  20.505  0.00  0.00    +0.000 A 
ATOM     14  C   UNL     1       1.809   7.988  20.094  0.00  0.00    +0.000 A 
ATOM     15  C   UNL     1       2.237   7.910  18.761  0.00  0.00    +0.000 A 
ATOM     16  C   UNL     1       1.700   8.818  17.846  0.00  0.00    +0.000 A 
ATOM     17  C   UNL     1       0.752   9.771  18.249  0.00  0.00    +0.000 A 
BRANCH  12  19
ATOM     18  C   UNL     1      -1.361  11.706  20.337  0.00  0.00    +0.000 C 
ATOM     19  C   UNL     1      -0.604  10.842  19.980  0.00  0.00    +0.000 C 
ENDBRANCH  12  19
ENDBRANCH  10  15
ENDBRANCH   1  11
BRANCH   6  20
ATOM     20  O   UNL     1       5.433   5.607  19.557  0.00  0.00    +0.000 OA
ATOM     21  H   UNL     1       4.941   4.819  19.848  0.00  0.00    +0.000 HD
ENDBRANCH   6  20
TORSDOF 5
ENDMDL
MODEL 5
REMARK VINA RESULT:      -6.9      6.294      8.872
REMARK  Name = 
REMARK  5 active torsions:
REMARK  status: ('A' for Active; 'I' for Inactive)
REMARK    1  A    between atoms: C_2  and  C_3
REMARK    2  A    between atoms: C_6  and  N_7
REMARK    3  A    between atoms: C_8  and  C_9
REMARK    4  A    between atoms: C_11  and  N_12
REMARK    5  A    between atoms: C_17  and  O_18
REMARK                            x       y       z     vdW  Elec       q    Type
REMARK                         _______ _______ _______ _____ _____    ______ ____
ROOT
ATOM      1  C   UNL     1       9.433  10.919  18.803  0.00  0.00    +0.000 A 
ATOM      2  C   UNL     1       9.964  11.765  17.822  0.00  0.00    +0.000 A 
ATOM      3  C   UNL     1      10.842  12.791  18.193  0.00  0.00    +0.000 A 
ATOM      4  C   UNL     1      11.187  12.984  19.539  0.00  0.00    +0.000 A 
ATOM      5  C   UNL     1      10.661  12.134  20.516  0.00  0.00    +0.000 A 
ATOM      6  C   UNL     1       9.793  11.102  20.147  0.00  0.00    +0.000 A 
ENDROOT
BRANCH   3   7
ATOM      7  N   UNL     1      11.415  13.668  17.164  0.00  0.00    +0.000 N 
ATOM      8  O   UNL     1      10.948  14.809  17.050  0.00  0.00    +0.000 OA
ATOM      9  O   UNL     1      12.332  13.210  16.467  0.00  0.00    +0.000 OA
ENDBRANCH   3   7
BRANCH   1  11
ATOM     10  N   UNL     1       8.787   8.595  18.588  0.00  0.00    +0.000 NA
ATOM     11  C   UNL     1       8.491   9.842  18.404  0.00  0.00    +0.000 C 
BRANCH  10  15
ATOM     12  C   UNL     1       6.118   5.448  17.634  0.00  0.00    +0.000 A 
ATOM     13  C   UNL     1       7.092   5.299  18.620  0.00  0.00    +0.000 A 
ATOM     14  C   UNL     1       7.970   6.358  18.900  0.00  0.00    +0.000 A 
ATOM     15  C   UNL     1       7.904   7.570  18.197  0.00  0.00    +0.000 A 
ATOM     16  C   UNL     1       6.923   7.703  17.212  0.00  0.00    +0.000 A 
ATOM     17  C   UNL     1       6.040   6.650  16.927  0.00  0.00    +0.000 A 
BRANCH  12  19
ATOM     18  C   UNL     1       4.376   3.545  17.099  0.00  0.00    +0.000 C 
ATOM     19  C   UNL     1       5.182   4.400  17.358  0.00  0.00    +0.000 C 
ENDBRANCH  12  19
ENDBRANCH  10  15
ENDBRANCH   1  11
BRANCH   6  20
ATOM     20  O   UNL     1       9.300  10.265  21.110  0.00  0.00    +0.000 OA
ATOM     21  H   UNL     1       9.061  10.783  21.899  0.00  0.00    +0.000 HD
ENDBRANCH   6  20
TORSDOF 5
ENDMDL
MODEL 6
REMARK VINA RESULT:      -6.7      5.945      7.337
REMARK  Name = 
REMARK  5 active torsions:
REMARK  status: ('A' for Active; 'I' for Inactive)
REMARK    1  A    between atoms: C_2  and  C_3
REMARK    2  A    between atoms: C_6  and  N_7
REMARK    3  A    between atoms: C_8  and  C_9
REMARK    4  A    between atoms: C_11  and  N_12
REMARK    5  A    between atoms: C_17  and  O_18
REMARK                            x       y       z     vdW  Elec       q    Type
REMARK                         _______ _______ _______ _____ _____    ______ ____
ROOT
ATOM      1  C   UNL     1       7.662   6.857  18.251  0.00  0.00    +0.000 A 
ATOM      2  C   UNL     1       7.010   6.896  17.012  0.00  0.00    +0.000 A 
ATOM      3  C   UNL     1       6.273   5.785  16.582  0.00  0.00    +0.000 A 
ATOM      4  C   UNL     1       6.188   4.633  17.377  0.00  0.00    +0.000 A 
ATOM      5  C   UNL     1       6.833   4.599  18.615  0.00  0.00    +0.000 A 
ATOM      6  C   UNL     1       7.561   5.709  19.053  0.00  0.00    +0.000 A 
ENDROOT
BRANCH   3   7
ATOM      7  N   UNL     1       5.574   5.831  15.291  0.00  0.00    +0.000 N 
ATOM      8  O   UNL     1       5.082   6.910  14.937  0.00  0.00    +0.000 OA
ATOM      9  O   UNL     1       5.513   4.781  14.635  0.00  0.00    +0.000 OA
ENDBRANCH   3   7
BRANCH   1  11
ATOM     10  N   UNL     1       8.227   9.211  18.207  0.00  0.00    +0.000 NA
ATOM     11  C   UNL     1       8.453   8.033  18.694  0.00  0.00    +0.000 C 
BRANCH  10  15
ATOM     12  C   UNL     1      10.346  12.701  19.331  0.00  0.00    +0.000 A 
ATOM     13  C   UNL     1       9.671  12.624  18.114  0.00  0.00    +0.000 A 
ATOM     14  C   UNL     1       8.991  11.446  17.767  0.00  0.00    +0.000 A 
ATOM     15  C   UNL     1       8.986  10.327  18.612  0.00  0.00    +0.000 A 
ATOM     16  C   UNL     1       9.668  10.420  19.828  0.00  0.00    +0.000 A 
ATOM     17  C   UNL     1      10.349  11.595  20.183  0.00  0.00    +0.000 A 
BRANCH  12  19
ATOM     18  C   UNL     1      11.602  14.907  20.037  0.00  0.00    +0.000 C 
ATOM     19  C   UNL     1      11.012  13.906  19.729  0.00  0.00    +0.000 C 
ENDBRANCH  12  19
ENDBRANCH  10  15
ENDBRANCH   1  11
BRANCH   6  20
ATOM     20  O   UNL     1       8.171   5.671  20.276  0.00  0.00    +0.000 OA
ATOM     21  H   UNL     1       9.013   6.159  20.234  0.00  0.00    +0.000 HD
ENDBRANCH   6  20
TORSDOF 5
ENDMDL
MODEL 7
REMARK VINA RESULT:      -6.6      1.219      1.378
REMARK  Name = 
REMARK  5 active torsions:
REMARK  status: ('A' for Active; 'I' for Inactive)
REMARK    1  A    between atoms: C_2  and  C_3
REMARK    2  A    between atoms: C_6  and  N_7
REMARK    3  A    between atoms: C_8  and  C_9
REMARK    4  A    between atoms: C_11  and  N_12
REMARK    5  A    between atoms: C_17  and  O_18
REMARK                            x       y       z     vdW  Elec       q    Type
REMARK                         _______ _______ _______ _____ _____    ______ ____
ROOT
ATOM      1  C   UNL     1       3.458   5.776  18.872  0.00  0.00    +0.000 A 
ATOM      2  C   UNL     1       4.225   6.341  17.845  0.00  0.00    +0.000 A 
ATOM      3  C   UNL     1       5.109   5.534  17.118  0.00  0.00    +0.000 A 
ATOM      4  C   UNL     1       5.239   4.169  17.412  0.00  0.00    +0.000 A 
ATOM      5  C   UNL     1       4.467   3.607  18.432  0.00  0.00    +0.000 A 
ATOM      6  C   UNL     1       3.576   4.406  19.154  0.00  0.00    +0.000 A 
ENDROOT
BRANCH   3   7
ATOM      7  N   UNL     1       5.901   6.120  16.029  0.00  0.00    +0.000 N 
ATOM      8  O   UNL     1       7.117   5.884  16.005  0.00  0.00    +0.000 OA
ATOM      9  O   UNL     1       5.305   6.821  15.199  0.00  0.00    +0.000 OA
ENDBRANCH   3   7
BRANCH   1  11
ATOM     10  N   UNL     1       2.198   7.815  19.218  0.00  0.00    +0.000 NA
ATOM     11  C   UNL     1       2.533   6.640  19.649  0.00  0.00    +0.000 C 
BRANCH  10  15
ATOM     12  C   UNL     1      -0.262  10.281  21.627  0.00  0.00    +0.000 A 
ATOM     13  C   UNL     1       0.356   9.145  22.147  0.00  0.00    +0.000 A 
ATOM     14  C   UNL     1       1.152   8.342  21.316  0.00  0.00    +0.000 A 
ATOM     15  C   UNL     1       1.333   8.645  19.958  0.00  0.00    +0.000 A 
ATOM     16  C   UNL     1       0.706   9.786  19.453  0.00  0.00    +0.000 A 
ATOM     17  C   UNL     1      -0.091  10.595  20.278  0.00  0.00    +0.000 A 
BRANCH  12  19
ATOM     18  C   UNL     1      -1.735  11.836  23.162  0.00  0.00    +0.000 C 
ATOM     19  C   UNL     1      -1.046  11.141  22.463  0.00  0.00    +0.000 C 
ENDBRANCH  12  19
ENDBRANCH  10  15
ENDBRANCH   1  11
BRANCH   6  20
ATOM     20  O   UNL     1       2.812   3.840  20.136  0.00  0.00    +0.000 OA
ATOM     21  H   UNL     1       2.747   4.452  20.891  0.00  0.00    +0.000 HD
ENDBRANCH   6  20
TORSDOF 5
ENDMDL
MODEL 8
REMARK VINA RESULT:      -6.6      1.952      2.175
REMARK  Name = 
REMARK  5 active torsions:
REMARK  status: ('A' for Active; 'I' for Inactive)
REMARK    1  A    between atoms: C_2  and  C_3
REMARK    2  A    between atoms: C_6  and  N_7
REMARK    3  A    between atoms: C_8  and  C_9
REMARK    4  A    between atoms: C_11  and  N_12
REMARK    5  A    between atoms: C_17  and  O_18
REMARK                            x       y       z     vdW  Elec       q    Type
REMARK                         _______ _______ _______ _____ _____    ______ ____
ROOT
ATOM      1  C   UNL     1       2.311   5.222  20.100  0.00  0.00    +0.000 A 
ATOM      2  C   UNL     1       3.633   5.489  19.721  0.00  0.00    +0.000 A 
ATOM      3  C   UNL     1       4.447   4.445  19.266  0.00  0.00    +0.000 A 
ATOM      4  C   UNL     1       3.954   3.133  19.195  0.00  0.00    +0.000 A 
ATOM      5  C   UNL     1       2.634   2.871  19.567  0.00  0.00    +0.000 A 
ATOM      6  C   UNL     1       1.814   3.913  20.012  0.00  0.00    +0.000 A 
ENDROOT
BRANCH   3   7
ATOM      7  N   UNL     1       5.827   4.725  18.850  0.00  0.00    +0.000 N 
ATOM      8  O   UNL     1       6.620   5.133  19.710  0.00  0.00    +0.000 OA
ATOM      9  O   UNL     1       6.115   4.541  17.658  0.00  0.00    +0.000 OA
ENDBRANCH   3   7
BRANCH   1  11
ATOM     10  N   UNL     1       1.814   7.568  20.439  0.00  0.00    +0.000 NA
ATOM     11  C   UNL     1       1.457   6.332  20.595  0.00  0.00    +0.000 C 
BRANCH  10  15
ATOM     12  C   UNL     1      -0.451  10.752  22.072  0.00  0.00    +0.000 A 
ATOM     13  C   UNL     1       0.077   9.748  22.882  0.00  0.00    +0.000 A 
ATOM     14  C   UNL     1       0.810   8.700  22.305  0.00  0.00    +0.000 A 
ATOM     15  C   UNL     1       1.015   8.624  20.920  0.00  0.00    +0.000 A 
ATOM     16  C   UNL     1       0.479   9.638  20.122  0.00  0.00    +0.000 A 
ATOM     17  C   UNL     1      -0.254  10.691  20.691  0.00  0.00    +0.000 A 
BRANCH  12  19
ATOM     18  C   UNL     1      -1.798  12.776  23.087  0.00  0.00    +0.000 C 
ATOM     19  C   UNL     1      -1.166  11.856  22.639  0.00  0.00    +0.000 C 
ENDBRANCH  12  19
ENDBRANCH  10  15
ENDBRANCH   1  11
BRANCH   6  20
ATOM     20  O   UNL     1       0.518   3.646  20.354  0.00  0.00    +0.000 OA
ATOM     21  H   UNL     1       0.401   2.685  20.462  0.00  0.00    +0.000 HD
ENDBRANCH   6  20
TORSDOF 5
ENDMDL
MODEL 9
REMARK VINA RESULT:      -6.6      2.115      2.574
REMARK  Name = 
REMARK  5 active torsions:
REMARK  status: ('A' for Active; 'I' for Inactive)
REMARK    1  A    between atoms: C_2  and  C_3
REMARK    2  A    between atoms: C_6  and  N_7
REMARK    3  A    between atoms: C_8  and  C_9
REMARK    4  A    between atoms: C_11  and  N_12
REMARK    5  A    between atoms: C_17  and  O_18
REMARK                            x       y       z     vdW  Elec       q    Type
REMARK                         _______ _______ _______ _____ _____    ______ ____
ROOT
ATOM      1  C   UNL     1       4.941   6.243  17.283  0.00  0.00    +0.000 A 
ATOM      2  C   UNL     1       5.359   6.061  15.958  0.00  0.00    +0.000 A 
ATOM      3  C   UNL     1       6.331   5.097  15.666  0.00  0.00    +0.000 A 
ATOM      4  C   UNL     1       6.895   4.317  16.686  0.00  0.00    +0.000 A 
ATOM      5  C   UNL     1       6.472   4.496  18.006  0.00  0.00    +0.000 A 
ATOM      6  C   UNL     1       5.494   5.451  18.301  0.00  0.00    +0.000 A 
ENDROOT
BRANCH   3   7
ATOM      7  N   UNL     1       6.758   4.891  14.275  0.00  0.00    +0.000 N 
ATOM      8  O   UNL     1       7.729   5.540  13.866  0.00  0.00    +0.000 OA
ATOM      9  O   UNL     1       6.115   4.081  13.592  0.00  0.00    +0.000 OA
ENDBRANCH   3   7
BRANCH   1  11
ATOM     10  N   UNL     1       3.111   7.141  18.590  0.00  0.00    +0.000 NA
ATOM     11  C   UNL     1       3.921   7.278  17.588  0.00  0.00    +0.000 C 
BRANCH  10  15
ATOM     12  C   UNL     1       0.071  10.017  19.240  0.00  0.00    +0.000 A 
ATOM     13  C   UNL     1       0.642   9.837  17.981  0.00  0.00    +0.000 A 
ATOM     14  C   UNL     1       1.658   8.886  17.805  0.00  0.00    +0.000 A 
ATOM     15  C   UNL     1       2.131   8.112  18.875  0.00  0.00    +0.000 A 
ATOM     16  C   UNL     1       1.549   8.305  20.130  0.00  0.00    +0.000 A 
ATOM     17  C   UNL     1       0.532   9.253  20.314  0.00  0.00    +0.000 A 
BRANCH  12  19
ATOM     18  C   UNL     1      -1.866  11.761  19.623  0.00  0.00    +0.000 C 
ATOM     19  C   UNL     1      -0.997  10.950  19.439  0.00  0.00    +0.000 C 
ENDBRANCH  12  19
ENDBRANCH  10  15
ENDBRANCH   1  11
BRANCH   6  20
ATOM     20  O   UNL     1       5.074   5.602  19.593  0.00  0.00    +0.000 OA
ATOM     21  H   UNL     1       5.823   5.455  20.197  0.00  0.00    +0.000 HD
ENDBRANCH   6  20
TORSDOF 5
ENDMDL
