MODEL 1
REMARK VINA RESULT:      -9.0      0.000      0.000
REMARK  Name = 
REMARK  5 active torsions:
REMARK  status: ('A' for Active; 'I' for Inactive)
REMARK    1  A    between atoms: C_2  and  C_3
REMARK    2  A    between atoms: C_3  and  N_4
REMARK    3  A    between atoms: C_6  and  S_7
REMARK    4  A    between atoms: S_7  and  C_10
REMARK    5  A    between atoms: C_10  and  C_11
REMARK                            x       y       z     vdW  Elec       q    Type
REMARK                         _______ _______ _______ _____ _____    ______ ____
ROOT
ATOM      1  N   UNL     1       0.964   9.275  19.681  0.00  0.00    +0.000 N 
ATOM      2  C   UNL     1       0.383  10.232  18.786  0.00  0.00    +0.000 A 
ATOM      3  C   UNL     1      -0.454  11.092  19.469  0.00  0.00    +0.000 A 
ATOM      4  C   UNL     1      -0.449  10.684  20.828  0.00  0.00    +0.000 A 
ATOM      5  C   UNL     1      -1.158  11.229  21.946  0.00  0.00    +0.000 A 
ATOM      6  C   UNL     1      -0.993  10.683  23.200  0.00  0.00    +0.000 A 
ATOM      7  C   UNL     1      -0.150   9.600  23.354  0.00  0.00    +0.000 A 
ATOM      8  C   UNL     1       0.564   9.038  22.262  0.00  0.00    +0.000 A 
ATOM      9  C   UNL     1       0.423   9.568  20.955  0.00  0.00    +0.000 A 
ENDROOT
BRANCH   3  10
ATOM     10  S   UNL     1      -1.366  12.493  18.935  0.00  0.00    +0.000 S 
ATOM     11  O   UNL     1      -0.813  12.791  17.626  0.00  0.00    +0.000 OA
ATOM     12  O   UNL     1      -2.742  12.063  19.102  0.00  0.00    +0.000 OA
BRANCH  10  13
ATOM     13  C   UNL     1      -1.060  13.852  20.032  0.00  0.00    +0.000 C 
BRANCH  13  14
ATOM     14  C   UNL     1       0.032  14.749  19.474  0.00  0.00    +0.000 A 
ATOM     15  C   UNL     1      -0.280  15.938  18.792  0.00  0.00    +0.000 A 
ATOM     16  C   UNL     1       0.736  16.790  18.337  0.00  0.00    +0.000 A 
ATOM     17  C   UNL     1       2.074  16.464  18.538  0.00  0.00    +0.000 A 
ATOM     18  C   UNL     1       2.402  15.274  19.186  0.00  0.00    +0.000 A 
ATOM     19  C   UNL     1       1.387  14.437  19.647  0.00  0.00    +0.000 A 
ATOM     20  F   UNL     1       1.727  13.311  20.293  0.00  0.00    +0.000 F 
ENDBRANCH  13  14
ENDBRANCH  10  13
ENDBRANCH   3  10
BRANCH   1  21
ATOM     21  C   UNL     1       2.056   8.291  19.094  0.00  0.00    +0.000 C 
BRANCH  21  23
ATOM     22  O   UNL     1       1.707   6.503  20.614  0.00  0.00    +0.000 OA
ATOM     23  C   UNL     1       2.298   6.833  19.570  0.00  0.00    +0.000 C 
ATOM     24  N   UNL     1       3.097   5.784  18.912  0.00  0.00    +0.000 N 
ATOM     25  C   UNL     1       2.877   4.499  19.621  0.00  0.00    +0.000 C 
ATOM     26  C   UNL     1       3.714   3.262  19.351  0.00  0.00    +0.000 C 
ATOM     27  C   UNL     1       4.238   3.106  17.962  0.00  0.00    +0.000 C 
ATOM     28  C   UNL     1       4.269   4.374  17.169  0.00  0.00    +0.000 A 
ATOM     29  C   UNL     1       4.927   4.167  15.926  0.00  0.00    +0.000 A 
ATOM     30  C   UNL     1       5.535   5.214  15.293  0.00  0.00    +0.000 A 
ATOM     31  C   UNL     1       5.409   6.477  15.890  0.00  0.00    +0.000 A 
ATOM     32  C   UNL     1       4.567   6.713  17.027  0.00  0.00    +0.000 A 
ATOM     33  C   UNL     1       3.933   5.666  17.702  0.00  0.00    +0.000 A 
ENDBRANCH  21  23
ENDBRANCH   1  21
TORSDOF 5
ENDMDL
MODEL 2
REMARK VINA RESULT:      -9.0      0.801      1.178
REMARK  Name = 
REMARK  5 active torsions:
REMARK  status: ('A' for Active; 'I' for Inactive)
REMARK    1  A    between atoms: C_2  and  C_3
REMARK    2  A    between atoms: C_3  and  N_4
REMARK    3  A    between atoms: C_6  and  S_7
REMARK    4  A    between atoms: S_7  and  C_10
REMARK    5  A    between atoms: C_10  and  C_11
REMARK                            x       y       z     vdW  Elec       q    Type
REMARK                         _______ _______ _______ _____ _____    ______ ____
ROOT
ATOM      1  N   UNL     1       0.958   9.277  19.687  0.00  0.00    +0.000 N 
ATOM      2  C   UNL     1       0.379  10.236  18.793  0.00  0.00    +0.000 A 
ATOM      3  C   UNL     1      -0.458  11.095  19.475  0.00  0.00    +0.000 A 
ATOM      4  C   UNL     1      -0.456  10.686  20.834  0.00  0.00    +0.000 A 
ATOM      5  C   UNL     1      -1.165  11.230  21.951  0.00  0.00    +0.000 A 
ATOM      6  C   UNL     1      -1.002  10.683  23.205  0.00  0.00    +0.000 A 
ATOM      7  C   UNL     1      -0.160   9.599  23.359  0.00  0.00    +0.000 A 
ATOM      8  C   UNL     1       0.555   9.038  22.267  0.00  0.00    +0.000 A 
ATOM      9  C   UNL     1       0.416   9.570  20.961  0.00  0.00    +0.000 A 
ENDROOT
BRANCH   3  10
ATOM     10  S   UNL     1      -1.370  12.497  18.942  0.00  0.00    +0.000 S 
ATOM     11  O   UNL     1      -0.863  12.755  17.606  0.00  0.00    +0.000 OA
ATOM     12  O   UNL     1      -2.745  12.093  19.172  0.00  0.00    +0.000 OA
BRANCH  10  13
ATOM     13  C   UNL     1      -1.001  13.877  19.992  0.00  0.00    +0.000 C 
BRANCH  13  14
ATOM     14  C   UNL     1       0.373  14.438  19.670  0.00  0.00    +0.000 A 
ATOM     15  C   UNL     1       1.541  13.831  20.161  0.00  0.00    +0.000 A 
ATOM     16  C   UNL     1       2.806  14.319  19.804  0.00  0.00    +0.000 A 
ATOM     17  C   UNL     1       2.927  15.426  18.969  0.00  0.00    +0.000 A 
ATOM     18  C   UNL     1       1.778  16.059  18.497  0.00  0.00    +0.000 A 
ATOM     19  C   UNL     1       0.523  15.561  18.845  0.00  0.00    +0.000 A 
ATOM     20  F   UNL     1      -0.567  16.169  18.355  0.00  0.00    +0.000 F 
ENDBRANCH  13  14
ENDBRANCH  10  13
ENDBRANCH   3  10
BRANCH   1  21
ATOM     21  C   UNL     1       2.051   8.294  19.100  0.00  0.00    +0.000 C 
BRANCH  21  23
ATOM     22  O   UNL     1       1.684   6.495  20.603  0.00  0.00    +0.000 OA
ATOM     23  C   UNL     1       2.283   6.831  19.566  0.00  0.00    +0.000 C 
ATOM     24  N   UNL     1       3.082   5.784  18.904  0.00  0.00    +0.000 N 
ATOM     25  C   UNL     1       2.851   4.495  19.601  0.00  0.00    +0.000 C 
ATOM     26  C   UNL     1       3.685   3.256  19.327  0.00  0.00    +0.000 C 
ATOM     27  C   UNL     1       4.218   3.108  17.941  0.00  0.00    +0.000 C 
ATOM     28  C   UNL     1       4.259   4.383  17.158  0.00  0.00    +0.000 A 
ATOM     29  C   UNL     1       4.925   4.183  15.917  0.00  0.00    +0.000 A 
ATOM     30  C   UNL     1       5.541   5.232  15.297  0.00  0.00    +0.000 A 
ATOM     31  C   UNL     1       5.417   6.492  15.903  0.00  0.00    +0.000 A 
ATOM     32  C   UNL     1       4.569   6.722  17.037  0.00  0.00    +0.000 A 
ATOM     33  C   UNL     1       3.926   5.672  17.699  0.00  0.00    +0.000 A 
ENDBRANCH  21  23
ENDBRANCH   1  21
TORSDOF 5
ENDMDL
MODEL 3
REMARK VINA RESULT:      -9.0      1.906      3.577
REMARK  Name = 
REMARK  5 active torsions:
REMARK  status: ('A' for Active; 'I' for Inactive)
REMARK    1  A    between atoms: C_2  and  C_3
REMARK    2  A    between atoms: C_3  and  N_4
REMARK    3  A    between atoms: C_6  and  S_7
REMARK    4  A    between atoms: S_7  and  C_10
REMARK    5  A    between atoms: C_10  and  C_11
REMARK                            x       y       z     vdW  Elec       q    Type
REMARK                         _______ _______ _______ _____ _____    ______ ____
ROOT
ATOM      1  N   UNL     1       0.435   9.687  19.986  0.00  0.00    +0.000 N 
ATOM      2  C   UNL     1       0.320  10.593  21.091  0.00  0.00    +0.000 A 
ATOM      3  C   UNL     1      -0.671  11.524  20.857  0.00  0.00    +0.000 A 
ATOM      4  C   UNL     1      -1.203  11.251  19.570  0.00  0.00    +0.000 A 
ATOM      5  C   UNL     1      -2.237  11.928  18.848  0.00  0.00    +0.000 A 
ATOM      6  C   UNL     1      -2.615  11.478  17.602  0.00  0.00    +0.000 A 
ATOM      7  C   UNL     1      -1.972  10.383  17.060  0.00  0.00    +0.000 A 
ATOM      8  C   UNL     1      -0.942   9.693  17.754  0.00  0.00    +0.000 A 
ATOM      9  C   UNL     1      -0.522  10.122  19.038  0.00  0.00    +0.000 A 
ENDROOT
BRANCH   3  10
ATOM     10  S   UNL     1      -1.315  12.813  21.860  0.00  0.00    +0.000 S 
ATOM     11  O   UNL     1      -2.753  12.631  21.781  0.00  0.00    +0.000 OA
ATOM     12  O   UNL     1      -0.591  12.642  23.107  0.00  0.00    +0.000 OA
BRANCH  10  13
ATOM     13  C   UNL     1      -0.876  14.382  21.160  0.00  0.00    +0.000 C 
BRANCH  13  14
ATOM     14  C   UNL     1       0.507  14.317  20.536  0.00  0.00    +0.000 A 
ATOM     15  C   UNL     1       1.658  14.160  21.329  0.00  0.00    +0.000 A 
ATOM     16  C   UNL     1       2.923  14.037  20.738  0.00  0.00    +0.000 A 
ATOM     17  C   UNL     1       3.065  14.085  19.354  0.00  0.00    +0.000 A 
ATOM     18  C   UNL     1       1.938  14.270  18.554  0.00  0.00    +0.000 A 
ATOM     19  C   UNL     1       0.681  14.379  19.147  0.00  0.00    +0.000 A 
ATOM     20  F   UNL     1      -0.392  14.528  18.355  0.00  0.00    +0.000 F 
ENDBRANCH  13  14
ENDBRANCH  10  13
ENDBRANCH   3  10
BRANCH   1  21
ATOM     21  C   UNL     1       1.432   8.468  20.138  0.00  0.00    +0.000 C 
BRANCH  21  23
ATOM     22  O   UNL     1       2.607   8.618  18.081  0.00  0.00    +0.000 OA
ATOM     23  C   UNL     1       2.258   7.836  18.984  0.00  0.00    +0.000 C 
ATOM     24  N   UNL     1       2.718   6.442  18.856  0.00  0.00    +0.000 N 
ATOM     25  C   UNL     1       3.639   6.347  17.696  0.00  0.00    +0.000 C 
ATOM     26  C   UNL     1       4.120   5.019  17.139  0.00  0.00    +0.000 C 
ATOM     27  C   UNL     1       4.263   3.902  18.119  0.00  0.00    +0.000 C 
ATOM     28  C   UNL     1       3.492   4.093  19.387  0.00  0.00    +0.000 A 
ATOM     29  C   UNL     1       3.554   2.919  20.188  0.00  0.00    +0.000 A 
ATOM     30  C   UNL     1       2.555   2.648  21.079  0.00  0.00    +0.000 A 
ATOM     31  C   UNL     1       1.537   3.605  21.204  0.00  0.00    +0.000 A 
ATOM     32  C   UNL     1       1.592   4.880  20.550  0.00  0.00    +0.000 A 
ATOM     33  C   UNL     1       2.596   5.191  19.629  0.00  0.00    +0.000 A 
ENDBRANCH  21  23
ENDBRANCH   1  21
TORSDOF 5
ENDMDL
MODEL 4
REMARK VINA RESULT:      -9.0      0.957      1.108
REMARK  Name = 
REMARK  5 active torsions:
REMARK  status: ('A' for Active; 'I' for Inactive)
REMARK    1  A    between atoms: C_2  and  C_3
REMARK    2  A    between atoms: C_3  and  N_4
REMARK    3  A    between atoms: C_6  and  S_7
REMARK    4  A    between atoms: S_7  and  C_10
REMARK    5  A    between atoms: C_10  and  C_11
REMARK                            x       y       z     vdW  Elec       q    Type
REMARK                         _______ _______ _______ _____ _____    ______ ____
ROOT
ATOM      1  N   UNL     1       0.992   9.189  19.714  0.00  0.00    +0.000 N 
ATOM      2  C   UNL     1       0.358  10.092  18.800  0.00  0.00    +0.000 A 
ATOM      3  C   UNL     1      -0.498  10.943  19.469  0.00  0.00    +0.000 A 
ATOM      4  C   UNL     1      -0.452  10.583  20.841  0.00  0.00    +0.000 A 
ATOM      5  C   UNL     1      -1.160  11.140  21.954  0.00  0.00    +0.000 A 
ATOM      6  C   UNL     1      -0.950  10.644  23.222  0.00  0.00    +0.000 A 
ATOM      7  C   UNL     1      -0.064   9.599  23.396  0.00  0.00    +0.000 A 
ATOM      8  C   UNL     1       0.650   9.027  22.309  0.00  0.00    +0.000 A 
ATOM      9  C   UNL     1       0.464   9.506  20.989  0.00  0.00    +0.000 A 
ENDROOT
BRANCH   3  10
ATOM     10  S   UNL     1      -1.473  12.289  18.907  0.00  0.00    +0.000 S 
ATOM     11  O   UNL     1      -1.175  12.367  17.488  0.00  0.00    +0.000 OA
ATOM     12  O   UNL     1      -2.798  11.951  19.391  0.00  0.00    +0.000 OA
BRANCH  10  13
ATOM     13  C   UNL     1      -0.941  13.780  19.706  0.00  0.00    +0.000 C 
BRANCH  13  14
ATOM     14  C   UNL     1       0.576  13.857  19.731  0.00  0.00    +0.000 A 
ATOM     15  C   UNL     1       1.320  13.941  18.541  0.00  0.00    +0.000 A 
ATOM     16  C   UNL     1       2.716  14.076  18.578  0.00  0.00    +0.000 A 
ATOM     17  C   UNL     1       3.390  14.113  19.795  0.00  0.00    +0.000 A 
ATOM     18  C   UNL     1       2.670  14.000  20.984  0.00  0.00    +0.000 A 
ATOM     19  C   UNL     1       1.282  13.879  20.941  0.00  0.00    +0.000 A 
ATOM     20  F   UNL     1       0.609  13.802  22.099  0.00  0.00    +0.000 F 
ENDBRANCH  13  14
ENDBRANCH  10  13
ENDBRANCH   3  10
BRANCH   1  21
ATOM     21  C   UNL     1       2.110   8.227  19.139  0.00  0.00    +0.000 C 
BRANCH  21  23
ATOM     22  O   UNL     1       1.713   6.384  20.580  0.00  0.00    +0.000 OA
ATOM     23  C   UNL     1       2.319   6.746  19.556  0.00  0.00    +0.000 C 
ATOM     24  N   UNL     1       3.104   5.710  18.861  0.00  0.00    +0.000 N 
ATOM     25  C   UNL     1       2.853   4.401  19.514  0.00  0.00    +0.000 C 
ATOM     26  C   UNL     1       3.669   3.160  19.200  0.00  0.00    +0.000 C 
ATOM     27  C   UNL     1       4.203   3.051  17.810  0.00  0.00    +0.000 C 
ATOM     28  C   UNL     1       4.264   4.351  17.071  0.00  0.00    +0.000 A 
ATOM     29  C   UNL     1       4.930   4.182  15.825  0.00  0.00    +0.000 A 
ATOM     30  C   UNL     1       5.562   5.243  15.241  0.00  0.00    +0.000 A 
ATOM     31  C   UNL     1       5.455   6.483  15.889  0.00  0.00    +0.000 A 
ATOM     32  C   UNL     1       4.608   6.688  17.028  0.00  0.00    +0.000 A 
ATOM     33  C   UNL     1       3.949   5.626  17.654  0.00  0.00    +0.000 A 
ENDBRANCH  21  23
ENDBRANCH   1  21
TORSDOF 5
ENDMDL
MODEL 5
REMARK VINA RESULT:      -8.9      3.798      9.740
REMARK  Name = 
REMARK  5 active torsions:
REMARK  status: ('A' for Active; 'I' for Inactive)
REMARK    1  A    between atoms: C_2  and  C_3
REMARK    2  A    between atoms: C_3  and  N_4
REMARK    3  A    between atoms: C_6  and  S_7
REMARK    4  A    between atoms: S_7  and  C_10
REMARK    5  A    between atoms: C_10  and  C_11
REMARK                            x       y       z     vdW  Elec       q    Type
REMARK                         _______ _______ _______ _____ _____    ______ ____
ROOT
ATOM      1  N   UNL     1       2.574   7.191  18.380  0.00  0.00    +0.000 N 
ATOM      2  C   UNL     1       3.735   7.556  17.624  0.00  0.00    +0.000 A 
ATOM      3  C   UNL     1       4.332   6.439  17.078  0.00  0.00    +0.000 A 
ATOM      4  C   UNL     1       3.574   5.316  17.497  0.00  0.00    +0.000 A 
ATOM      5  C   UNL     1       3.774   3.925  17.221  0.00  0.00    +0.000 A 
ATOM      6  C   UNL     1       2.895   2.989  17.721  0.00  0.00    +0.000 A 
ATOM      7  C   UNL     1       1.836   3.412  18.498  0.00  0.00    +0.000 A 
ATOM      8  C   UNL     1       1.614   4.786  18.789  0.00  0.00    +0.000 A 
ATOM      9  C   UNL     1       2.493   5.781  18.296  0.00  0.00    +0.000 A 
ENDROOT
BRANCH   3  10
ATOM     10  S   UNL     1       5.714   6.265  16.010  0.00  0.00    +0.000 S 
ATOM     11  O   UNL     1       5.262   6.843  14.757  0.00  0.00    +0.000 OA
ATOM     12  O   UNL     1       6.792   6.858  16.779  0.00  0.00    +0.000 OA
BRANCH  10  13
ATOM     13  C   UNL     1       6.067   4.543  15.775  0.00  0.00    +0.000 C 
BRANCH  13  14
ATOM     14  C   UNL     1       6.261   4.237  14.300  0.00  0.00    +0.000 A 
ATOM     15  C   UNL     1       5.334   3.455  13.589  0.00  0.00    +0.000 A 
ATOM     16  C   UNL     1       5.490   3.233  12.214  0.00  0.00    +0.000 A 
ATOM     17  C   UNL     1       6.576   3.770  11.529  0.00  0.00    +0.000 A 
ATOM     18  C   UNL     1       7.522   4.523  12.224  0.00  0.00    +0.000 A 
ATOM     19  C   UNL     1       7.354   4.751  13.590  0.00  0.00    +0.000 A 
ATOM     20  F   UNL     1       8.262   5.503  14.231  0.00  0.00    +0.000 F 
ENDBRANCH  13  14
ENDBRANCH  10  13
ENDBRANCH   3  10
BRANCH   1  21
ATOM     21  C   UNL     1       1.684   8.361  18.969  0.00  0.00    +0.000 C 
BRANCH  21  23
ATOM     22  O   UNL     1       1.704   7.645  21.231  0.00  0.00    +0.000 OA
ATOM     23  C   UNL     1       1.206   8.468  20.443  0.00  0.00    +0.000 C 
ATOM     24  N   UNL     1       0.277   9.454  21.025  0.00  0.00    +0.000 N 
ATOM     25  C   UNL     1       0.274   9.293  22.500  0.00  0.00    +0.000 C 
ATOM     26  C   UNL     1      -0.733   9.990  23.397  0.00  0.00    +0.000 C 
ATOM     27  C   UNL     1      -1.229  11.318  22.931  0.00  0.00    +0.000 C 
ATOM     28  C   UNL     1      -1.038  11.568  21.468  0.00  0.00    +0.000 A 
ATOM     29  C   UNL     1      -1.678  12.779  21.083  0.00  0.00    +0.000 A 
ATOM     30  C   UNL     1      -2.096  12.948  19.794  0.00  0.00    +0.000 A 
ATOM     31  C   UNL     1      -1.798  11.920  18.888  0.00  0.00    +0.000 A 
ATOM     32  C   UNL     1      -0.969  10.802  19.234  0.00  0.00    +0.000 A 
ATOM     33  C   UNL     1      -0.526  10.594  20.544  0.00  0.00    +0.000 A 
ENDBRANCH  21  23
ENDBRANCH   1  21
TORSDOF 5
ENDMDL
MODEL 6
REMARK VINA RESULT:      -8.8      2.545      3.912
REMARK  Name = 
REMARK  5 active torsions:
REMARK  status: ('A' for Active; 'I' for Inactive)
REMARK    1  A    between atoms: C_2  and  C_3
REMARK    2  A    between atoms: C_3  and  N_4
REMARK    3  A    between atoms: C_6  and  S_7
REMARK    4  A    between atoms: S_7  and  C_10
REMARK    5  A    between atoms: C_10  and  C_11
REMARK                            x       y       z     vdW  Elec       q    Type
REMARK                         _______ _______ _______ _____ _____    ______ ____
ROOT
ATOM      1  N   UNL     1       0.812   9.967  18.902  0.00  0.00    +0.000 N 
ATOM      2  C   UNL     1       1.051  10.880  19.981  0.00  0.00    +0.000 A 
ATOM      3  C   UNL     1      -0.059  11.669  20.207  0.00  0.00    +0.000 A 
ATOM      4  C   UNL     1      -1.037  11.293  19.250  0.00  0.00    +0.000 A 
ATOM      5  C   UNL     1      -2.356  11.810  19.042  0.00  0.00    +0.000 A 
ATOM      6  C   UNL     1      -3.156  11.280  18.053  0.00  0.00    +0.000 A 
ATOM      7  C   UNL     1      -2.661  10.262  17.263  0.00  0.00    +0.000 A 
ATOM      8  C   UNL     1      -1.356   9.732  17.446  0.00  0.00    +0.000 A 
ATOM      9  C   UNL     1      -0.499  10.247  18.450  0.00  0.00    +0.000 A 
ENDROOT
BRANCH   3  10
ATOM     10  S   UNL     1      -0.389  12.891  21.422  0.00  0.00    +0.000 S 
ATOM     11  O   UNL     1       0.930  13.283  21.889  0.00  0.00    +0.000 OA
ATOM     12  O   UNL     1      -1.256  13.818  20.720  0.00  0.00    +0.000 OA
BRANCH  10  13
ATOM     13  C   UNL     1      -1.299  12.165  22.760  0.00  0.00    +0.000 C 
BRANCH  13  14
ATOM     14  C   UNL     1      -2.499  13.026  23.115  0.00  0.00    +0.000 A 
ATOM     15  C   UNL     1      -3.783  12.721  22.631  0.00  0.00    +0.000 A 
ATOM     16  C   UNL     1      -4.894  13.485  23.017  0.00  0.00    +0.000 A 
ATOM     17  C   UNL     1      -4.741  14.571  23.873  0.00  0.00    +0.000 A 
ATOM     18  C   UNL     1      -3.470  14.907  24.338  0.00  0.00    +0.000 A 
ATOM     19  C   UNL     1      -2.371  14.135  23.961  0.00  0.00    +0.000 A 
ATOM     20  F   UNL     1      -1.163  14.460  24.445  0.00  0.00    +0.000 F 
ENDBRANCH  13  14
ENDBRANCH  10  13
ENDBRANCH   3  10
BRANCH   1  21
ATOM     21  C   UNL     1       1.931   8.892  18.591  0.00  0.00    +0.000 C 
BRANCH  21  23
ATOM     22  O   UNL     1       1.550   7.486  20.465  0.00  0.00    +0.000 OA
ATOM     23  C   UNL     1       2.145   7.568  19.376  0.00  0.00    +0.000 C 
ATOM     24  N   UNL     1       2.922   6.385  18.964  0.00  0.00    +0.000 N 
ATOM     25  C   UNL     1       2.678   5.291  19.936  0.00  0.00    +0.000 C 
ATOM     26  C   UNL     1       3.489   4.008  19.946  0.00  0.00    +0.000 C 
ATOM     27  C   UNL     1       4.007   3.542  18.626  0.00  0.00    +0.000 C 
ATOM     28  C   UNL     1       4.061   4.605  17.575  0.00  0.00    +0.000 A 
ATOM     29  C   UNL     1       4.713   4.118  16.408  0.00  0.00    +0.000 A 
ATOM     30  C   UNL     1       5.339   4.989  15.563  0.00  0.00    +0.000 A 
ATOM     31  C   UNL     1       5.240   6.355  15.868  0.00  0.00    +0.000 A 
ATOM     32  C   UNL     1       4.406   6.850  16.925  0.00  0.00    +0.000 A 
ATOM     33  C   UNL     1       3.752   5.989  17.811  0.00  0.00    +0.000 A 
ENDBRANCH  21  23
ENDBRANCH   1  21
TORSDOF 5
ENDMDL
MODEL 7
REMARK VINA RESULT:      -8.8      3.463      9.505
REMARK  Name = 
REMARK  5 active torsions:
REMARK  status: ('A' for Active; 'I' for Inactive)
REMARK    1  A    between atoms: C_2  and  C_3
REMARK    2  A    between atoms: C_3  and  N_4
REMARK    3  A    between atoms: C_6  and  S_7
REMARK    4  A    between atoms: S_7  and  C_10
REMARK    5  A    between atoms: C_10  and  C_11
REMARK                            x       y       z     vdW  Elec       q    Type
REMARK                         _______ _______ _______ _____ _____    ______ ____
ROOT
ATOM      1  N   UNL     1       2.911   7.117  18.282  0.00  0.00    +0.000 N 
ATOM      2  C   UNL     1       4.222   7.441  17.803  0.00  0.00    +0.000 A 
ATOM      3  C   UNL     1       5.099   6.401  18.038  0.00  0.00    +0.000 A 
ATOM      4  C   UNL     1       4.367   5.385  18.705  0.00  0.00    +0.000 A 
ATOM      5  C   UNL     1       4.808   4.110  19.185  0.00  0.00    +0.000 A 
ATOM      6  C   UNL     1       3.915   3.258  19.797  0.00  0.00    +0.000 A 
ATOM      7  C   UNL     1       2.603   3.660  19.952  0.00  0.00    +0.000 A 
ATOM      8  C   UNL     1       2.139   4.920  19.488  0.00  0.00    +0.000 A 
ATOM      9  C   UNL     1       3.024   5.827  18.853  0.00  0.00    +0.000 A 
ENDROOT
BRANCH   3  10
ATOM     10  S   UNL     1       6.788   6.187  17.613  0.00  0.00    +0.000 S 
ATOM     11  O   UNL     1       7.005   7.150  16.548  0.00  0.00    +0.000 OA
ATOM     12  O   UNL     1       7.459   6.301  18.894  0.00  0.00    +0.000 OA
BRANCH  10  13
ATOM     13  C   UNL     1       7.036   4.546  16.987  0.00  0.00    +0.000 C 
BRANCH  13  14
ATOM     14  C   UNL     1       6.704   4.487  15.506  0.00  0.00    +0.000 A 
ATOM     15  C   UNL     1       7.659   4.826  14.531  0.00  0.00    +0.000 A 
ATOM     16  C   UNL     1       7.361   4.706  13.166  0.00  0.00    +0.000 A 
ATOM     17  C   UNL     1       6.108   4.265  12.752  0.00  0.00    +0.000 A 
ATOM     18  C   UNL     1       5.139   3.954  13.705  0.00  0.00    +0.000 A 
ATOM     19  C   UNL     1       5.445   4.063  15.061  0.00  0.00    +0.000 A 
ATOM     20  F   UNL     1       4.506   3.729  15.959  0.00  0.00    +0.000 F 
ENDBRANCH  13  14
ENDBRANCH  10  13
ENDBRANCH   3  10
BRANCH   1  21
ATOM     21  C   UNL     1       1.744   8.141  17.975  0.00  0.00    +0.000 C 
BRANCH  21  23
ATOM     22  O   UNL     1       2.342  10.302  17.196  0.00  0.00    +0.000 OA
ATOM     23  C   UNL     1       1.836   9.682  18.149  0.00  0.00    +0.000 C 
ATOM     24  N   UNL     1       1.351  10.498  19.277  0.00  0.00    +0.000 N 
ATOM     25  C   UNL     1       1.474  11.932  18.916  0.00  0.00    +0.000 C 
ATOM     26  C   UNL     1       1.279  13.049  19.925  0.00  0.00    +0.000 C 
ATOM     27  C   UNL     1       0.312  12.783  21.031  0.00  0.00    +0.000 C 
ATOM     28  C   UNL     1       0.027  11.332  21.263  0.00  0.00    +0.000 A 
ATOM     29  C   UNL     1      -0.771  11.163  22.429  0.00  0.00    +0.000 A 
ATOM     30  C   UNL     1      -0.719   9.990  23.126  0.00  0.00    +0.000 A 
ATOM     31  C   UNL     1       0.087   8.971  22.597  0.00  0.00    +0.000 A 
ATOM     32  C   UNL     1       0.719   9.074  21.314  0.00  0.00    +0.000 A 
ATOM     33  C   UNL     1       0.690  10.260  20.574  0.00  0.00    +0.000 A 
ENDBRANCH  21  23
ENDBRANCH   1  21
TORSDOF 5
ENDMDL
MODEL 8
REMARK VINA RESULT:      -8.8      1.132      1.287
REMARK  Name = 
REMARK  5 active torsions:
REMARK  status: ('A' for Active; 'I' for Inactive)
REMARK    1  A    between atoms: C_2  and  C_3
REMARK    2  A    between atoms: C_3  and  N_4
REMARK    3  A    between atoms: C_6  and  S_7
REMARK    4  A    between atoms: S_7  and  C_10
REMARK    5  A    between atoms: C_10  and  C_11
REMARK                            x       y       z     vdW  Elec       q    Type
REMARK                         _______ _______ _______ _____ _____    ______ ____
ROOT
ATOM      1  N   UNL     1       1.035   9.147  19.638  0.00  0.00    +0.000 N 
ATOM      2  C   UNL     1       0.414  10.000  18.668  0.00  0.00    +0.000 A 
ATOM      3  C   UNL     1      -0.459  10.878  19.278  0.00  0.00    +0.000 A 
ATOM      4  C   UNL     1      -0.437  10.588  20.666  0.00  0.00    +0.000 A 
ATOM      5  C   UNL     1      -1.168  11.195  21.737  0.00  0.00    +0.000 A 
ATOM      6  C   UNL     1      -0.980  10.765  23.032  0.00  0.00    +0.000 A 
ATOM      7  C   UNL     1      -0.092   9.735  23.274  0.00  0.00    +0.000 A 
ATOM      8  C   UNL     1       0.645   9.114  22.231  0.00  0.00    +0.000 A 
ATOM      9  C   UNL     1       0.482   9.525  20.885  0.00  0.00    +0.000 A 
ENDROOT
BRANCH   3  10
ATOM     10  S   UNL     1      -1.430  12.189  18.630  0.00  0.00    +0.000 S 
ATOM     11  O   UNL     1      -1.996  11.635  17.413  0.00  0.00    +0.000 OA
ATOM     12  O   UNL     1      -2.263  12.560  19.760  0.00  0.00    +0.000 OA
BRANCH  10  13
ATOM     13  C   UNL     1      -0.380  13.559  18.225  0.00  0.00    +0.000 C 
BRANCH  13  14
ATOM     14  C   UNL     1       0.581  13.847  19.366  0.00  0.00    +0.000 A 
ATOM     15  C   UNL     1       0.144  14.472  20.547  0.00  0.00    +0.000 A 
ATOM     16  C   UNL     1       1.026  14.674  21.618  0.00  0.00    +0.000 A 
ATOM     17  C   UNL     1       2.356  14.275  21.524  0.00  0.00    +0.000 A 
ATOM     18  C   UNL     1       2.814  13.682  20.348  0.00  0.00    +0.000 A 
ATOM     19  C   UNL     1       1.929  13.471  19.291  0.00  0.00    +0.000 A 
ATOM     20  F   UNL     1       2.386  12.872  18.182  0.00  0.00    +0.000 F 
ENDBRANCH  13  14
ENDBRANCH  10  13
ENDBRANCH   3  10
BRANCH   1  21
ATOM     21  C   UNL     1       2.168   8.165  19.132  0.00  0.00    +0.000 C 
BRANCH  21  23
ATOM     22  O   UNL     1       1.713   6.358  20.601  0.00  0.00    +0.000 OA
ATOM     23  C   UNL     1       2.335   6.686  19.575  0.00  0.00    +0.000 C 
ATOM     24  N   UNL     1       3.096   5.618  18.901  0.00  0.00    +0.000 N 
ATOM     25  C   UNL     1       2.805   4.327  19.574  0.00  0.00    +0.000 C 
ATOM     26  C   UNL     1       3.589   3.060  19.285  0.00  0.00    +0.000 C 
ATOM     27  C   UNL     1       4.127   2.914  17.900  0.00  0.00    +0.000 C 
ATOM     28  C   UNL     1       4.229   4.199  17.140  0.00  0.00    +0.000 A 
ATOM     29  C   UNL     1       4.896   3.992  15.902  0.00  0.00    +0.000 A 
ATOM     30  C   UNL     1       5.561   5.025  15.305  0.00  0.00    +0.000 A 
ATOM     31  C   UNL     1       5.484   6.278  15.932  0.00  0.00    +0.000 A 
ATOM     32  C   UNL     1       4.636   6.524  17.062  0.00  0.00    +0.000 A 
ATOM     33  C   UNL     1       3.944   5.491  17.701  0.00  0.00    +0.000 A 
ENDBRANCH  21  23
ENDBRANCH   1  21
TORSDOF 5
ENDMDL
MODEL 9
REMARK VINA RESULT:      -8.8      0.788      1.015
REMARK  Name = 
REMARK  5 active torsions:
REMARK  status: ('A' for Active; 'I' for Inactive)
REMARK    1  A    between atoms: C_2  and  C_3
REMARK    2  A    between atoms: C_3  and  N_4
REMARK    3  A    between atoms: C_6  and  S_7
REMARK    4  A    between atoms: S_7  and  C_10
REMARK    5  A    between atoms: C_10  and  C_11
REMARK                            x       y       z     vdW  Elec       q    Type
REMARK                         _______ _______ _______ _____ _____    ______ ____
ROOT
ATOM      1  N   UNL     1       0.992   9.516  19.631  0.00  0.00    +0.000 N 
ATOM      2  C   UNL     1       0.668  10.667  18.841  0.00  0.00    +0.000 A 
ATOM      3  C   UNL     1      -0.060  11.576  19.581  0.00  0.00    +0.000 A 
ATOM      4  C   UNL     1      -0.245  11.011  20.869  0.00  0.00    +0.000 A 
ATOM      5  C   UNL     1      -0.941  11.537  22.004  0.00  0.00    +0.000 A 
ATOM      6  C   UNL     1      -0.983  10.820  23.180  0.00  0.00    +0.000 A 
ATOM      7  C   UNL     1      -0.361   9.589  23.237  0.00  0.00    +0.000 A 
ATOM      8  C   UNL     1       0.336   9.042  22.125  0.00  0.00    +0.000 A 
ATOM      9  C   UNL     1       0.403   9.746  20.897  0.00  0.00    +0.000 A 
ENDROOT
BRANCH   3  10
ATOM     10  S   UNL     1      -0.663  13.176  19.186  0.00  0.00    +0.000 S 
ATOM     11  O   UNL     1      -0.509  13.262  17.745  0.00  0.00    +0.000 OA
ATOM     12  O   UNL     1      -1.970  13.192  19.817  0.00  0.00    +0.000 OA
BRANCH  10  13
ATOM     13  C   UNL     1       0.356  14.401  19.965  0.00  0.00    +0.000 C 
BRANCH  13  14
ATOM     14  C   UNL     1       0.473  15.633  19.084  0.00  0.00    +0.000 A 
ATOM     15  C   UNL     1      -0.658  16.396  18.744  0.00  0.00    +0.000 A 
ATOM     16  C   UNL     1      -0.529  17.566  17.983  0.00  0.00    +0.000 A 
ATOM     17  C   UNL     1       0.720  17.985  17.536  0.00  0.00    +0.000 A 
ATOM     18  C   UNL     1       1.849  17.224  17.838  0.00  0.00    +0.000 A 
ATOM     19  C   UNL     1       1.716  16.068  18.606  0.00  0.00    +0.000 A 
ATOM     20  F   UNL     1       2.820  15.368  18.908  0.00  0.00    +0.000 F 
ENDBRANCH  13  14
ENDBRANCH  10  13
ENDBRANCH   3  10
BRANCH   1  21
ATOM     21  C   UNL     1       1.942   8.427  18.985  0.00  0.00    +0.000 C 
BRANCH  21  23
ATOM     22  O   UNL     1       1.640   6.757  20.645  0.00  0.00    +0.000 OA
ATOM     23  C   UNL     1       2.219   7.017  19.575  0.00  0.00    +0.000 C 
ATOM     24  N   UNL     1       3.041   5.938  18.998  0.00  0.00    +0.000 N 
ATOM     25  C   UNL     1       2.854   4.708  19.807  0.00  0.00    +0.000 C 
ATOM     26  C   UNL     1       3.719   3.473  19.632  0.00  0.00    +0.000 C 
ATOM     27  C   UNL     1       4.242   3.219  18.258  0.00  0.00    +0.000 C 
ATOM     28  C   UNL     1       4.240   4.421  17.366  0.00  0.00    +0.000 A 
ATOM     29  C   UNL     1       4.898   4.131  16.139  0.00  0.00    +0.000 A 
ATOM     30  C   UNL     1       5.479   5.138  15.422  0.00  0.00    +0.000 A 
ATOM     31  C   UNL     1       5.325   6.442  15.917  0.00  0.00    +0.000 A 
ATOM     32  C   UNL     1       4.482   6.748  17.037  0.00  0.00    +0.000 A 
ATOM     33  C   UNL     1       3.875   5.743  17.796  0.00  0.00    +0.000 A 
ENDBRANCH  21  23
ENDBRANCH   1  21
TORSDOF 5
ENDMDL
