MODEL 1
REMARK VINA RESULT:      -7.5      0.000      0.000
REMARK  Name = 
REMARK  3 active torsions:
REMARK  status: ('A' for Active; 'I' for Inactive)
REMARK    1  A    between atoms: C_22  and  N_23
REMARK    2  A    between atoms: N_23  and  C_24
REMARK    3  A    between atoms: C_24  and  C_25
REMARK                            x       y       z     vdW  Elec       q    Type
REMARK                         _______ _______ _______ _____ _____    ______ ____
ROOT
ATOM      1 CL   UNL     1      -0.045   8.320  21.622  0.00  0.00    +0.000 Cl
ATOM      2  C   UNL     1       1.142   7.963  20.432  0.00  0.00    +0.000 A 
ATOM      3  N   UNL     1       1.636   6.718  20.520  0.00  0.00    +0.000 NA
ATOM      4  C   UNL     1       2.535   6.347  19.565  0.00  0.00    +0.000 A 
ATOM      5  C   UNL     1       3.058   5.057  19.435  0.00  0.00    +0.000 A 
ATOM      6  N   UNL     1       2.637   3.998  20.218  0.00  0.00    +0.000 N 
ATOM      7  C   UNL     1       3.098   2.640  19.989  0.00  0.00    +0.000 C 
ATOM      8  C   UNL     1       2.086   1.815  20.775  0.00  0.00    +0.000 C 
ATOM      9  C   UNL     1       1.801   2.679  21.998  0.00  0.00    +0.000 C 
ATOM     10  C   UNL     1       1.963   4.120  21.505  0.00  0.00    +0.000 C 
ATOM     11  N   UNL     1       3.962   4.759  18.478  0.00  0.00    +0.000 NA
ATOM     12  C   UNL     1       4.366   5.706  17.630  0.00  0.00    +0.000 A 
ATOM     13  N   UNL     1       5.273   5.374  16.663  0.00  0.00    +0.000 N 
ATOM     14  C   UNL     1       5.825   6.364  15.744  0.00  0.00    +0.000 C 
ATOM     15  C   UNL     1       5.780   5.799  14.314  0.00  0.00    +0.000 C 
ATOM     16  O   UNL     1       6.439   4.522  14.226  0.00  0.00    +0.000 OA
ATOM     17  C   UNL     1       5.814   3.572  15.109  0.00  0.00    +0.000 C 
ATOM     18  C   UNL     1       5.865   4.041  16.572  0.00  0.00    +0.000 C 
ATOM     19  N   UNL     1       3.876   6.944  17.666  0.00  0.00    +0.000 NA
ATOM     20  C   UNL     1       2.972   7.253  18.584  0.00  0.00    +0.000 A 
ATOM     21  N   UNL     1       2.451   8.494  18.528  0.00  0.00    +0.000 NA
ATOM     22  C   UNL     1       1.514   8.866  19.432  0.00  0.00    +0.000 A 
ENDROOT
BRANCH  22  23
ATOM     23  N   UNL     1       0.850  10.084  19.308  0.00  0.00    +0.000 N 
ATOM     24  H   UNL     1       1.243  10.817  19.892  0.00  0.00    +0.000 HD
BRANCH  23  25
ATOM     25  C   UNL     1       0.420  10.535  17.999  0.00  0.00    +0.000 C 
BRANCH  25  26
ATOM     26  C   UNL     1      -1.093  10.663  18.008  0.00  0.00    +0.000 A 
ATOM     27  C   UNL     1      -1.740  11.585  18.844  0.00  0.00    +0.000 A 
ATOM     28  C   UNL     1      -3.132  11.706  18.820  0.00  0.00    +0.000 A 
ATOM     29  C   UNL     1      -3.894  10.912  17.962  0.00  0.00    +0.000 A 
ATOM     30  C   UNL     1      -3.266   9.995  17.124  0.00  0.00    +0.000 A 
ATOM     31  C   UNL     1      -1.874   9.876  17.144  0.00  0.00    +0.000 A 
ENDBRANCH  25  26
ENDBRANCH  23  25
ENDBRANCH  22  23
TORSDOF 3
ENDMDL
MODEL 2
REMARK VINA RESULT:      -7.4      0.638      1.226
REMARK  Name = 
REMARK  3 active torsions:
REMARK  status: ('A' for Active; 'I' for Inactive)
REMARK    1  A    between atoms: C_22  and  N_23
REMARK    2  A    between atoms: N_23  and  C_24
REMARK    3  A    between atoms: C_24  and  C_25
REMARK                            x       y       z     vdW  Elec       q    Type
REMARK                         _______ _______ _______ _____ _____    ______ ____
ROOT
ATOM      1 CL   UNL     1       0.068   8.570  21.341  0.00  0.00    +0.000 Cl
ATOM      2  C   UNL     1       1.244   8.138  20.164  0.00  0.00    +0.000 A 
ATOM      3  N   UNL     1       1.737   6.900  20.326  0.00  0.00    +0.000 NA
ATOM      4  C   UNL     1       2.626   6.468  19.387  0.00  0.00    +0.000 A 
ATOM      5  C   UNL     1       3.146   5.172  19.333  0.00  0.00    +0.000 A 
ATOM      6  N   UNL     1       2.731   4.164  20.184  0.00  0.00    +0.000 N 
ATOM      7  C   UNL     1       3.188   2.794  20.036  0.00  0.00    +0.000 C 
ATOM      8  C   UNL     1       2.182   2.022  20.881  0.00  0.00    +0.000 C 
ATOM      9  C   UNL     1       1.909   2.960  22.050  0.00  0.00    +0.000 C 
ATOM     10  C   UNL     1       2.069   4.368  21.468  0.00  0.00    +0.000 C 
ATOM     11  N   UNL     1       4.041   4.813  18.388  0.00  0.00    +0.000 NA
ATOM     12  C   UNL     1       4.439   5.705  17.479  0.00  0.00    +0.000 A 
ATOM     13  N   UNL     1       5.336   5.311  16.526  0.00  0.00    +0.000 N 
ATOM     14  C   UNL     1       5.881   6.241  15.543  0.00  0.00    +0.000 C 
ATOM     15  C   UNL     1       5.822   5.588  14.152  0.00  0.00    +0.000 C 
ATOM     16  O   UNL     1       6.478   4.307  14.137  0.00  0.00    +0.000 OA
ATOM     17  C   UNL     1       5.860   3.415  15.083  0.00  0.00    +0.000 C 
ATOM     18  C   UNL     1       5.925   3.974  16.514  0.00  0.00    +0.000 C 
ATOM     19  N   UNL     1       3.950   6.943  17.443  0.00  0.00    +0.000 NA
ATOM     20  C   UNL     1       3.055   7.310  18.348  0.00  0.00    +0.000 A 
ATOM     21  N   UNL     1       2.535   8.547  18.219  0.00  0.00    +0.000 NA
ATOM     22  C   UNL     1       1.607   8.976  19.107  0.00  0.00    +0.000 A 
ENDROOT
BRANCH  22  23
ATOM     23  N   UNL     1       0.944  10.186  18.913  0.00  0.00    +0.000 N 
ATOM     24  H   UNL     1       1.573  10.972  18.780  0.00  0.00    +0.000 HD
BRANCH  23  25
ATOM     25  C   UNL     1      -0.242  10.226  18.080  0.00  0.00    +0.000 C 
BRANCH  25  26
ATOM     26  C   UNL     1      -1.292  11.070  18.779  0.00  0.00    +0.000 A 
ATOM     27  C   UNL     1      -2.600  11.162  18.282  0.00  0.00    +0.000 A 
ATOM     28  C   UNL     1      -3.560  11.925  18.953  0.00  0.00    +0.000 A 
ATOM     29  C   UNL     1      -3.228  12.601  20.127  0.00  0.00    +0.000 A 
ATOM     30  C   UNL     1      -1.934  12.518  20.635  0.00  0.00    +0.000 A 
ATOM     31  C   UNL     1      -0.975  11.752  19.967  0.00  0.00    +0.000 A 
ENDBRANCH  25  26
ENDBRANCH  23  25
ENDBRANCH  22  23
TORSDOF 3
ENDMDL
MODEL 3
REMARK VINA RESULT:      -7.3      4.354      8.833
REMARK  Name = 
REMARK  3 active torsions:
REMARK  status: ('A' for Active; 'I' for Inactive)
REMARK    1  A    between atoms: C_22  and  N_23
REMARK    2  A    between atoms: N_23  and  C_24
REMARK    3  A    between atoms: C_24  and  C_25
REMARK                            x       y       z     vdW  Elec       q    Type
REMARK                         _______ _______ _______ _____ _____    ______ ____
ROOT
ATOM      1 CL   UNL     1      -0.427   8.014  21.432  0.00  0.00    +0.000 Cl
ATOM      2  C   UNL     1       0.268   9.379  20.652  0.00  0.00    +0.000 A 
ATOM      3  N   UNL     1      -0.210  10.553  21.095  0.00  0.00    +0.000 NA
ATOM      4  C   UNL     1       0.347  11.679  20.564  0.00  0.00    +0.000 A 
ATOM      5  C   UNL     1       0.056  12.977  20.993  0.00  0.00    +0.000 A 
ATOM      6  N   UNL     1      -0.767  13.241  22.073  0.00  0.00    +0.000 N 
ATOM      7  C   UNL     1      -0.961  14.586  22.582  0.00  0.00    +0.000 C 
ATOM      8  C   UNL     1      -1.567  14.330  23.957  0.00  0.00    +0.000 C 
ATOM      9  C   UNL     1      -2.453  13.111  23.730  0.00  0.00    +0.000 C 
ATOM     10  C   UNL     1      -1.750  12.316  22.626  0.00  0.00    +0.000 C 
ATOM     11  N   UNL     1       0.627  14.053  20.411  0.00  0.00    +0.000 NA
ATOM     12  C   UNL     1       1.493  13.884  19.410  0.00  0.00    +0.000 A 
ATOM     13  N   UNL     1       2.065  14.990  18.847  0.00  0.00    +0.000 N 
ATOM     14  C   UNL     1       2.963  14.899  17.701  0.00  0.00    +0.000 C 
ATOM     15  C   UNL     1       4.199  15.776  17.964  0.00  0.00    +0.000 C 
ATOM     16  O   UNL     1       3.832  17.131  18.285  0.00  0.00    +0.000 OA
ATOM     17  C   UNL     1       2.998  17.161  19.458  0.00  0.00    +0.000 C 
ATOM     18  C   UNL     1       1.709  16.347  19.256  0.00  0.00    +0.000 C 
ATOM     19  N   UNL     1       1.851  12.674  18.982  0.00  0.00    +0.000 NA
ATOM     20  C   UNL     1       1.318  11.604  19.553  0.00  0.00    +0.000 A 
ATOM     21  N   UNL     1       1.773  10.406  19.136  0.00  0.00    +0.000 NA
ATOM     22  C   UNL     1       1.276   9.274  19.690  0.00  0.00    +0.000 A 
ENDROOT
BRANCH  22  23
ATOM     23  N   UNL     1       1.831   8.032  19.391  0.00  0.00    +0.000 N 
ATOM     24  H   UNL     1       1.202   7.257  19.576  0.00  0.00    +0.000 HD
BRANCH  23  25
ATOM     25  C   UNL     1       2.628   7.876  18.191  0.00  0.00    +0.000 C 
BRANCH  25  26
ATOM     26  C   UNL     1       2.851   6.393  17.952  0.00  0.00    +0.000 A 
ATOM     27  C   UNL     1       1.834   5.457  18.189  0.00  0.00    +0.000 A 
ATOM     28  C   UNL     1       2.049   4.099  17.940  0.00  0.00    +0.000 A 
ATOM     29  C   UNL     1       3.279   3.659  17.449  0.00  0.00    +0.000 A 
ATOM     30  C   UNL     1       4.298   4.576  17.205  0.00  0.00    +0.000 A 
ATOM     31  C   UNL     1       4.082   5.934  17.450  0.00  0.00    +0.000 A 
ENDBRANCH  25  26
ENDBRANCH  23  25
ENDBRANCH  22  23
TORSDOF 3
ENDMDL
MODEL 4
REMARK VINA RESULT:      -7.3      4.411      8.754
REMARK  Name = 
REMARK  3 active torsions:
REMARK  status: ('A' for Active; 'I' for Inactive)
REMARK    1  A    between atoms: C_22  and  N_23
REMARK    2  A    between atoms: N_23  and  C_24
REMARK    3  A    between atoms: C_24  and  C_25
REMARK                            x       y       z     vdW  Elec       q    Type
REMARK                         _______ _______ _______ _____ _____    ______ ____
ROOT
ATOM      1 CL   UNL     1      -0.499   8.088  21.092  0.00  0.00    +0.000 Cl
ATOM      2  C   UNL     1       0.253   9.461  20.384  0.00  0.00    +0.000 A 
ATOM      3  N   UNL     1      -0.164  10.629  20.898  0.00  0.00    +0.000 NA
ATOM      4  C   UNL     1       0.441  11.756  20.426  0.00  0.00    +0.000 A 
ATOM      5  C   UNL     1       0.216  13.039  20.931  0.00  0.00    +0.000 A 
ATOM      6  N   UNL     1      -0.584  13.279  22.034  0.00  0.00    +0.000 N 
ATOM      7  C   UNL     1      -0.710  14.600  22.622  0.00  0.00    +0.000 C 
ATOM      8  C   UNL     1      -1.314  14.295  23.986  0.00  0.00    +0.000 C 
ATOM      9  C   UNL     1      -2.260  13.133  23.701  0.00  0.00    +0.000 C 
ATOM     10  C   UNL     1      -1.605  12.371  22.545  0.00  0.00    +0.000 C 
ATOM     11  N   UNL     1       0.832  14.119  20.405  0.00  0.00    +0.000 NA
ATOM     12  C   UNL     1       1.680  13.967  19.386  0.00  0.00    +0.000 A 
ATOM     13  N   UNL     1       2.299  15.076  18.881  0.00  0.00    +0.000 N 
ATOM     14  C   UNL     1       3.181  15.009  17.720  0.00  0.00    +0.000 C 
ATOM     15  C   UNL     1       4.460  15.811  18.019  0.00  0.00    +0.000 C 
ATOM     16  O   UNL     1       4.161  17.160  18.421  0.00  0.00    +0.000 OA
ATOM     17  C   UNL     1       3.339  17.162  19.603  0.00  0.00    +0.000 C 
ATOM     18  C   UNL     1       2.011  16.423  19.370  0.00  0.00    +0.000 C 
ATOM     19  N   UNL     1       1.976  12.769  18.886  0.00  0.00    +0.000 NA
ATOM     20  C   UNL     1       1.398  11.694  19.401  0.00  0.00    +0.000 A 
ATOM     21  N   UNL     1       1.792  10.501  18.911  0.00  0.00    +0.000 NA
ATOM     22  C   UNL     1       1.247   9.365  19.405  0.00  0.00    +0.000 A 
ENDROOT
BRANCH  22  23
ATOM     23  N   UNL     1       1.739   8.117  19.029  0.00  0.00    +0.000 N 
ATOM     24  H   UNL     1       2.268   8.140  18.162  0.00  0.00    +0.000 HD
BRANCH  23  25
ATOM     25  C   UNL     1       2.289   7.232  20.036  0.00  0.00    +0.000 C 
BRANCH  25  26
ATOM     26  C   UNL     1       1.964   5.801  19.646  0.00  0.00    +0.000 A 
ATOM     27  C   UNL     1       1.421   4.900  20.573  0.00  0.00    +0.000 A 
ATOM     28  C   UNL     1       1.105   3.593  20.189  0.00  0.00    +0.000 A 
ATOM     29  C   UNL     1       1.325   3.172  18.877  0.00  0.00    +0.000 A 
ATOM     30  C   UNL     1       1.861   4.055  17.945  0.00  0.00    +0.000 A 
ATOM     31  C   UNL     1       2.173   5.363  18.327  0.00  0.00    +0.000 A 
ENDBRANCH  25  26
ENDBRANCH  23  25
ENDBRANCH  22  23
TORSDOF 3
ENDMDL
MODEL 5
REMARK VINA RESULT:      -7.3      4.996     10.469
REMARK  Name = 
REMARK  3 active torsions:
REMARK  status: ('A' for Active; 'I' for Inactive)
REMARK    1  A    between atoms: C_22  and  N_23
REMARK    2  A    between atoms: N_23  and  C_24
REMARK    3  A    between atoms: C_24  and  C_25
REMARK                            x       y       z     vdW  Elec       q    Type
REMARK                         _______ _______ _______ _____ _____    ______ ____
ROOT
ATOM      1 CL   UNL     1      -2.187   9.647  16.501  0.00  0.00    +0.000 Cl
ATOM      2  C   UNL     1      -1.944  10.741  17.805  0.00  0.00    +0.000 A 
ATOM      3  N   UNL     1      -3.075  11.323  18.236  0.00  0.00    +0.000 NA
ATOM      4  C   UNL     1      -2.963  12.153  19.312  0.00  0.00    +0.000 A 
ATOM      5  C   UNL     1      -4.048  12.746  19.963  0.00  0.00    +0.000 A 
ATOM      6  N   UNL     1      -5.362  12.471  19.630  0.00  0.00    +0.000 N 
ATOM      7  C   UNL     1      -6.477  12.999  20.395  0.00  0.00    +0.000 C 
ATOM      8  C   UNL     1      -7.634  12.122  19.932  0.00  0.00    +0.000 C 
ATOM      9  C   UNL     1      -7.335  11.893  18.456  0.00  0.00    +0.000 C 
ATOM     10  C   UNL     1      -5.806  11.913  18.358  0.00  0.00    +0.000 C 
ATOM     11  N   UNL     1      -3.868  13.576  21.013  0.00  0.00    +0.000 NA
ATOM     12  C   UNL     1      -2.634  13.837  21.449  0.00  0.00    +0.000 A 
ATOM     13  N   UNL     1      -2.482  14.670  22.521  0.00  0.00    +0.000 N 
ATOM     14  C   UNL     1      -1.168  15.067  23.013  0.00  0.00    +0.000 C 
ATOM     15  C   UNL     1      -1.146  14.928  24.545  0.00  0.00    +0.000 C 
ATOM     16  O   UNL     1      -2.221  15.660  25.162  0.00  0.00    +0.000 OA
ATOM     17  C   UNL     1      -3.492  15.185  24.682  0.00  0.00    +0.000 C 
ATOM     18  C   UNL     1      -3.615  15.339  23.157  0.00  0.00    +0.000 C 
ATOM     19  N   UNL     1      -1.558  13.269  20.906  0.00  0.00    +0.000 NA
ATOM     20  C   UNL     1      -1.713  12.435  19.888  0.00  0.00    +0.000 A 
ATOM     21  N   UNL     1      -0.601  11.830  19.427  0.00  0.00    +0.000 NA
ATOM     22  C   UNL     1      -0.696  10.957  18.395  0.00  0.00    +0.000 A 
ENDROOT
BRANCH  22  23
ATOM     23  N   UNL     1       0.406  10.204  17.997  0.00  0.00    +0.000 N 
ATOM     24  H   UNL     1       0.651  10.338  17.020  0.00  0.00    +0.000 HD
BRANCH  23  25
ATOM     25  C   UNL     1       1.545  10.079  18.884  0.00  0.00    +0.000 C 
BRANCH  25  26
ATOM     26  C   UNL     1       1.848   8.604  19.072  0.00  0.00    +0.000 A 
ATOM     27  C   UNL     1       1.655   7.974  20.310  0.00  0.00    +0.000 A 
ATOM     28  C   UNL     1       1.916   6.608  20.458  0.00  0.00    +0.000 A 
ATOM     29  C   UNL     1       2.368   5.856  19.374  0.00  0.00    +0.000 A 
ATOM     30  C   UNL     1       2.562   6.466  18.137  0.00  0.00    +0.000 A 
ATOM     31  C   UNL     1       2.297   7.830  17.988  0.00  0.00    +0.000 A 
ENDBRANCH  25  26
ENDBRANCH  23  25
ENDBRANCH  22  23
TORSDOF 3
ENDMDL
MODEL 6
REMARK VINA RESULT:      -7.3      4.160      8.840
REMARK  Name = 
REMARK  3 active torsions:
REMARK  status: ('A' for Active; 'I' for Inactive)
REMARK    1  A    between atoms: C_22  and  N_23
REMARK    2  A    between atoms: N_23  and  C_24
REMARK    3  A    between atoms: C_24  and  C_25
REMARK                            x       y       z     vdW  Elec       q    Type
REMARK                         _______ _______ _______ _____ _____    ______ ____
ROOT
ATOM      1 CL   UNL     1      -0.718   8.090  21.832  0.00  0.00    +0.000 Cl
ATOM      2  C   UNL     1       0.043   9.385  20.998  0.00  0.00    +0.000 A 
ATOM      3  N   UNL     1      -0.611  10.553  21.105  0.00  0.00    +0.000 NA
ATOM      4  C   UNL     1      -0.027  11.638  20.522  0.00  0.00    +0.000 A 
ATOM      5  C   UNL     1      -0.505  12.945  20.636  0.00  0.00    +0.000 A 
ATOM      6  N   UNL     1      -1.580  13.281  21.439  0.00  0.00    +0.000 N 
ATOM      7  C   UNL     1      -1.988  14.659  21.644  0.00  0.00    +0.000 C 
ATOM      8  C   UNL     1      -2.886  14.555  22.871  0.00  0.00    +0.000 C 
ATOM      9  C   UNL     1      -3.601  13.223  22.672  0.00  0.00    +0.000 C 
ATOM     10  C   UNL     1      -2.597  12.350  21.913  0.00  0.00    +0.000 C 
ATOM     11  N   UNL     1       0.109  13.975  20.015  0.00  0.00    +0.000 NA
ATOM     12  C   UNL     1       1.200  13.750  19.280  0.00  0.00    +0.000 A 
ATOM     13  N   UNL     1       1.809  14.812  18.672  0.00  0.00    +0.000 N 
ATOM     14  C   UNL     1       2.959  14.645  17.791  0.00  0.00    +0.000 C 
ATOM     15  C   UNL     1       4.030  15.685  18.164  0.00  0.00    +0.000 C 
ATOM     16  O   UNL     1       3.499  17.023  18.148  0.00  0.00    +0.000 OA
ATOM     17  C   UNL     1       2.408  17.142  19.079  0.00  0.00    +0.000 C 
ATOM     18  C   UNL     1       1.267  16.167  18.742  0.00  0.00    +0.000 C 
ATOM     19  N   UNL     1       1.737  12.536  19.166  0.00  0.00    +0.000 NA
ATOM     20  C   UNL     1       1.162  11.515  19.784  0.00  0.00    +0.000 A 
ATOM     21  N   UNL     1       1.789  10.325  19.700  0.00  0.00    +0.000 NA
ATOM     22  C   UNL     1       1.257   9.246  20.320  0.00  0.00    +0.000 A 
ENDROOT
BRANCH  22  23
ATOM     23  N   UNL     1       1.956   8.043  20.379  0.00  0.00    +0.000 N 
ATOM     24  H   UNL     1       1.582   7.394  21.065  0.00  0.00    +0.000 HD
BRANCH  23  25
ATOM     25  C   UNL     1       2.405   7.415  19.152  0.00  0.00    +0.000 C 
BRANCH  25  26
ATOM     26  C   UNL     1       2.005   5.951  19.188  0.00  0.00    +0.000 A 
ATOM     27  C   UNL     1       2.080   5.148  18.040  0.00  0.00    +0.000 A 
ATOM     28  C   UNL     1       1.731   3.796  18.099  0.00  0.00    +0.000 A 
ATOM     29  C   UNL     1       1.308   3.229  19.300  0.00  0.00    +0.000 A 
ATOM     30  C   UNL     1       1.231   4.011  20.449  0.00  0.00    +0.000 A 
ATOM     31  C   UNL     1       1.583   5.362  20.393  0.00  0.00    +0.000 A 
ENDBRANCH  25  26
ENDBRANCH  23  25
ENDBRANCH  22  23
TORSDOF 3
ENDMDL
MODEL 7
REMARK VINA RESULT:      -7.2      4.688      9.396
REMARK  Name = 
REMARK  3 active torsions:
REMARK  status: ('A' for Active; 'I' for Inactive)
REMARK    1  A    between atoms: C_22  and  N_23
REMARK    2  A    between atoms: N_23  and  C_24
REMARK    3  A    between atoms: C_24  and  C_25
REMARK                            x       y       z     vdW  Elec       q    Type
REMARK                         _______ _______ _______ _____ _____    ______ ____
ROOT
ATOM      1 CL   UNL     1      -0.664   8.228  21.497  0.00  0.00    +0.000 Cl
ATOM      2  C   UNL     1      -0.159   9.742  20.859  0.00  0.00    +0.000 A 
ATOM      3  N   UNL     1      -0.827  10.790  21.369  0.00  0.00    +0.000 NA
ATOM      4  C   UNL     1      -0.431  12.028  20.955  0.00  0.00    +0.000 A 
ATOM      5  C   UNL     1      -0.932  13.226  21.469  0.00  0.00    +0.000 A 
ATOM      6  N   UNL     1      -1.822  13.272  22.526  0.00  0.00    +0.000 N 
ATOM      7  C   UNL     1      -2.238  14.526  23.129  0.00  0.00    +0.000 C 
ATOM      8  C   UNL     1      -2.845  14.067  24.449  0.00  0.00    +0.000 C 
ATOM      9  C   UNL     1      -3.525  12.753  24.087  0.00  0.00    +0.000 C 
ATOM     10  C   UNL     1      -2.671  12.168  22.958  0.00  0.00    +0.000 C 
ATOM     11  N   UNL     1      -0.512  14.421  21.000  0.00  0.00    +0.000 NA
ATOM     12  C   UNL     1       0.404  14.469  20.031  0.00  0.00    +0.000 A 
ATOM     13  N   UNL     1       0.820  15.691  19.584  0.00  0.00    +0.000 N 
ATOM     14  C   UNL     1       1.760  15.833  18.478  0.00  0.00    +0.000 C 
ATOM     15  C   UNL     1       2.837  16.860  18.866  0.00  0.00    +0.000 C 
ATOM     16  O   UNL     1       2.257  18.113  19.275  0.00  0.00    +0.000 OA
ATOM     17  C   UNL     1       1.387  17.918  20.405  0.00  0.00    +0.000 C 
ATOM     18  C   UNL     1       0.246  16.941  20.080  0.00  0.00    +0.000 C 
ATOM     19  N   UNL     1       0.958  13.367  19.528  0.00  0.00    +0.000 NA
ATOM     20  C   UNL     1       0.576  12.184  19.988  0.00  0.00    +0.000 A 
ATOM     21  N   UNL     1       1.223  11.107  19.501  0.00  0.00    +0.000 NA
ATOM     22  C   UNL     1       0.886   9.872  19.941  0.00  0.00    +0.000 A 
ENDROOT
BRANCH  22  23
ATOM     23  N   UNL     1       1.634   8.756  19.572  0.00  0.00    +0.000 N 
ATOM     24  H   UNL     1       1.236   7.881  19.896  0.00  0.00    +0.000 HD
BRANCH  23  25
ATOM     25  C   UNL     1       2.212   8.690  18.244  0.00  0.00    +0.000 C 
BRANCH  25  26
ATOM     26  C   UNL     1       2.830   7.316  18.058  0.00  0.00    +0.000 A 
ATOM     27  C   UNL     1       2.209   6.164  18.562  0.00  0.00    +0.000 A 
ATOM     28  C   UNL     1       2.782   4.905  18.359  0.00  0.00    +0.000 A 
ATOM     29  C   UNL     1       3.976   4.780  17.650  0.00  0.00    +0.000 A 
ATOM     30  C   UNL     1       4.604   5.914  17.141  0.00  0.00    +0.000 A 
ATOM     31  C   UNL     1       4.030   7.172  17.339  0.00  0.00    +0.000 A 
ENDBRANCH  25  26
ENDBRANCH  23  25
ENDBRANCH  22  23
TORSDOF 3
ENDMDL
MODEL 8
REMARK VINA RESULT:      -7.2      5.254     10.871
REMARK  Name = 
REMARK  3 active torsions:
REMARK  status: ('A' for Active; 'I' for Inactive)
REMARK    1  A    between atoms: C_22  and  N_23
REMARK    2  A    between atoms: N_23  and  C_24
REMARK    3  A    between atoms: C_24  and  C_25
REMARK                            x       y       z     vdW  Elec       q    Type
REMARK                         _______ _______ _______ _____ _____    ______ ____
ROOT
ATOM      1 CL   UNL     1      -1.331   9.694  17.407  0.00  0.00    +0.000 Cl
ATOM      2  C   UNL     1      -1.425  10.905  18.622  0.00  0.00    +0.000 A 
ATOM      3  N   UNL     1      -2.635  11.479  18.717  0.00  0.00    +0.000 NA
ATOM      4  C   UNL     1      -2.797  12.403  19.707  0.00  0.00    +0.000 A 
ATOM      5  C   UNL     1      -4.016  13.009  20.024  0.00  0.00    +0.000 A 
ATOM      6  N   UNL     1      -5.207  12.657  19.416  0.00  0.00    +0.000 N 
ATOM      7  C   UNL     1      -6.481  13.206  19.843  0.00  0.00    +0.000 C 
ATOM      8  C   UNL     1      -7.480  12.249  19.204  0.00  0.00    +0.000 C 
ATOM      9  C   UNL     1      -6.833  11.904  17.868  0.00  0.00    +0.000 C 
ATOM     10  C   UNL     1      -5.326  11.973  18.134  0.00  0.00    +0.000 C 
ATOM     11  N   UNL     1      -4.106  13.934  21.004  0.00  0.00    +0.000 NA
ATOM     12  C   UNL     1      -3.017  14.278  21.693  0.00  0.00    +0.000 A 
ATOM     13  N   UNL     1      -3.138  15.207  22.688  0.00  0.00    +0.000 N 
ATOM     14  C   UNL     1      -1.986  15.695  23.438  0.00  0.00    +0.000 C 
ATOM     15  C   UNL     1      -2.329  15.691  24.937  0.00  0.00    +0.000 C 
ATOM     16  O   UNL     1      -3.533  16.432  25.211  0.00  0.00    +0.000 OA
ATOM     17  C   UNL     1      -4.644  15.869  24.490  0.00  0.00    +0.000 C 
ATOM     18  C   UNL     1      -4.402  15.885  22.972  0.00  0.00    +0.000 C 
ATOM     19  N   UNL     1      -1.833  13.707  21.475  0.00  0.00    +0.000 NA
ATOM     20  C   UNL     1      -1.726  12.782  20.532  0.00  0.00    +0.000 A 
ATOM     21  N   UNL     1      -0.527  12.181  20.406  0.00  0.00    +0.000 NA
ATOM     22  C   UNL     1      -0.358  11.219  19.468  0.00  0.00    +0.000 A 
ENDROOT
BRANCH  22  23
ATOM     23  N   UNL     1       0.819  10.477  19.414  0.00  0.00    +0.000 N 
ATOM     24  H   UNL     1       1.656  11.052  19.391  0.00  0.00    +0.000 HD
BRANCH  23  25
ATOM     25  C   UNL     1       0.947   9.278  20.218  0.00  0.00    +0.000 C 
BRANCH  25  26
ATOM     26  C   UNL     1       1.817   8.286  19.468  0.00  0.00    +0.000 A 
ATOM     27  C   UNL     1       2.144   7.040  20.021  0.00  0.00    +0.000 A 
ATOM     28  C   UNL     1       2.927   6.130  19.304  0.00  0.00    +0.000 A 
ATOM     29  C   UNL     1       3.389   6.451  18.028  0.00  0.00    +0.000 A 
ATOM     30  C   UNL     1       3.072   7.683  17.464  0.00  0.00    +0.000 A 
ATOM     31  C   UNL     1       2.286   8.592  18.178  0.00  0.00    +0.000 A 
ENDBRANCH  25  26
ENDBRANCH  23  25
ENDBRANCH  22  23
TORSDOF 3
ENDMDL
MODEL 9
REMARK VINA RESULT:      -7.2      4.271      9.790
REMARK  Name = 
REMARK  3 active torsions:
REMARK  status: ('A' for Active; 'I' for Inactive)
REMARK    1  A    between atoms: C_22  and  N_23
REMARK    2  A    between atoms: N_23  and  C_24
REMARK    3  A    between atoms: C_24  and  C_25
REMARK                            x       y       z     vdW  Elec       q    Type
REMARK                         _______ _______ _______ _____ _____    ______ ____
ROOT
ATOM      1 CL   UNL     1       1.474   8.341  17.619  0.00  0.00    +0.000 Cl
ATOM      2  C   UNL     1       0.669   9.290  18.804  0.00  0.00    +0.000 A 
ATOM      3  N   UNL     1      -0.380   9.976  18.322  0.00  0.00    +0.000 NA
ATOM      4  C   UNL     1      -1.104  10.698  19.224  0.00  0.00    +0.000 A 
ATOM      5  C   UNL     1      -2.290  11.372  18.920  0.00  0.00    +0.000 A 
ATOM      6  N   UNL     1      -2.898  11.293  17.680  0.00  0.00    +0.000 N 
ATOM      7  C   UNL     1      -4.192  11.897  17.417  0.00  0.00    +0.000 C 
ATOM      8  C   UNL     1      -4.615  11.213  16.124  0.00  0.00    +0.000 C 
ATOM      9  C   UNL     1      -3.305  11.063  15.359  0.00  0.00    +0.000 C 
ATOM     10  C   UNL     1      -2.236  10.896  16.443  0.00  0.00    +0.000 C 
ATOM     11  N   UNL     1      -2.950  12.089  19.855  0.00  0.00    +0.000 NA
ATOM     12  C   UNL     1      -2.472  12.155  21.098  0.00  0.00    +0.000 A 
ATOM     13  N   UNL     1      -3.166  12.877  22.028  0.00  0.00    +0.000 N 
ATOM     14  C   UNL     1      -2.675  13.064  23.389  0.00  0.00    +0.000 C 
ATOM     15  C   UNL     1      -3.827  12.805  24.375  0.00  0.00    +0.000 C 
ATOM     16  O   UNL     1      -4.977  13.618  24.076  0.00  0.00    +0.000 OA
ATOM     17  C   UNL     1      -5.452  13.346  22.744  0.00  0.00    +0.000 C 
ATOM     18  C   UNL     1      -4.371  13.633  21.689  0.00  0.00    +0.000 C 
ATOM     19  N   UNL     1      -1.373  11.500  21.469  0.00  0.00    +0.000 NA
ATOM     20  C   UNL     1      -0.721  10.774  20.573  0.00  0.00    +0.000 A 
ATOM     21  N   UNL     1       0.338  10.070  21.018  0.00  0.00    +0.000 NA
ATOM     22  C   UNL     1       1.038   9.299  20.152  0.00  0.00    +0.000 A 
ENDROOT
BRANCH  22  23
ATOM     23  N   UNL     1       2.040   8.446  20.609  0.00  0.00    +0.000 N 
ATOM     24  H   UNL     1       2.830   8.937  21.018  0.00  0.00    +0.000 HD
BRANCH  23  25
ATOM     25  C   UNL     1       1.678   7.224  21.299  0.00  0.00    +0.000 C 
BRANCH  25  26
ATOM     26  C   UNL     1       1.990   6.049  20.391  0.00  0.00    +0.000 A 
ATOM     27  C   UNL     1       3.069   6.087  19.495  0.00  0.00    +0.000 A 
ATOM     28  C   UNL     1       3.355   4.985  18.684  0.00  0.00    +0.000 A 
ATOM     29  C   UNL     1       2.572   3.833  18.758  0.00  0.00    +0.000 A 
ATOM     30  C   UNL     1       1.499   3.778  19.644  0.00  0.00    +0.000 A 
ATOM     31  C   UNL     1       1.215   4.877  20.458  0.00  0.00    +0.000 A 
ENDBRANCH  25  26
ENDBRANCH  23  25
ENDBRANCH  22  23
TORSDOF 3
ENDMDL
