MODEL 1
REMARK VINA RESULT:      -8.8      0.000      0.000
REMARK  Name = 
REMARK  7 active torsions:
REMARK  status: ('A' for Active; 'I' for Inactive)
REMARK    1  A    between atoms: C_1  and  C_2
REMARK    2  A    between atoms: C_2  and  C_3
REMARK    3  A    between atoms: C_2  and  C_4
REMARK    4  A    between atoms: C_2  and  N_18
REMARK    5  A    between atoms: N_6  and  C_7
REMARK    6  A    between atoms: C_14  and  O_15
REMARK    7  A    between atoms: C_25  and  C_26
REMARK                            x       y       z     vdW  Elec       q    Type
REMARK                         _______ _______ _______ _____ _____    ______ ____
ROOT
ATOM      1  C   UNL     1      -0.188   8.031  21.494  0.00  0.00    +0.000 C 
ATOM      2  C   UNL     1       0.931   8.719  20.669  0.00  0.00    +0.000 C 
ATOM      3  C   UNL     1       1.803   9.507  21.674  0.00  0.00    +0.000 C 
ENDROOT
BRANCH   2   4
ATOM      4  N   UNL     1       0.245   9.515  19.593  0.00  0.00    +0.000 NA
ATOM      5  C   UNL     1      -0.661  10.602  20.062  0.00  0.00    +0.000 C 
ATOM      6  C   UNL     1       0.011  11.898  20.557  0.00  0.00    +0.000 C 
ATOM      7  N   UNL     1       1.008  12.380  19.596  0.00  0.00    +0.000 N 
ATOM      8  C   UNL     1       0.927  13.702  19.204  0.00  0.00    +0.000 A 
ATOM      9  C   UNL     1       2.014  14.367  18.646  0.00  0.00    +0.000 A 
ATOM     10  C   UNL     1       1.894  15.712  18.277  0.00  0.00    +0.000 A 
ATOM     11  C   UNL     1       0.682  16.371  18.465  0.00  0.00    +0.000 A 
ATOM     12  C   UNL     1      -0.354  15.637  19.007  0.00  0.00    +0.000 A 
ATOM     13  N   UNL     1      -0.253  14.344  19.372  0.00  0.00    +0.000 NA
ATOM     14  C   UNL     1       1.881  11.411  18.941  0.00  0.00    +0.000 C 
ATOM     15  C   UNL     1       1.115  10.123  18.560  0.00  0.00    +0.000 C 
BRANCH  11  16
ATOM     16  C   UNL     1       0.462  17.809  18.131  0.00  0.00    +0.000 C 
ATOM     17  F   UNL     1       0.528  18.631  19.214  0.00  0.00    +0.000 F 
ATOM     18  F   UNL     1       1.382  18.284  17.245  0.00  0.00    +0.000 F 
ATOM     19  F   UNL     1      -0.752  18.030  17.562  0.00  0.00    +0.000 F 
ENDBRANCH  11  16
ENDBRANCH   2   4
BRANCH   2  20
ATOM     20  C   UNL     1       1.844   7.571  20.050  0.00  0.00    +0.000 C 
ATOM     21  O   UNL     1       2.579   7.767  19.083  0.00  0.00    +0.000 OA
ATOM     22  N   UNL     1       1.779   6.329  20.647  0.00  0.00    +0.000 N 
ATOM     23  H   UNL     1       1.283   6.296  21.531  0.00  0.00    +0.000 HD
BRANCH  22  24
ATOM     24  C   UNL     1       2.679   5.209  20.310  0.00  0.00    +0.000 C 
ATOM     25  C   UNL     1       2.163   3.897  20.953  0.00  0.00    +0.000 C 
ATOM     26  C   UNL     1       0.845   3.468  20.275  0.00  0.00    +0.000 C 
ATOM     27  C   UNL     1       1.071   3.205  18.778  0.00  0.00    +0.000 C 
ATOM     28  C   UNL     1       1.594   4.488  18.110  0.00  0.00    +0.000 C 
ATOM     29  C   UNL     1       2.899   4.948  18.784  0.00  0.00    +0.000 C 
ATOM     30  C   UNL     1       3.938   3.814  18.596  0.00  0.00    +0.000 C 
ATOM     31  C   UNL     1       3.440   2.520  19.266  0.00  0.00    +0.000 C 
ATOM     32  C   UNL     1       2.111   2.086  18.625  0.00  0.00    +0.000 C 
ATOM     33  C   UNL     1       3.218   2.793  20.762  0.00  0.00    +0.000 C 
BRANCH  31  34
ATOM     34  O   UNL     1       4.413   1.487  19.133  0.00  0.00    +0.000 OA
ATOM     35  H   UNL     1       3.965   0.628  19.217  0.00  0.00    +0.000 HD
ENDBRANCH  31  34
ENDBRANCH  22  24
ENDBRANCH   2  20
TORSDOF 5
ENDMDL
MODEL 2
REMARK VINA RESULT:      -8.3      3.174      4.159
REMARK  Name = 
REMARK  7 active torsions:
REMARK  status: ('A' for Active; 'I' for Inactive)
REMARK    1  A    between atoms: C_1  and  C_2
REMARK    2  A    between atoms: C_2  and  C_3
REMARK    3  A    between atoms: C_2  and  C_4
REMARK    4  A    between atoms: C_2  and  N_18
REMARK    5  A    between atoms: N_6  and  C_7
REMARK    6  A    between atoms: C_14  and  O_15
REMARK    7  A    between atoms: C_25  and  C_26
REMARK                            x       y       z     vdW  Elec       q    Type
REMARK                         _______ _______ _______ _____ _____    ______ ____
ROOT
ATOM      1  C   UNL     1       2.187  10.729  18.194  0.00  0.00    +0.000 C 
ATOM      2  C   UNL     1       1.398   9.484  18.679  0.00  0.00    +0.000 C 
ATOM      3  C   UNL     1       0.092   9.437  17.852  0.00  0.00    +0.000 C 
ENDROOT
BRANCH   2   4
ATOM      4  N   UNL     1       1.255   9.619  20.170  0.00  0.00    +0.000 NA
ATOM      5  C   UNL     1       1.651  10.935  20.748  0.00  0.00    +0.000 C 
ATOM      6  C   UNL     1       0.653  12.096  20.573  0.00  0.00    +0.000 C 
ATOM      7  N   UNL     1      -0.700  11.698  20.972  0.00  0.00    +0.000 N 
ATOM      8  C   UNL     1      -1.369  12.518  21.859  0.00  0.00    +0.000 A 
ATOM      9  C   UNL     1      -2.754  12.481  21.988  0.00  0.00    +0.000 A 
ATOM     10  C   UNL     1      -3.394  13.340  22.888  0.00  0.00    +0.000 A 
ATOM     11  C   UNL     1      -2.635  14.221  23.655  0.00  0.00    +0.000 A 
ATOM     12  C   UNL     1      -1.266  14.185  23.483  0.00  0.00    +0.000 A 
ATOM     13  N   UNL     1      -0.636  13.367  22.617  0.00  0.00    +0.000 NA
ATOM     14  C   UNL     1      -1.183  10.373  20.599  0.00  0.00    +0.000 C 
ATOM     15  C   UNL     1      -0.074   9.304  20.740  0.00  0.00    +0.000 C 
BRANCH  11  16
ATOM     16  C   UNL     1      -3.225  15.195  24.620  0.00  0.00    +0.000 C 
ATOM     17  F   UNL     1      -4.575  15.321  24.504  0.00  0.00    +0.000 F 
ATOM     18  F   UNL     1      -2.992  14.848  25.918  0.00  0.00    +0.000 F 
ATOM     19  F   UNL     1      -2.715  16.446  24.472  0.00  0.00    +0.000 F 
ENDBRANCH  11  16
ENDBRANCH   2   4
BRANCH   2  20
ATOM     20  C   UNL     1       2.249   8.196  18.290  0.00  0.00    +0.000 C 
ATOM     21  O   UNL     1       2.983   8.169  17.303  0.00  0.00    +0.000 OA
ATOM     22  N   UNL     1       2.132   7.097  19.114  0.00  0.00    +0.000 N 
ATOM     23  H   UNL     1       1.644   7.257  19.988  0.00  0.00    +0.000 HD
BRANCH  22  24
ATOM     24  C   UNL     1       2.975   5.891  18.996  0.00  0.00    +0.000 C 
ATOM     25  C   UNL     1       2.763   4.969  20.224  0.00  0.00    +0.000 C 
ATOM     26  C   UNL     1       1.340   4.373  20.187  0.00  0.00    +0.000 C 
ATOM     27  C   UNL     1       1.143   3.527  18.919  0.00  0.00    +0.000 C 
ATOM     28  C   UNL     1       1.358   4.413  17.680  0.00  0.00    +0.000 C 
ATOM     29  C   UNL     1       2.765   5.036  17.705  0.00  0.00    +0.000 C 
ATOM     30  C   UNL     1       3.785   3.869  17.682  0.00  0.00    +0.000 C 
ATOM     31  C   UNL     1       3.596   2.974  18.921  0.00  0.00    +0.000 C 
ATOM     32  C   UNL     1       2.173   2.389  18.921  0.00  0.00    +0.000 C 
ATOM     33  C   UNL     1       3.795   3.828  20.183  0.00  0.00    +0.000 C 
BRANCH  31  34
ATOM     34  O   UNL     1       4.561   1.925  18.926  0.00  0.00    +0.000 OA
ATOM     35  H   UNL     1       4.426   1.377  18.133  0.00  0.00    +0.000 HD
ENDBRANCH  31  34
ENDBRANCH  22  24
ENDBRANCH   2  20
TORSDOF 5
ENDMDL
MODEL 3
REMARK VINA RESULT:      -8.2      6.034     10.633
REMARK  Name = 
REMARK  7 active torsions:
REMARK  status: ('A' for Active; 'I' for Inactive)
REMARK    1  A    between atoms: C_1  and  C_2
REMARK    2  A    between atoms: C_2  and  C_3
REMARK    3  A    between atoms: C_2  and  C_4
REMARK    4  A    between atoms: C_2  and  N_18
REMARK    5  A    between atoms: N_6  and  C_7
REMARK    6  A    between atoms: C_14  and  O_15
REMARK    7  A    between atoms: C_25  and  C_26
REMARK                            x       y       z     vdW  Elec       q    Type
REMARK                         _______ _______ _______ _____ _____    ______ ____
ROOT
ATOM      1  C   UNL     1      -0.409  12.911  18.417  0.00  0.00    +0.000 C 
ATOM      2  C   UNL     1       0.247  11.924  19.418  0.00  0.00    +0.000 C 
ATOM      3  C   UNL     1       1.776  12.110  19.286  0.00  0.00    +0.000 C 
ENDROOT
BRANCH   2   4
ATOM      4  N   UNL     1      -0.304  10.560  19.103  0.00  0.00    +0.000 NA
ATOM      5  C   UNL     1       0.285   9.877  17.916  0.00  0.00    +0.000 C 
ATOM      6  C   UNL     1       1.678   9.244  18.102  0.00  0.00    +0.000 C 
ATOM      7  N   UNL     1       1.726   8.408  19.306  0.00  0.00    +0.000 N 
ATOM      8  C   UNL     1       2.211   7.123  19.170  0.00  0.00    +0.000 A 
ATOM      9  C   UNL     1       2.681   6.399  20.261  0.00  0.00    +0.000 A 
ATOM     10  C   UNL     1       3.180   5.105  20.076  0.00  0.00    +0.000 A 
ATOM     11  C   UNL     1       3.193   4.548  18.799  0.00  0.00    +0.000 A 
ATOM     12  C   UNL     1       2.692   5.323  17.772  0.00  0.00    +0.000 A 
ATOM     13  N   UNL     1       2.214   6.572  17.933  0.00  0.00    +0.000 NA
ATOM     14  C   UNL     1       1.066   8.883  20.518  0.00  0.00    +0.000 C 
ATOM     15  C   UNL     1      -0.283   9.567  20.201  0.00  0.00    +0.000 C 
BRANCH  11  16
ATOM     16  C   UNL     1       3.729   3.189  18.496  0.00  0.00    +0.000 C 
ATOM     17  F   UNL     1       4.157   2.518  19.600  0.00  0.00    +0.000 F 
ATOM     18  F   UNL     1       2.802   2.384  17.904  0.00  0.00    +0.000 F 
ATOM     19  F   UNL     1       4.787   3.228  17.644  0.00  0.00    +0.000 F 
ENDBRANCH  11  16
ENDBRANCH   2   4
BRANCH   2  20
ATOM     20  C   UNL     1      -0.161  12.390  20.885  0.00  0.00    +0.000 C 
ATOM     21  O   UNL     1       0.669  12.532  21.783  0.00  0.00    +0.000 OA
ATOM     22  N   UNL     1      -1.499  12.633  21.115  0.00  0.00    +0.000 N 
ATOM     23  H   UNL     1      -2.086  12.656  20.289  0.00  0.00    +0.000 HD
BRANCH  22  24
ATOM     24  C   UNL     1      -2.021  13.232  22.359  0.00  0.00    +0.000 C 
ATOM     25  C   UNL     1      -2.206  14.761  22.180  0.00  0.00    +0.000 C 
ATOM     26  C   UNL     1      -3.354  15.032  21.184  0.00  0.00    +0.000 C 
ATOM     27  C   UNL     1      -4.674  14.454  21.714  0.00  0.00    +0.000 C 
ATOM     28  C   UNL     1      -4.520  12.936  21.914  0.00  0.00    +0.000 C 
ATOM     29  C   UNL     1      -3.367  12.640  22.889  0.00  0.00    +0.000 C 
ATOM     30  C   UNL     1      -3.728  13.299  24.244  0.00  0.00    +0.000 C 
ATOM     31  C   UNL     1      -3.877  14.822  24.070  0.00  0.00    +0.000 C 
ATOM     32  C   UNL     1      -4.998  15.118  23.060  0.00  0.00    +0.000 C 
ATOM     33  C   UNL     1      -2.552  15.391  23.540  0.00  0.00    +0.000 C 
BRANCH  31  34
ATOM     34  O   UNL     1      -4.166  15.437  25.323  0.00  0.00    +0.000 OA
ATOM     35  H   UNL     1      -5.121  15.620  25.364  0.00  0.00    +0.000 HD
ENDBRANCH  31  34
ENDBRANCH  22  24
ENDBRANCH   2  20
TORSDOF 5
ENDMDL
MODEL 4
REMARK VINA RESULT:      -8.1      3.372      4.318
REMARK  Name = 
REMARK  7 active torsions:
REMARK  status: ('A' for Active; 'I' for Inactive)
REMARK    1  A    between atoms: C_1  and  C_2
REMARK    2  A    between atoms: C_2  and  C_3
REMARK    3  A    between atoms: C_2  and  C_4
REMARK    4  A    between atoms: C_2  and  N_18
REMARK    5  A    between atoms: N_6  and  C_7
REMARK    6  A    between atoms: C_14  and  O_15
REMARK    7  A    between atoms: C_25  and  C_26
REMARK                            x       y       z     vdW  Elec       q    Type
REMARK                         _______ _______ _______ _____ _____    ______ ____
ROOT
ATOM      1  C   UNL     1       1.801   9.642  17.834  0.00  0.00    +0.000 C 
ATOM      2  C   UNL     1       1.078   9.384  19.182  0.00  0.00    +0.000 C 
ATOM      3  C   UNL     1      -0.383   9.013  18.838  0.00  0.00    +0.000 C 
ENDROOT
BRANCH   2   4
ATOM      4  N   UNL     1       1.289  10.611  20.026  0.00  0.00    +0.000 NA
ATOM      5  C   UNL     1       0.587  11.845  19.570  0.00  0.00    +0.000 C 
ATOM      6  C   UNL     1      -0.923  11.932  19.864  0.00  0.00    +0.000 C 
ATOM      7  N   UNL     1      -1.210  11.616  21.267  0.00  0.00    +0.000 N 
ATOM      8  C   UNL     1      -1.990  12.508  21.974  0.00  0.00    +0.000 A 
ATOM      9  C   UNL     1      -2.656  12.136  23.138  0.00  0.00    +0.000 A 
ATOM     10  C   UNL     1      -3.450  13.068  23.815  0.00  0.00    +0.000 A 
ATOM     11  C   UNL     1      -3.558  14.367  23.322  0.00  0.00    +0.000 A 
ATOM     12  C   UNL     1      -2.852  14.663  22.174  0.00  0.00    +0.000 A 
ATOM     13  N   UNL     1      -2.089  13.775  21.507  0.00  0.00    +0.000 NA
ATOM     14  C   UNL     1      -0.493  10.514  21.900  0.00  0.00    +0.000 C 
ATOM     15  C   UNL     1       0.992  10.481  21.471  0.00  0.00    +0.000 C 
BRANCH  11  16
ATOM     16  C   UNL     1      -4.401  15.423  23.956  0.00  0.00    +0.000 C 
ATOM     17  F   UNL     1      -5.707  15.066  24.088  0.00  0.00    +0.000 F 
ATOM     18  F   UNL     1      -3.973  15.748  25.209  0.00  0.00    +0.000 F 
ATOM     19  F   UNL     1      -4.396  16.583  23.249  0.00  0.00    +0.000 F 
ENDBRANCH  11  16
ENDBRANCH   2   4
BRANCH   2  20
ATOM     20  C   UNL     1       1.748   8.100  19.846  0.00  0.00    +0.000 C 
ATOM     21  O   UNL     1       1.486   7.744  20.994  0.00  0.00    +0.000 OA
ATOM     22  N   UNL     1       2.644   7.392  19.073  0.00  0.00    +0.000 N 
ATOM     23  H   UNL     1       2.675   7.651  18.093  0.00  0.00    +0.000 HD
BRANCH  22  24
ATOM     24  C   UNL     1       3.219   6.092  19.470  0.00  0.00    +0.000 C 
ATOM     25  C   UNL     1       2.166   4.968  19.302  0.00  0.00    +0.000 C 
ATOM     26  C   UNL     1       1.874   4.748  17.802  0.00  0.00    +0.000 C 
ATOM     27  C   UNL     1       3.150   4.317  17.063  0.00  0.00    +0.000 C 
ATOM     28  C   UNL     1       4.222   5.409  17.220  0.00  0.00    +0.000 C 
ATOM     29  C   UNL     1       4.515   5.660  18.710  0.00  0.00    +0.000 C 
ATOM     30  C   UNL     1       5.048   4.332  19.304  0.00  0.00    +0.000 C 
ATOM     31  C   UNL     1       3.987   3.225  19.168  0.00  0.00    +0.000 C 
ATOM     32  C   UNL     1       3.659   3.006  17.681  0.00  0.00    +0.000 C 
ATOM     33  C   UNL     1       2.715   3.665  19.910  0.00  0.00    +0.000 C 
BRANCH  31  34
ATOM     34  O   UNL     1       4.457   2.013  19.753  0.00  0.00    +0.000 OA
ATOM     35  H   UNL     1       3.737   1.360  19.732  0.00  0.00    +0.000 HD
ENDBRANCH  31  34
ENDBRANCH  22  24
ENDBRANCH   2  20
TORSDOF 5
ENDMDL
MODEL 5
REMARK VINA RESULT:      -8.0      6.096     10.329
REMARK  Name = 
REMARK  7 active torsions:
REMARK  status: ('A' for Active; 'I' for Inactive)
REMARK    1  A    between atoms: C_1  and  C_2
REMARK    2  A    between atoms: C_2  and  C_3
REMARK    3  A    between atoms: C_2  and  C_4
REMARK    4  A    between atoms: C_2  and  N_18
REMARK    5  A    between atoms: N_6  and  C_7
REMARK    6  A    between atoms: C_14  and  O_15
REMARK    7  A    between atoms: C_25  and  C_26
REMARK                            x       y       z     vdW  Elec       q    Type
REMARK                         _______ _______ _______ _____ _____    ______ ____
ROOT
ATOM      1  C   UNL     1      -0.649  13.022  18.184  0.00  0.00    +0.000 C 
ATOM      2  C   UNL     1      -0.791  13.376  19.687  0.00  0.00    +0.000 C 
ATOM      3  C   UNL     1      -0.807  14.919  19.780  0.00  0.00    +0.000 C 
ENDROOT
BRANCH   2   4
ATOM      4  N   UNL     1       0.321  12.661  20.406  0.00  0.00    +0.000 NA
ATOM      5  C   UNL     1      -0.026  11.335  20.991  0.00  0.00    +0.000 C 
ATOM      6  C   UNL     1      -0.121  10.149  20.011  0.00  0.00    +0.000 C 
ATOM      7  N   UNL     1       1.057  10.082  19.142  0.00  0.00    +0.000 N 
ATOM      8  C   UNL     1       1.713   8.871  19.050  0.00  0.00    +0.000 A 
ATOM      9  C   UNL     1       2.557   8.574  17.984  0.00  0.00    +0.000 A 
ATOM     10  C   UNL     1       3.189   7.328  17.921  0.00  0.00    +0.000 A 
ATOM     11  C   UNL     1       2.974   6.396  18.934  0.00  0.00    +0.000 A 
ATOM     12  C   UNL     1       2.139   6.772  19.966  0.00  0.00    +0.000 A 
ATOM     13  N   UNL     1       1.518   7.966  20.038  0.00  0.00    +0.000 NA
ATOM     14  C   UNL     1       1.604  11.323  18.601  0.00  0.00    +0.000 C 
ATOM     15  C   UNL     1       1.577  12.460  19.648  0.00  0.00    +0.000 C 
BRANCH  11  16
ATOM     16  C   UNL     1       3.579   5.031  18.944  0.00  0.00    +0.000 C 
ATOM     17  F   UNL     1       3.219   4.288  20.026  0.00  0.00    +0.000 F 
ATOM     18  F   UNL     1       3.225   4.297  17.852  0.00  0.00    +0.000 F 
ATOM     19  F   UNL     1       4.937   5.067  18.945  0.00  0.00    +0.000 F 
ENDBRANCH  11  16
ENDBRANCH   2   4
BRANCH   2  20
ATOM     20  C   UNL     1      -2.220  12.859  20.167  0.00  0.00    +0.000 C 
ATOM     21  O   UNL     1      -2.863  12.026  19.530  0.00  0.00    +0.000 OA
ATOM     22  N   UNL     1      -2.714  13.388  21.341  0.00  0.00    +0.000 N 
ATOM     23  H   UNL     1      -2.056  13.935  21.885  0.00  0.00    +0.000 HD
BRANCH  22  24
ATOM     24  C   UNL     1      -3.934  12.896  22.011  0.00  0.00    +0.000 C 
ATOM     25  C   UNL     1      -3.920  13.300  23.508  0.00  0.00    +0.000 C 
ATOM     26  C   UNL     1      -4.077  14.830  23.635  0.00  0.00    +0.000 C 
ATOM     27  C   UNL     1      -5.414  15.287  23.032  0.00  0.00    +0.000 C 
ATOM     28  C   UNL     1      -5.463  14.890  21.547  0.00  0.00    +0.000 C 
ATOM     29  C   UNL     1      -5.289  13.369  21.393  0.00  0.00    +0.000 C 
ATOM     30  C   UNL     1      -6.466  12.693  22.141  0.00  0.00    +0.000 C 
ATOM     31  C   UNL     1      -6.431  13.067  23.634  0.00  0.00    +0.000 C 
ATOM     32  C   UNL     1      -6.557  14.593  23.787  0.00  0.00    +0.000 C 
ATOM     33  C   UNL     1      -5.091  12.607  24.228  0.00  0.00    +0.000 C 
BRANCH  31  34
ATOM     34  O   UNL     1      -7.486  12.413  24.334  0.00  0.00    +0.000 OA
ATOM     35  H   UNL     1      -7.157  12.142  25.208  0.00  0.00    +0.000 HD
ENDBRANCH  31  34
ENDBRANCH  22  24
ENDBRANCH   2  20
TORSDOF 5
ENDMDL
MODEL 6
REMARK VINA RESULT:      -8.0      3.228      4.087
REMARK  Name = 
REMARK  7 active torsions:
REMARK  status: ('A' for Active; 'I' for Inactive)
REMARK    1  A    between atoms: C_1  and  C_2
REMARK    2  A    between atoms: C_2  and  C_3
REMARK    3  A    between atoms: C_2  and  C_4
REMARK    4  A    between atoms: C_2  and  N_18
REMARK    5  A    between atoms: N_6  and  C_7
REMARK    6  A    between atoms: C_14  and  O_15
REMARK    7  A    between atoms: C_25  and  C_26
REMARK                            x       y       z     vdW  Elec       q    Type
REMARK                         _______ _______ _______ _____ _____    ______ ____
ROOT
ATOM      1  C   UNL     1       0.197   9.661  19.474  0.00  0.00    +0.000 C 
ATOM      2  C   UNL     1       0.535   8.814  20.729  0.00  0.00    +0.000 C 
ATOM      3  C   UNL     1      -0.738   8.008  21.076  0.00  0.00    +0.000 C 
ENDROOT
BRANCH   2   4
ATOM      4  N   UNL     1       1.039   9.773  21.773  0.00  0.00    +0.000 NA
ATOM      5  C   UNL     1       1.173  11.194  21.344  0.00  0.00    +0.000 C 
ATOM      6  C   UNL     1      -0.128  12.016  21.253  0.00  0.00    +0.000 C 
ATOM      7  N   UNL     1      -0.930  11.876  22.472  0.00  0.00    +0.000 N 
ATOM      8  C   UNL     1      -1.367  13.035  23.083  0.00  0.00    +0.000 A 
ATOM      9  C   UNL     1      -2.439  13.036  23.970  0.00  0.00    +0.000 A 
ATOM     10  C   UNL     1      -2.860  14.235  24.555  0.00  0.00    +0.000 A 
ATOM     11  C   UNL     1      -2.193  15.420  24.250  0.00  0.00    +0.000 A 
ATOM     12  C   UNL     1      -1.127  15.333  23.377  0.00  0.00    +0.000 A 
ATOM     13  N   UNL     1      -0.714  14.187  22.802  0.00  0.00    +0.000 NA
ATOM     14  C   UNL     1      -1.040  10.561  23.096  0.00  0.00    +0.000 C 
ATOM     15  C   UNL     1       0.305   9.800  23.059  0.00  0.00    +0.000 C 
BRANCH  11  16
ATOM     16  C   UNL     1      -2.582  16.752  24.799  0.00  0.00    +0.000 C 
ATOM     17  F   UNL     1      -2.412  17.771  23.914  0.00  0.00    +0.000 F 
ATOM     18  F   UNL     1      -3.891  16.798  25.176  0.00  0.00    +0.000 F 
ATOM     19  F   UNL     1      -1.865  17.087  25.904  0.00  0.00    +0.000 F 
ENDBRANCH  11  16
ENDBRANCH   2   4
BRANCH   2  20
ATOM     20  C   UNL     1       1.659   7.767  20.311  0.00  0.00    +0.000 C 
ATOM     21  O   UNL     1       2.636   8.088  19.635  0.00  0.00    +0.000 OA
ATOM     22  N   UNL     1       1.495   6.467  20.743  0.00  0.00    +0.000 N 
ATOM     23  H   UNL     1       0.761   6.325  21.428  0.00  0.00    +0.000 HD
BRANCH  22  24
ATOM     24  C   UNL     1       2.521   5.417  20.591  0.00  0.00    +0.000 C 
ATOM     25  C   UNL     1       1.956   4.048  21.048  0.00  0.00    +0.000 C 
ATOM     26  C   UNL     1       0.866   3.580  20.061  0.00  0.00    +0.000 C 
ATOM     27  C   UNL     1       1.455   3.403  18.653  0.00  0.00    +0.000 C 
ATOM     28  C   UNL     1       2.034   4.745  18.174  0.00  0.00    +0.000 C 
ATOM     29  C   UNL     1       3.111   5.243  19.154  0.00  0.00    +0.000 C 
ATOM     30  C   UNL     1       4.237   4.180  19.179  0.00  0.00    +0.000 C 
ATOM     31  C   UNL     1       3.682   2.830  19.667  0.00  0.00    +0.000 C 
ATOM     32  C   UNL     1       2.573   2.353  18.714  0.00  0.00    +0.000 C 
ATOM     33  C   UNL     1       3.097   3.015  21.076  0.00  0.00    +0.000 C 
BRANCH  31  34
ATOM     34  O   UNL     1       4.725   1.860  19.733  0.00  0.00    +0.000 OA
ATOM     35  H   UNL     1       4.686   1.423  20.601  0.00  0.00    +0.000 HD
ENDBRANCH  31  34
ENDBRANCH  22  24
ENDBRANCH   2  20
TORSDOF 5
ENDMDL
MODEL 7
REMARK VINA RESULT:      -8.0      5.442      8.531
REMARK  Name = 
REMARK  7 active torsions:
REMARK  status: ('A' for Active; 'I' for Inactive)
REMARK    1  A    between atoms: C_1  and  C_2
REMARK    2  A    between atoms: C_2  and  C_3
REMARK    3  A    between atoms: C_2  and  C_4
REMARK    4  A    between atoms: C_2  and  N_18
REMARK    5  A    between atoms: N_6  and  C_7
REMARK    6  A    between atoms: C_14  and  O_15
REMARK    7  A    between atoms: C_25  and  C_26
REMARK                            x       y       z     vdW  Elec       q    Type
REMARK                         _______ _______ _______ _____ _____    ______ ____
ROOT
ATOM      1  C   UNL     1      -1.383  14.112  22.976  0.00  0.00    +0.000 C 
ATOM      2  C   UNL     1      -1.424  12.749  22.236  0.00  0.00    +0.000 C 
ATOM      3  C   UNL     1      -2.589  11.943  22.854  0.00  0.00    +0.000 C 
ENDROOT
BRANCH   2   4
ATOM      4  N   UNL     1      -0.047  12.155  22.351  0.00  0.00    +0.000 NA
ATOM      5  C   UNL     1       0.011  10.685  22.590  0.00  0.00    +0.000 C 
ATOM      6  C   UNL     1      -0.252   9.774  21.375  0.00  0.00    +0.000 C 
ATOM      7  N   UNL     1       0.554  10.183  20.221  0.00  0.00    +0.000 N 
ATOM      8  C   UNL     1       1.296   9.207  19.585  0.00  0.00    +0.000 A 
ATOM      9  C   UNL     1       1.755   9.369  18.282  0.00  0.00    +0.000 A 
ATOM     10  C   UNL     1       2.491   8.348  17.669  0.00  0.00    +0.000 A 
ATOM     11  C   UNL     1       2.765   7.179  18.376  0.00  0.00    +0.000 A 
ATOM     12  C   UNL     1       2.292   7.103  19.670  0.00  0.00    +0.000 A 
ATOM     13  N   UNL     1       1.578   8.074  20.271  0.00  0.00    +0.000 NA
ATOM     14  C   UNL     1       0.709  11.606  19.938  0.00  0.00    +0.000 C 
ATOM     15  C   UNL     1       0.889  12.427  21.236  0.00  0.00    +0.000 C 
BRANCH  11  16
ATOM     16  C   UNL     1       3.516   6.024  17.802  0.00  0.00    +0.000 C 
ATOM     17  F   UNL     1       4.265   6.353  16.715  0.00  0.00    +0.000 F 
ATOM     18  F   UNL     1       4.381   5.469  18.698  0.00  0.00    +0.000 F 
ATOM     19  F   UNL     1       2.694   5.018  17.405  0.00  0.00    +0.000 F 
ENDBRANCH  11  16
ENDBRANCH   2   4
BRANCH   2  20
ATOM     20  C   UNL     1      -1.805  13.041  20.717  0.00  0.00    +0.000 C 
ATOM     21  O   UNL     1      -1.368  14.016  20.107  0.00  0.00    +0.000 OA
ATOM     22  N   UNL     1      -2.657  12.147  20.103  0.00  0.00    +0.000 N 
ATOM     23  H   UNL     1      -2.834  11.291  20.617  0.00  0.00    +0.000 HD
BRANCH  22  24
ATOM     24  C   UNL     1      -2.972  12.173  18.661  0.00  0.00    +0.000 C 
ATOM     25  C   UNL     1      -1.919  11.357  17.869  0.00  0.00    +0.000 C 
ATOM     26  C   UNL     1      -2.065   9.857  18.204  0.00  0.00    +0.000 C 
ATOM     27  C   UNL     1      -3.459   9.349  17.804  0.00  0.00    +0.000 C 
ATOM     28  C   UNL     1      -4.529  10.149  18.567  0.00  0.00    +0.000 C 
ATOM     29  C   UNL     1      -4.391  11.651  18.264  0.00  0.00    +0.000 C 
ATOM     30  C   UNL     1      -4.605  11.835  16.741  0.00  0.00    +0.000 C 
ATOM     31  C   UNL     1      -3.537  11.052  15.956  0.00  0.00    +0.000 C 
ATOM     32  C   UNL     1      -3.644   9.555  16.294  0.00  0.00    +0.000 C 
ATOM     33  C   UNL     1      -2.148  11.567  16.362  0.00  0.00    +0.000 C 
BRANCH  31  34
ATOM     34  O   UNL     1      -3.705  11.254  14.555  0.00  0.00    +0.000 OA
ATOM     35  H   UNL     1      -4.375  10.629  14.230  0.00  0.00    +0.000 HD
ENDBRANCH  31  34
ENDBRANCH  22  24
ENDBRANCH   2  20
TORSDOF 5
ENDMDL
MODEL 8
REMARK VINA RESULT:      -7.9      6.164     10.579
REMARK  Name = 
REMARK  7 active torsions:
REMARK  status: ('A' for Active; 'I' for Inactive)
REMARK    1  A    between atoms: C_1  and  C_2
REMARK    2  A    between atoms: C_2  and  C_3
REMARK    3  A    between atoms: C_2  and  C_4
REMARK    4  A    between atoms: C_2  and  N_18
REMARK    5  A    between atoms: N_6  and  C_7
REMARK    6  A    between atoms: C_14  and  O_15
REMARK    7  A    between atoms: C_25  and  C_26
REMARK                            x       y       z     vdW  Elec       q    Type
REMARK                         _______ _______ _______ _____ _____    ______ ____
ROOT
ATOM      1  C   UNL     1      -1.642  11.386  19.456  0.00  0.00    +0.000 C 
ATOM      2  C   UNL     1      -0.604  12.539  19.488  0.00  0.00    +0.000 C 
ATOM      3  C   UNL     1      -0.505  13.087  18.046  0.00  0.00    +0.000 C 
ENDROOT
BRANCH   2   4
ATOM      4  N   UNL     1       0.653  11.971  20.089  0.00  0.00    +0.000 NA
ATOM      5  C   UNL     1       0.498  10.692  20.838  0.00  0.00    +0.000 C 
ATOM      6  C   UNL     1       0.350   9.409  19.997  0.00  0.00    +0.000 C 
ATOM      7  N   UNL     1       1.389   9.327  18.967  0.00  0.00    +0.000 N 
ATOM      8  C   UNL     1       2.114   8.155  18.886  0.00  0.00    +0.000 A 
ATOM      9  C   UNL     1       2.812   7.804  17.734  0.00  0.00    +0.000 A 
ATOM     10  C   UNL     1       3.521   6.599  17.688  0.00  0.00    +0.000 A 
ATOM     11  C   UNL     1       3.530   5.763  18.803  0.00  0.00    +0.000 A 
ATOM     12  C   UNL     1       2.829   6.190  19.913  0.00  0.00    +0.000 A 
ATOM     13  N   UNL     1       2.137   7.345  19.970  0.00  0.00    +0.000 NA
ATOM     14  C   UNL     1       1.754  10.537  18.237  0.00  0.00    +0.000 C 
ATOM     15  C   UNL     1       1.796  11.771  19.168  0.00  0.00    +0.000 C 
BRANCH  11  16
ATOM     16  C   UNL     1       4.231   4.447  18.843  0.00  0.00    +0.000 C 
ATOM     17  F   UNL     1       3.776   3.621  19.825  0.00  0.00    +0.000 F 
ATOM     18  F   UNL     1       4.100   3.751  17.679  0.00  0.00    +0.000 F 
ATOM     19  F   UNL     1       5.568   4.578  19.050  0.00  0.00    +0.000 F 
ENDBRANCH  11  16
ENDBRANCH   2   4
BRANCH   2  20
ATOM     20  C   UNL     1      -1.208  13.701  20.395  0.00  0.00    +0.000 C 
ATOM     21  O   UNL     1      -1.039  14.891  20.134  0.00  0.00    +0.000 OA
ATOM     22  N   UNL     1      -1.937  13.316  21.501  0.00  0.00    +0.000 N 
ATOM     23  H   UNL     1      -2.168  12.330  21.549  0.00  0.00    +0.000 HD
BRANCH  22  24
ATOM     24  C   UNL     1      -2.704  14.255  22.343  0.00  0.00    +0.000 C 
ATOM     25  C   UNL     1      -4.077  14.559  21.691  0.00  0.00    +0.000 C 
ATOM     26  C   UNL     1      -4.962  13.295  21.727  0.00  0.00    +0.000 C 
ATOM     27  C   UNL     1      -5.213  12.856  23.178  0.00  0.00    +0.000 C 
ATOM     28  C   UNL     1      -3.867  12.555  23.858  0.00  0.00    +0.000 C 
ATOM     29  C   UNL     1      -2.958  13.797  23.816  0.00  0.00    +0.000 C 
ATOM     30  C   UNL     1      -3.683  14.924  24.593  0.00  0.00    +0.000 C 
ATOM     31  C   UNL     1      -5.030  15.250  23.924  0.00  0.00    +0.000 C 
ATOM     32  C   UNL     1      -5.922  13.996  23.922  0.00  0.00    +0.000 C 
ATOM     33  C   UNL     1      -4.769  15.688  22.474  0.00  0.00    +0.000 C 
BRANCH  31  34
ATOM     34  O   UNL     1      -5.680  16.316  24.610  0.00  0.00    +0.000 OA
ATOM     35  H   UNL     1      -5.400  17.158  24.211  0.00  0.00    +0.000 HD
ENDBRANCH  31  34
ENDBRANCH  22  24
ENDBRANCH   2  20
TORSDOF 5
ENDMDL
MODEL 9
REMARK VINA RESULT:      -7.9      3.255      5.875
REMARK  Name = 
REMARK  7 active torsions:
REMARK  status: ('A' for Active; 'I' for Inactive)
REMARK    1  A    between atoms: C_1  and  C_2
REMARK    2  A    between atoms: C_2  and  C_3
REMARK    3  A    between atoms: C_2  and  C_4
REMARK    4  A    between atoms: C_2  and  N_18
REMARK    5  A    between atoms: N_6  and  C_7
REMARK    6  A    between atoms: C_14  and  O_15
REMARK    7  A    between atoms: C_25  and  C_26
REMARK                            x       y       z     vdW  Elec       q    Type
REMARK                         _______ _______ _______ _____ _____    ______ ____
ROOT
ATOM      1  C   UNL     1       1.926   1.400  19.865  0.00  0.00    +0.000 C 
ATOM      2  C   UNL     1       2.488   2.840  19.729  0.00  0.00    +0.000 C 
ATOM      3  C   UNL     1       3.383   3.085  20.965  0.00  0.00    +0.000 C 
ENDROOT
BRANCH   2   4
ATOM      4  N   UNL     1       1.303   3.750  19.554  0.00  0.00    +0.000 NA
ATOM      5  C   UNL     1       1.108   4.778  20.615  0.00  0.00    +0.000 C 
ATOM      6  C   UNL     1       2.031   6.011  20.565  0.00  0.00    +0.000 C 
ATOM      7  N   UNL     1       2.061   6.598  19.222  0.00  0.00    +0.000 N 
ATOM      8  C   UNL     1       1.829   7.954  19.115  0.00  0.00    +0.000 A 
ATOM      9  C   UNL     1       2.226   8.679  17.996  0.00  0.00    +0.000 A 
ATOM     10  C   UNL     1       1.986  10.056  17.935  0.00  0.00    +0.000 A 
ATOM     11  C   UNL     1       1.342  10.689  18.995  0.00  0.00    +0.000 A 
ATOM     12  C   UNL     1       0.962   9.899  20.061  0.00  0.00    +0.000 A 
ATOM     13  N   UNL     1       1.191   8.573  20.137  0.00  0.00    +0.000 NA
ATOM     14  C   UNL     1       2.110   5.708  18.066  0.00  0.00    +0.000 C 
ATOM     15  C   UNL     1       1.205   4.469  18.263  0.00  0.00    +0.000 C 
BRANCH  11  16
ATOM     16  C   UNL     1       1.066  12.155  19.037  0.00  0.00    +0.000 C 
ATOM     17  F   UNL     1       0.684  12.598  20.266  0.00  0.00    +0.000 F 
ATOM     18  F   UNL     1       2.155  12.900  18.694  0.00  0.00    +0.000 F 
ATOM     19  F   UNL     1       0.078  12.522  18.179  0.00  0.00    +0.000 F 
ENDBRANCH  11  16
ENDBRANCH   2   4
BRANCH   2  20
ATOM     20  C   UNL     1       3.434   2.864  18.448  0.00  0.00    +0.000 C 
ATOM     21  O   UNL     1       3.166   2.239  17.422  0.00  0.00    +0.000 OA
ATOM     22  N   UNL     1       4.582   3.624  18.532  0.00  0.00    +0.000 N 
ATOM     23  H   UNL     1       4.643   4.234  19.340  0.00  0.00    +0.000 HD
BRANCH  22  24
ATOM     24  C   UNL     1       5.474   3.892  17.387  0.00  0.00    +0.000 C 
ATOM     25  C   UNL     1       4.895   5.037  16.516  0.00  0.00    +0.000 C 
ATOM     26  C   UNL     1       4.961   6.367  17.296  0.00  0.00    +0.000 C 
ATOM     27  C   UNL     1       6.418   6.720  17.636  0.00  0.00    +0.000 C 
ATOM     28  C   UNL     1       7.025   5.596  18.493  0.00  0.00    +0.000 C 
ATOM     29  C   UNL     1       6.952   4.253  17.744  0.00  0.00    +0.000 C 
ATOM     30  C   UNL     1       7.778   4.407  16.442  0.00  0.00    +0.000 C 
ATOM     31  C   UNL     1       7.182   5.520  15.562  0.00  0.00    +0.000 C 
ATOM     32  C   UNL     1       7.211   6.854  16.328  0.00  0.00    +0.000 C 
ATOM     33  C   UNL     1       5.726   5.159  15.227  0.00  0.00    +0.000 C 
BRANCH  31  34
ATOM     34  O   UNL     1       7.913   5.635  14.345  0.00  0.00    +0.000 OA
ATOM     35  H   UNL     1       8.560   6.356  14.439  0.00  0.00    +0.000 HD
ENDBRANCH  31  34
ENDBRANCH  22  24
ENDBRANCH   2  20
TORSDOF 5
ENDMDL
