MODEL 1
REMARK VINA RESULT:      -9.7      0.000      0.000
REMARK  Name = 
REMARK  8 active torsions:
REMARK  status: ('A' for Active; 'I' for Inactive)
REMARK    1  A    between atoms: C_2  and  C_3
REMARK    2  A    between atoms: C_3  and  N_4
REMARK    3  A    between atoms: N_4  and  C_20
REMARK    4  A    between atoms: C_5  and  C_7
REMARK    5  A    between atoms: C_7  and  N_8
REMARK    6  A    between atoms: C_11  and  C_12
REMARK    7  A    between atoms: N_30  and  C_31
REMARK    8  A    between atoms: C_31  and  C_32
REMARK                            x       y       z     vdW  Elec       q    Type
REMARK                         _______ _______ _______ _____ _____    ______ ____
ROOT
ATOM      1  N   UNL     1       4.973   5.473  18.069  0.00  0.00    +0.000 N 
ATOM      2  C   UNL     1       4.581   6.803  17.779  0.00  0.00    +0.000 C 
ATOM      3  O   UNL     1       5.385   7.725  17.716  0.00  0.00    +0.000 OA
ENDROOT
BRANCH   1   4
ATOM      4  C   UNL     1       4.002   4.417  18.083  0.00  0.00    +0.000 A 
ATOM      5  C   UNL     1       3.813   3.701  16.870  0.00  0.00    +0.000 A 
ATOM      6  C   UNL     1       3.018   2.566  16.796  0.00  0.00    +0.000 A 
ATOM      7  C   UNL     1       2.319   2.178  17.922  0.00  0.00    +0.000 A 
ATOM      8  C   UNL     1       2.398   2.923  19.110  0.00  0.00    +0.000 A 
ATOM      9  C   UNL     1       3.248   4.056  19.208  0.00  0.00    +0.000 A 
ATOM     10  C   UNL     1       3.260   4.872  20.482  0.00  0.00    +0.000 C 
ATOM     11  C   UNL     1       2.020   4.664  21.351  0.00  0.00    +0.000 C 
ATOM     12  C   UNL     1       1.770   3.177  21.552  0.00  0.00    +0.000 C 
ATOM     13  C   UNL     1       1.453   2.522  20.217  0.00  0.00    +0.000 C 
ENDBRANCH   1   4
BRANCH   1  14
ATOM     14  C   UNL     1       6.403   5.206  18.404  0.00  0.00    +0.000 C 
BRANCH  14  16
ATOM     15  O   UNL     1       8.506   4.043  18.043  0.00  0.00    +0.000 OA
ATOM     16  C   UNL     1       7.550   4.614  17.502  0.00  0.00    +0.000 C 
ATOM     17  N   UNL     1       7.647   4.805  16.151  0.00  0.00    +0.000 N 
ATOM     18  H   UNL     1       8.404   4.295  15.713  0.00  0.00    +0.000 HD
BRANCH  17  19
ATOM     19  C   UNL     1       6.558   5.216  15.341  0.00  0.00    +0.000 C 
BRANCH  19  20
ATOM     20  C   UNL     1       6.438   4.685  13.952  0.00  0.00    +0.000 A 
ATOM     21  C   UNL     1       7.455   4.890  13.014  0.00  0.00    +0.000 A 
ATOM     22  C   UNL     1       7.399   4.250  11.778  0.00  0.00    +0.000 A 
ATOM     23  C   UNL     1       6.334   3.400  11.475  0.00  0.00    +0.000 A 
ATOM     24  C   UNL     1       5.326   3.179  12.413  0.00  0.00    +0.000 A 
ATOM     25  C   UNL     1       5.377   3.821  13.645  0.00  0.00    +0.000 A 
ENDBRANCH  19  20
ENDBRANCH  17  19
ENDBRANCH  14  16
ENDBRANCH   1  14
BRANCH   2  26
ATOM     26  C   UNL     1       3.106   7.020  17.503  0.00  0.00    +0.000 C 
BRANCH  26  27
ATOM     27  N   UNL     1       2.563   8.235  18.061  0.00  0.00    +0.000 N 
ATOM     28  N   UNL     1       1.769   8.999  17.285  0.00  0.00    +0.000 NA
ATOM     29  N   UNL     1       0.951   9.609  18.127  0.00  0.00    +0.000 NA
ATOM     30  C   UNL     1       1.272   9.171  19.387  0.00  0.00    +0.000 A 
ATOM     31  N   UNL     1       2.278   8.279  19.381  0.00  0.00    +0.000 NA
BRANCH  30  32
ATOM     32  C   UNL     1       0.599   9.614  20.593  0.00  0.00    +0.000 A 
ATOM     33  C   UNL     1       0.396  10.985  20.829  0.00  0.00    +0.000 A 
ATOM     34  C   UNL     1      -0.305  11.417  21.957  0.00  0.00    +0.000 A 
ATOM     35  C   UNL     1      -0.811  10.486  22.857  0.00  0.00    +0.000 A 
ATOM     36  C   UNL     1      -0.594   9.125  22.650  0.00  0.00    +0.000 A 
ATOM     37  C   UNL     1       0.114   8.698  21.529  0.00  0.00    +0.000 A 
ATOM     38  F   UNL     1       0.304   7.379  21.375  0.00  0.00    +0.000 F 
ENDBRANCH  30  32
ENDBRANCH  26  27
ENDBRANCH   2  26
TORSDOF 8
ENDMDL
MODEL 2
REMARK VINA RESULT:      -9.1      0.936      1.905
REMARK  Name = 
REMARK  8 active torsions:
REMARK  status: ('A' for Active; 'I' for Inactive)
REMARK    1  A    between atoms: C_2  and  C_3
REMARK    2  A    between atoms: C_3  and  N_4
REMARK    3  A    between atoms: N_4  and  C_20
REMARK    4  A    between atoms: C_5  and  C_7
REMARK    5  A    between atoms: C_7  and  N_8
REMARK    6  A    between atoms: C_11  and  C_12
REMARK    7  A    between atoms: N_30  and  C_31
REMARK    8  A    between atoms: C_31  and  C_32
REMARK                            x       y       z     vdW  Elec       q    Type
REMARK                         _______ _______ _______ _____ _____    ______ ____
ROOT
ATOM      1  N   UNL     1       4.504   5.918  18.673  0.00  0.00    +0.000 N 
ATOM      2  C   UNL     1       4.209   6.992  17.797  0.00  0.00    +0.000 C 
ATOM      3  O   UNL     1       5.082   7.601  17.190  0.00  0.00    +0.000 OA
ENDROOT
BRANCH   1   4
ATOM      4  C   UNL     1       3.445   5.202  19.324  0.00  0.00    +0.000 A 
ATOM      5  C   UNL     1       2.850   5.821  20.456  0.00  0.00    +0.000 A 
ATOM      6  C   UNL     1       1.723   5.304  21.076  0.00  0.00    +0.000 A 
ATOM      7  C   UNL     1       1.219   4.098  20.629  0.00  0.00    +0.000 A 
ATOM      8  C   UNL     1       1.844   3.404  19.579  0.00  0.00    +0.000 A 
ATOM      9  C   UNL     1       2.969   3.952  18.907  0.00  0.00    +0.000 A 
ATOM     10  C   UNL     1       3.655   3.148  17.824  0.00  0.00    +0.000 C 
ATOM     11  C   UNL     1       3.352   1.650  17.892  0.00  0.00    +0.000 C 
ATOM     12  C   UNL     1       1.851   1.428  17.993  0.00  0.00    +0.000 C 
ATOM     13  C   UNL     1       1.329   2.014  19.295  0.00  0.00    +0.000 C 
ENDBRANCH   1   4
BRANCH   1  14
ATOM     14  C   UNL     1       5.934   5.584  18.940  0.00  0.00    +0.000 C 
BRANCH  14  16
ATOM     15  O   UNL     1       8.068   6.706  18.632  0.00  0.00    +0.000 OA
ATOM     16  C   UNL     1       7.222   5.963  18.117  0.00  0.00    +0.000 C 
ATOM     17  N   UNL     1       7.420   5.644  16.802  0.00  0.00    +0.000 N 
ATOM     18  H   UNL     1       8.334   5.899  16.446  0.00  0.00    +0.000 HD
BRANCH  17  19
ATOM     19  C   UNL     1       6.699   4.626  16.128  0.00  0.00    +0.000 C 
BRANCH  19  20
ATOM     20  C   UNL     1       6.725   4.574  14.638  0.00  0.00    +0.000 A 
ATOM     21  C   UNL     1       7.662   5.314  13.910  0.00  0.00    +0.000 A 
ATOM     22  C   UNL     1       7.776   5.128  12.534  0.00  0.00    +0.000 A 
ATOM     23  C   UNL     1       6.964   4.199  11.881  0.00  0.00    +0.000 A 
ATOM     24  C   UNL     1       6.040   3.446  12.605  0.00  0.00    +0.000 A 
ATOM     25  C   UNL     1       5.919   3.636  13.977  0.00  0.00    +0.000 A 
ENDBRANCH  19  20
ENDBRANCH  17  19
ENDBRANCH  14  16
ENDBRANCH   1  14
BRANCH   2  26
ATOM     26  C   UNL     1       2.741   7.319  17.611  0.00  0.00    +0.000 C 
BRANCH  26  27
ATOM     27  N   UNL     1       2.328   8.574  18.193  0.00  0.00    +0.000 N 
ATOM     28  N   UNL     1       1.670   9.456  17.415  0.00  0.00    +0.000 NA
ATOM     29  N   UNL     1       0.896  10.136  18.245  0.00  0.00    +0.000 NA
ATOM     30  C   UNL     1       1.105   9.620  19.500  0.00  0.00    +0.000 A 
ATOM     31  N   UNL     1       1.992   8.610  19.500  0.00  0.00    +0.000 NA
BRANCH  30  32
ATOM     32  C   UNL     1       0.439  10.105  20.694  0.00  0.00    +0.000 A 
ATOM     33  C   UNL     1       0.285  11.485  20.910  0.00  0.00    +0.000 A 
ATOM     34  C   UNL     1      -0.408  11.959  22.025  0.00  0.00    +0.000 A 
ATOM     35  C   UNL     1      -0.956  11.060  22.934  0.00  0.00    +0.000 A 
ATOM     36  C   UNL     1      -0.788   9.689  22.747  0.00  0.00    +0.000 A 
ATOM     37  C   UNL     1      -0.088   9.220  21.638  0.00  0.00    +0.000 A 
ATOM     38  F   UNL     1       0.054   7.893  21.503  0.00  0.00    +0.000 F 
ENDBRANCH  30  32
ENDBRANCH  26  27
ENDBRANCH   2  26
TORSDOF 8
ENDMDL
MODEL 3
REMARK VINA RESULT:      -8.9      1.299      2.212
REMARK  Name = 
REMARK  8 active torsions:
REMARK  status: ('A' for Active; 'I' for Inactive)
REMARK    1  A    between atoms: C_2  and  C_3
REMARK    2  A    between atoms: C_3  and  N_4
REMARK    3  A    between atoms: N_4  and  C_20
REMARK    4  A    between atoms: C_5  and  C_7
REMARK    5  A    between atoms: C_7  and  N_8
REMARK    6  A    between atoms: C_11  and  C_12
REMARK    7  A    between atoms: N_30  and  C_31
REMARK    8  A    between atoms: C_31  and  C_32
REMARK                            x       y       z     vdW  Elec       q    Type
REMARK                         _______ _______ _______ _____ _____    ______ ____
ROOT
ATOM      1  N   UNL     1       4.453   6.067  18.601  0.00  0.00    +0.000 N 
ATOM      2  C   UNL     1       4.186   7.162  17.743  0.00  0.00    +0.000 C 
ATOM      3  O   UNL     1       5.073   7.752  17.139  0.00  0.00    +0.000 OA
ENDROOT
BRANCH   1   4
ATOM      4  C   UNL     1       3.375   5.374  19.249  0.00  0.00    +0.000 A 
ATOM      5  C   UNL     1       2.749   6.036  20.339  0.00  0.00    +0.000 A 
ATOM      6  C   UNL     1       1.604   5.541  20.947  0.00  0.00    +0.000 A 
ATOM      7  C   UNL     1       1.115   4.318  20.532  0.00  0.00    +0.000 A 
ATOM      8  C   UNL     1       1.769   3.585  19.528  0.00  0.00    +0.000 A 
ATOM      9  C   UNL     1       2.912   4.108  18.867  0.00  0.00    +0.000 A 
ATOM     10  C   UNL     1       3.629   3.265  17.836  0.00  0.00    +0.000 C 
ATOM     11  C   UNL     1       3.325   1.771  17.952  0.00  0.00    +0.000 C 
ATOM     12  C   UNL     1       1.822   1.550  18.019  0.00  0.00    +0.000 C 
ATOM     13  C   UNL     1       1.263   2.184  19.282  0.00  0.00    +0.000 C 
ENDBRANCH   1   4
BRANCH   1  14
ATOM     14  C   UNL     1       5.873   5.685  18.854  0.00  0.00    +0.000 C 
BRANCH  14  16
ATOM     15  O   UNL     1       8.032   6.753  18.529  0.00  0.00    +0.000 OA
ATOM     16  C   UNL     1       7.166   6.028  18.023  0.00  0.00    +0.000 C 
ATOM     17  N   UNL     1       7.350   5.696  16.708  0.00  0.00    +0.000 N 
ATOM     18  H   UNL     1       8.267   5.927  16.346  0.00  0.00    +0.000 HD
BRANCH  17  19
ATOM     19  C   UNL     1       6.600   4.693  16.044  0.00  0.00    +0.000 C 
BRANCH  19  20
ATOM     20  C   UNL     1       6.667   4.593  14.557  0.00  0.00    +0.000 A 
ATOM     21  C   UNL     1       7.611   5.324  13.830  0.00  0.00    +0.000 A 
ATOM     22  C   UNL     1       7.765   5.095  12.464  0.00  0.00    +0.000 A 
ATOM     23  C   UNL     1       6.986   4.132  11.821  0.00  0.00    +0.000 A 
ATOM     24  C   UNL     1       6.055   3.388  12.545  0.00  0.00    +0.000 A 
ATOM     25  C   UNL     1       5.895   3.620  13.907  0.00  0.00    +0.000 A 
ENDBRANCH  19  20
ENDBRANCH  17  19
ENDBRANCH  14  16
ENDBRANCH   1  14
BRANCH   2  26
ATOM     26  C   UNL     1       2.727   7.537  17.571  0.00  0.00    +0.000 C 
BRANCH  26  27
ATOM     27  N   UNL     1       2.331   8.738  18.268  0.00  0.00    +0.000 N 
ATOM     28  N   UNL     1       1.846   9.768  17.547  0.00  0.00    +0.000 NA
ATOM     29  N   UNL     1       1.020  10.400  18.364  0.00  0.00    +0.000 NA
ATOM     30  C   UNL     1       1.024   9.711  19.551  0.00  0.00    +0.000 A 
ATOM     31  N   UNL     1       1.830   8.635  19.518  0.00  0.00    +0.000 NA
BRANCH  30  32
ATOM     32  C   UNL     1       0.244  10.095  20.711  0.00  0.00    +0.000 A 
ATOM     33  C   UNL     1       0.366   9.382  21.916  0.00  0.00    +0.000 A 
ATOM     34  C   UNL     1      -0.335   9.783  23.055  0.00  0.00    +0.000 A 
ATOM     35  C   UNL     1      -1.163  10.900  23.002  0.00  0.00    +0.000 A 
ATOM     36  C   UNL     1      -1.315  11.600  21.806  0.00  0.00    +0.000 A 
ATOM     37  C   UNL     1      -0.621  11.191  20.670  0.00  0.00    +0.000 A 
ATOM     38  F   UNL     1      -0.804  11.892  19.541  0.00  0.00    +0.000 F 
ENDBRANCH  30  32
ENDBRANCH  26  27
ENDBRANCH   2  26
TORSDOF 8
ENDMDL
MODEL 4
REMARK VINA RESULT:      -8.9      1.043      1.229
REMARK  Name = 
REMARK  8 active torsions:
REMARK  status: ('A' for Active; 'I' for Inactive)
REMARK    1  A    between atoms: C_2  and  C_3
REMARK    2  A    between atoms: C_3  and  N_4
REMARK    3  A    between atoms: N_4  and  C_20
REMARK    4  A    between atoms: C_5  and  C_7
REMARK    5  A    between atoms: C_7  and  N_8
REMARK    6  A    between atoms: C_11  and  C_12
REMARK    7  A    between atoms: N_30  and  C_31
REMARK    8  A    between atoms: C_31  and  C_32
REMARK                            x       y       z     vdW  Elec       q    Type
REMARK                         _______ _______ _______ _____ _____    ______ ____
ROOT
ATOM      1  N   UNL     1       4.997   5.132  18.197  0.00  0.00    +0.000 N 
ATOM      2  C   UNL     1       4.702   6.494  17.945  0.00  0.00    +0.000 C 
ATOM      3  O   UNL     1       5.571   7.355  17.897  0.00  0.00    +0.000 OA
ENDROOT
BRANCH   1   4
ATOM      4  C   UNL     1       3.950   4.150  18.193  0.00  0.00    +0.000 A 
ATOM      5  C   UNL     1       3.709   3.472  16.969  0.00  0.00    +0.000 A 
ATOM      6  C   UNL     1       2.833   2.400  16.876  0.00  0.00    +0.000 A 
ATOM      7  C   UNL     1       2.107   2.044  17.995  0.00  0.00    +0.000 A 
ATOM      8  C   UNL     1       2.241   2.761  19.196  0.00  0.00    +0.000 A 
ATOM      9  C   UNL     1       3.172   3.826  19.313  0.00  0.00    +0.000 A 
ATOM     10  C   UNL     1       3.244   4.617  20.601  0.00  0.00    +0.000 C 
ATOM     11  C   UNL     1       1.991   4.485  21.468  0.00  0.00    +0.000 C 
ATOM     12  C   UNL     1       1.632   3.018  21.643  0.00  0.00    +0.000 C 
ATOM     13  C   UNL     1       1.268   2.412  20.297  0.00  0.00    +0.000 C 
ENDBRANCH   1   4
BRANCH   1  14
ATOM     14  C   UNL     1       6.405   4.751  18.511  0.00  0.00    +0.000 C 
BRANCH  14  16
ATOM     15  O   UNL     1       8.675   4.048  17.999  0.00  0.00    +0.000 OA
ATOM     16  C   UNL     1       7.612   4.481  17.536  0.00  0.00    +0.000 C 
ATOM     17  N   UNL     1       7.627   4.824  16.212  0.00  0.00    +0.000 N 
ATOM     18  H   UNL     1       8.451   4.514  15.711  0.00  0.00    +0.000 HD
BRANCH  17  19
ATOM     19  C   UNL     1       6.454   5.103  15.464  0.00  0.00    +0.000 C 
BRANCH  19  20
ATOM     20  C   UNL     1       6.360   4.639  14.050  0.00  0.00    +0.000 A 
ATOM     21  C   UNL     1       7.394   4.887  13.142  0.00  0.00    +0.000 A 
ATOM     22  C   UNL     1       7.360   4.308  11.876  0.00  0.00    +0.000 A 
ATOM     23  C   UNL     1       6.302   3.473  11.513  0.00  0.00    +0.000 A 
ATOM     24  C   UNL     1       5.277   3.208  12.420  0.00  0.00    +0.000 A 
ATOM     25  C   UNL     1       5.304   3.792  13.682  0.00  0.00    +0.000 A 
ENDBRANCH  19  20
ENDBRANCH  17  19
ENDBRANCH  14  16
ENDBRANCH   1  14
BRANCH   2  26
ATOM     26  C   UNL     1       3.245   6.826  17.689  0.00  0.00    +0.000 C 
BRANCH  26  27
ATOM     27  N   UNL     1       2.855   8.158  18.084  0.00  0.00    +0.000 N 
ATOM     28  N   UNL     1       2.692   9.091  17.124  0.00  0.00    +0.000 NA
ATOM     29  N   UNL     1       1.786   9.925  17.606  0.00  0.00    +0.000 NA
ATOM     30  C   UNL     1       1.419   9.450  18.840  0.00  0.00    +0.000 A 
ATOM     31  N   UNL     1       2.062   8.315  19.166  0.00  0.00    +0.000 NA
BRANCH  30  32
ATOM     32  C   UNL     1       0.442  10.094  19.696  0.00  0.00    +0.000 A 
ATOM     33  C   UNL     1       0.697  10.252  21.069  0.00  0.00    +0.000 A 
ATOM     34  C   UNL     1      -0.211  10.927  21.889  0.00  0.00    +0.000 A 
ATOM     35  C   UNL     1      -1.379  11.451  21.346  0.00  0.00    +0.000 A 
ATOM     36  C   UNL     1      -1.658  11.277  19.991  0.00  0.00    +0.000 A 
ATOM     37  C   UNL     1      -0.754  10.596  19.178  0.00  0.00    +0.000 A 
ATOM     38  F   UNL     1      -1.068  10.449  17.883  0.00  0.00    +0.000 F 
ENDBRANCH  30  32
ENDBRANCH  26  27
ENDBRANCH   2  26
TORSDOF 8
ENDMDL
MODEL 5
REMARK VINA RESULT:      -8.8      5.693     10.292
REMARK  Name = 
REMARK  8 active torsions:
REMARK  status: ('A' for Active; 'I' for Inactive)
REMARK    1  A    between atoms: C_2  and  C_3
REMARK    2  A    between atoms: C_3  and  N_4
REMARK    3  A    between atoms: N_4  and  C_20
REMARK    4  A    between atoms: C_5  and  C_7
REMARK    5  A    between atoms: C_7  and  N_8
REMARK    6  A    between atoms: C_11  and  C_12
REMARK    7  A    between atoms: N_30  and  C_31
REMARK    8  A    between atoms: C_31  and  C_32
REMARK                            x       y       z     vdW  Elec       q    Type
REMARK                         _______ _______ _______ _____ _____    ______ ____
ROOT
ATOM      1  N   UNL     1      -0.399  11.630  19.035  0.00  0.00    +0.000 N 
ATOM      2  C   UNL     1       0.219  12.899  19.163  0.00  0.00    +0.000 C 
ATOM      3  O   UNL     1      -0.170  13.882  18.545  0.00  0.00    +0.000 OA
ENDROOT
BRANCH   1   4
ATOM      4  C   UNL     1       0.060  10.519  19.817  0.00  0.00    +0.000 A 
ATOM      5  C   UNL     1      -0.366  10.466  21.171  0.00  0.00    +0.000 A 
ATOM      6  C   UNL     1      -0.117   9.369  21.984  0.00  0.00    +0.000 A 
ATOM      7  C   UNL     1       0.649   8.337  21.480  0.00  0.00    +0.000 A 
ATOM      8  C   UNL     1       1.177   8.402  20.180  0.00  0.00    +0.000 A 
ATOM      9  C   UNL     1       0.885   9.498  19.325  0.00  0.00    +0.000 A 
ATOM     10  C   UNL     1       1.522   9.566  17.955  0.00  0.00    +0.000 C 
ATOM     11  C   UNL     1       2.769   8.692  17.818  0.00  0.00    +0.000 C 
ATOM     12  C   UNL     1       2.473   7.284  18.312  0.00  0.00    +0.000 C 
ATOM     13  C   UNL     1       2.152   7.314  19.797  0.00  0.00    +0.000 C 
ENDBRANCH   1   4
BRANCH   1  14
ATOM     14  C   UNL     1      -1.498  11.467  18.039  0.00  0.00    +0.000 C 
BRANCH  14  16
ATOM     15  O   UNL     1      -3.744  10.705  17.506  0.00  0.00    +0.000 OA
ATOM     16  C   UNL     1      -3.054  11.397  18.267  0.00  0.00    +0.000 C 
ATOM     17  N   UNL     1      -3.738  12.163  19.171  0.00  0.00    +0.000 N 
ATOM     18  H   UNL     1      -4.724  11.941  19.242  0.00  0.00    +0.000 HD
BRANCH  17  19
ATOM     19  C   UNL     1      -3.118  12.820  20.264  0.00  0.00    +0.000 C 
BRANCH  19  20
ATOM     20  C   UNL     1      -3.746  12.744  21.615  0.00  0.00    +0.000 A 
ATOM     21  C   UNL     1      -3.029  12.261  22.714  0.00  0.00    +0.000 A 
ATOM     22  C   UNL     1      -3.575  12.349  23.993  0.00  0.00    +0.000 A 
ATOM     23  C   UNL     1      -4.832  12.926  24.181  0.00  0.00    +0.000 A 
ATOM     24  C   UNL     1      -5.544  13.425  23.091  0.00  0.00    +0.000 A 
ATOM     25  C   UNL     1      -5.004  13.331  21.813  0.00  0.00    +0.000 A 
ENDBRANCH  19  20
ENDBRANCH  17  19
ENDBRANCH  14  16
ENDBRANCH   1  14
BRANCH   2  26
ATOM     26  C   UNL     1       1.366  12.987  20.149  0.00  0.00    +0.000 C 
BRANCH  26  27
ATOM     27  N   UNL     1       1.128  13.866  21.269  0.00  0.00    +0.000 N 
ATOM     28  N   UNL     1       1.567  15.138  21.192  0.00  0.00    +0.000 NA
ATOM     29  N   UNL     1       0.733  15.836  21.945  0.00  0.00    +0.000 NA
ATOM     30  C   UNL     1      -0.197  14.954  22.436  0.00  0.00    +0.000 A 
ATOM     31  N   UNL     1       0.010  13.697  22.008  0.00  0.00    +0.000 NA
BRANCH  30  32
ATOM     32  C   UNL     1      -1.287  15.335  23.314  0.00  0.00    +0.000 A 
ATOM     33  C   UNL     1      -1.197  15.106  24.697  0.00  0.00    +0.000 A 
ATOM     34  C   UNL     1      -2.215  15.525  25.557  0.00  0.00    +0.000 A 
ATOM     35  C   UNL     1      -3.330  16.179  25.043  0.00  0.00    +0.000 A 
ATOM     36  C   UNL     1      -3.446  16.388  23.669  0.00  0.00    +0.000 A 
ATOM     37  C   UNL     1      -2.432  15.960  22.815  0.00  0.00    +0.000 A 
ATOM     38  F   UNL     1      -2.590  16.178  21.501  0.00  0.00    +0.000 F 
ENDBRANCH  30  32
ENDBRANCH  26  27
ENDBRANCH   2  26
TORSDOF 8
ENDMDL
MODEL 6
REMARK VINA RESULT:      -8.7      1.690      2.133
REMARK  Name = 
REMARK  8 active torsions:
REMARK  status: ('A' for Active; 'I' for Inactive)
REMARK    1  A    between atoms: C_2  and  C_3
REMARK    2  A    between atoms: C_3  and  N_4
REMARK    3  A    between atoms: N_4  and  C_20
REMARK    4  A    between atoms: C_5  and  C_7
REMARK    5  A    between atoms: C_7  and  N_8
REMARK    6  A    between atoms: C_11  and  C_12
REMARK    7  A    between atoms: N_30  and  C_31
REMARK    8  A    between atoms: C_31  and  C_32
REMARK                            x       y       z     vdW  Elec       q    Type
REMARK                         _______ _______ _______ _____ _____    ______ ____
ROOT
ATOM      1  N   UNL     1       4.579   5.602  18.198  0.00  0.00    +0.000 N 
ATOM      2  C   UNL     1       4.064   6.867  17.823  0.00  0.00    +0.000 C 
ATOM      3  O   UNL     1       4.765   7.871  17.774  0.00  0.00    +0.000 OA
ENDROOT
BRANCH   1   4
ATOM      4  C   UNL     1       3.731   4.444  18.192  0.00  0.00    +0.000 A 
ATOM      5  C   UNL     1       3.617   3.736  16.966  0.00  0.00    +0.000 A 
ATOM      6  C   UNL     1       2.954   2.522  16.870  0.00  0.00    +0.000 A 
ATOM      7  C   UNL     1       2.308   2.035  17.989  0.00  0.00    +0.000 A 
ATOM      8  C   UNL     1       2.309   2.759  19.192  0.00  0.00    +0.000 A 
ATOM      9  C   UNL     1       3.028   3.978  19.312  0.00  0.00    +0.000 A 
ATOM     10  C   UNL     1       2.955   4.764  20.602  0.00  0.00    +0.000 C 
ATOM     11  C   UNL     1       1.750   4.400  21.470  0.00  0.00    +0.000 C 
ATOM     12  C   UNL     1       1.668   2.891  21.640  0.00  0.00    +0.000 C 
ATOM     13  C   UNL     1       1.420   2.233  20.293  0.00  0.00    +0.000 C 
ENDBRANCH   1   4
BRANCH   1  14
ATOM     14  C   UNL     1       6.001   5.510  18.643  0.00  0.00    +0.000 C 
BRANCH  14  16
ATOM     15  O   UNL     1       8.171   4.423  18.519  0.00  0.00    +0.000 OA
ATOM     16  C   UNL     1       7.257   4.953  17.874  0.00  0.00    +0.000 C 
ATOM     17  N   UNL     1       7.488   5.134  16.538  0.00  0.00    +0.000 N 
ATOM     18  H   UNL     1       8.305   4.649  16.188  0.00  0.00    +0.000 HD
BRANCH  17  19
ATOM     19  C   UNL     1       6.476   5.496  15.612  0.00  0.00    +0.000 C 
BRANCH  19  20
ATOM     20  C   UNL     1       6.518   4.942  14.228  0.00  0.00    +0.000 A 
ATOM     21  C   UNL     1       7.568   5.259  13.359  0.00  0.00    +0.000 A 
ATOM     22  C   UNL     1       7.675   4.606  12.133  0.00  0.00    +0.000 A 
ATOM     23  C   UNL     1       6.743   3.631  11.773  0.00  0.00    +0.000 A 
ATOM     24  C   UNL     1       5.705   3.299  12.642  0.00  0.00    +0.000 A 
ATOM     25  C   UNL     1       5.592   3.954  13.864  0.00  0.00    +0.000 A 
ENDBRANCH  19  20
ENDBRANCH  17  19
ENDBRANCH  14  16
ENDBRANCH   1  14
BRANCH   2  26
ATOM     26  C   UNL     1       2.599   6.905  17.436  0.00  0.00    +0.000 C 
BRANCH  26  27
ATOM     27  N   UNL     1       1.789   7.787  18.242  0.00  0.00    +0.000 N 
ATOM     28  N   UNL     1       2.036   7.855  19.565  0.00  0.00    +0.000 NA
ATOM     29  N   UNL     1       1.676   9.078  19.919  0.00  0.00    +0.000 NA
ATOM     30  C   UNL     1       1.239   9.712  18.783  0.00  0.00    +0.000 A 
ATOM     31  N   UNL     1       1.319   8.928  17.694  0.00  0.00    +0.000 NA
BRANCH  30  32
ATOM     32  C   UNL     1       0.751  11.078  18.757  0.00  0.00    +0.000 A 
ATOM     33  C   UNL     1      -0.600  11.353  19.023  0.00  0.00    +0.000 A 
ATOM     34  C   UNL     1      -1.065  12.670  19.060  0.00  0.00    +0.000 A 
ATOM     35  C   UNL     1      -0.184  13.722  18.835  0.00  0.00    +0.000 A 
ATOM     36  C   UNL     1       1.154  13.462  18.542  0.00  0.00    +0.000 A 
ATOM     37  C   UNL     1       1.611  12.148  18.497  0.00  0.00    +0.000 A 
ATOM     38  F   UNL     1       2.905  11.946  18.206  0.00  0.00    +0.000 F 
ENDBRANCH  30  32
ENDBRANCH  26  27
ENDBRANCH   2  26
TORSDOF 8
ENDMDL
MODEL 7
REMARK VINA RESULT:      -8.6      1.745      2.244
REMARK  Name = 
REMARK  8 active torsions:
REMARK  status: ('A' for Active; 'I' for Inactive)
REMARK    1  A    between atoms: C_2  and  C_3
REMARK    2  A    between atoms: C_3  and  N_4
REMARK    3  A    between atoms: N_4  and  C_20
REMARK    4  A    between atoms: C_5  and  C_7
REMARK    5  A    between atoms: C_7  and  N_8
REMARK    6  A    between atoms: C_11  and  C_12
REMARK    7  A    between atoms: N_30  and  C_31
REMARK    8  A    between atoms: C_31  and  C_32
REMARK                            x       y       z     vdW  Elec       q    Type
REMARK                         _______ _______ _______ _____ _____    ______ ____
ROOT
ATOM      1  N   UNL     1       4.466   5.915  18.035  0.00  0.00    +0.000 N 
ATOM      2  C   UNL     1       3.810   7.152  17.816  0.00  0.00    +0.000 C 
ATOM      3  O   UNL     1       4.418   8.213  17.747  0.00  0.00    +0.000 OA
ENDROOT
BRANCH   1   4
ATOM      4  C   UNL     1       3.717   4.692  18.059  0.00  0.00    +0.000 A 
ATOM      5  C   UNL     1       3.642   3.960  16.843  0.00  0.00    +0.000 A 
ATOM      6  C   UNL     1       3.080   2.694  16.774  0.00  0.00    +0.000 A 
ATOM      7  C   UNL     1       2.494   2.171  17.910  0.00  0.00    +0.000 A 
ATOM      8  C   UNL     1       2.455   2.910  19.104  0.00  0.00    +0.000 A 
ATOM      9  C   UNL     1       3.072   4.185  19.196  0.00  0.00    +0.000 A 
ATOM     10  C   UNL     1       2.955   4.980  20.478  0.00  0.00    +0.000 C 
ATOM     11  C   UNL     1       1.798   4.531  21.370  0.00  0.00    +0.000 C 
ATOM     12  C   UNL     1       1.844   3.023  21.561  0.00  0.00    +0.000 C 
ATOM     13  C   UNL     1       1.630   2.328  20.226  0.00  0.00    +0.000 C 
ENDBRANCH   1   4
BRANCH   1  14
ATOM     14  C   UNL     1       5.937   5.920  18.289  0.00  0.00    +0.000 C 
BRANCH  14  16
ATOM     15  O   UNL     1       7.671   7.541  17.767  0.00  0.00    +0.000 OA
ATOM     16  C   UNL     1       7.103   6.502  17.406  0.00  0.00    +0.000 C 
ATOM     17  N   UNL     1       7.455   6.020  16.175  0.00  0.00    +0.000 N 
ATOM     18  H   UNL     1       8.274   6.461  15.774  0.00  0.00    +0.000 HD
BRANCH  17  19
ATOM     19  C   UNL     1       7.094   4.730  15.710  0.00  0.00    +0.000 C 
BRANCH  19  20
ATOM     20  C   UNL     1       6.805   4.529  14.260  0.00  0.00    +0.000 A 
ATOM     21  C   UNL     1       7.675   5.017  13.280  0.00  0.00    +0.000 A 
ATOM     22  C   UNL     1       7.473   4.680  11.943  0.00  0.00    +0.000 A 
ATOM     23  C   UNL     1       6.411   3.851  11.580  0.00  0.00    +0.000 A 
ATOM     24  C   UNL     1       5.551   3.347  12.555  0.00  0.00    +0.000 A 
ATOM     25  C   UNL     1       5.746   3.688  13.890  0.00  0.00    +0.000 A 
ENDBRANCH  19  20
ENDBRANCH  17  19
ENDBRANCH  14  16
ENDBRANCH   1  14
BRANCH   2  26
ATOM     26  C   UNL     1       2.308   7.087  17.622  0.00  0.00    +0.000 C 
BRANCH  26  27
ATOM     27  N   UNL     1       1.566   8.089  18.348  0.00  0.00    +0.000 N 
ATOM     28  N   UNL     1       1.648   8.099  19.694  0.00  0.00    +0.000 NA
ATOM     29  N   UNL     1       1.462   9.362  20.040  0.00  0.00    +0.000 NA
ATOM     30  C   UNL     1       1.292  10.075  18.879  0.00  0.00    +0.000 A 
ATOM     31  N   UNL     1       1.375   9.301  17.783  0.00  0.00    +0.000 NA
BRANCH  30  32
ATOM     32  C   UNL     1       1.056  11.505  18.837  0.00  0.00    +0.000 A 
ATOM     33  C   UNL     1       2.110  12.391  18.556  0.00  0.00    +0.000 A 
ATOM     34  C   UNL     1       1.879  13.764  18.452  0.00  0.00    +0.000 A 
ATOM     35  C   UNL     1       0.592  14.265  18.625  0.00  0.00    +0.000 A 
ATOM     36  C   UNL     1      -0.458  13.401  18.932  0.00  0.00    +0.000 A 
ATOM     37  C   UNL     1      -0.221  12.033  19.043  0.00  0.00    +0.000 A 
ATOM     38  F   UNL     1      -1.261  11.242  19.346  0.00  0.00    +0.000 F 
ENDBRANCH  30  32
ENDBRANCH  26  27
ENDBRANCH   2  26
TORSDOF 8
ENDMDL
MODEL 8
REMARK VINA RESULT:      -8.6      1.476      1.781
REMARK  Name = 
REMARK  8 active torsions:
REMARK  status: ('A' for Active; 'I' for Inactive)
REMARK    1  A    between atoms: C_2  and  C_3
REMARK    2  A    between atoms: C_3  and  N_4
REMARK    3  A    between atoms: N_4  and  C_20
REMARK    4  A    between atoms: C_5  and  C_7
REMARK    5  A    between atoms: C_7  and  N_8
REMARK    6  A    between atoms: C_11  and  C_12
REMARK    7  A    between atoms: N_30  and  C_31
REMARK    8  A    between atoms: C_31  and  C_32
REMARK                            x       y       z     vdW  Elec       q    Type
REMARK                         _______ _______ _______ _____ _____    ______ ____
ROOT
ATOM      1  N   UNL     1       4.910   5.305  18.094  0.00  0.00    +0.000 N 
ATOM      2  C   UNL     1       4.554   6.642  17.787  0.00  0.00    +0.000 C 
ATOM      3  O   UNL     1       5.383   7.540  17.711  0.00  0.00    +0.000 OA
ENDROOT
BRANCH   1   4
ATOM      4  C   UNL     1       3.909   4.277  18.123  0.00  0.00    +0.000 A 
ATOM      5  C   UNL     1       3.690   3.560  16.916  0.00  0.00    +0.000 A 
ATOM      6  C   UNL     1       2.863   2.447  16.856  0.00  0.00    +0.000 A 
ATOM      7  C   UNL     1       2.163   2.085  17.989  0.00  0.00    +0.000 A 
ATOM      8  C   UNL     1       2.273   2.834  19.172  0.00  0.00    +0.000 A 
ATOM      9  C   UNL     1       3.156   3.944  19.256  0.00  0.00    +0.000 A 
ATOM     10  C   UNL     1       3.201   4.767  20.525  0.00  0.00    +0.000 C 
ATOM     11  C   UNL     1       1.963   4.598  21.406  0.00  0.00    +0.000 C 
ATOM     12  C   UNL     1       1.673   3.120  21.617  0.00  0.00    +0.000 C 
ATOM     13  C   UNL     1       1.327   2.467  20.289  0.00  0.00    +0.000 C 
ENDBRANCH   1   4
BRANCH   1  14
ATOM     14  C   UNL     1       6.331   5.003  18.432  0.00  0.00    +0.000 C 
BRANCH  14  16
ATOM     15  O   UNL     1       8.532   4.070  17.990  0.00  0.00    +0.000 OA
ATOM     16  C   UNL     1       7.514   4.567  17.489  0.00  0.00    +0.000 C 
ATOM     17  N   UNL     1       7.568   4.824  16.147  0.00  0.00    +0.000 N 
ATOM     18  H   UNL     1       8.364   4.411  15.676  0.00  0.00    +0.000 HD
BRANCH  17  19
ATOM     19  C   UNL     1       6.430   5.160  15.371  0.00  0.00    +0.000 C 
BRANCH  19  20
ATOM     20  C   UNL     1       6.298   4.612  13.990  0.00  0.00    +0.000 A 
ATOM     21  C   UNL     1       7.389   4.598  13.115  0.00  0.00    +0.000 A 
ATOM     22  C   UNL     1       7.290   3.937  11.893  0.00  0.00    +0.000 A 
ATOM     23  C   UNL     1       6.109   3.280  11.542  0.00  0.00    +0.000 A 
ATOM     24  C   UNL     1       5.025   3.276  12.418  0.00  0.00    +0.000 A 
ATOM     25  C   UNL     1       5.118   3.941  13.636  0.00  0.00    +0.000 A 
ENDBRANCH  19  20
ENDBRANCH  17  19
ENDBRANCH  14  16
ENDBRANCH   1  14
BRANCH   2  26
ATOM     26  C   UNL     1       3.085   6.896  17.508  0.00  0.00    +0.000 C 
BRANCH  26  27
ATOM     27  N   UNL     1       2.593   8.163  17.994  0.00  0.00    +0.000 N 
ATOM     28  N   UNL     1       3.134   9.293  17.498  0.00  0.00    +0.000 NA
ATOM     29  N   UNL     1       2.171  10.197  17.574  0.00  0.00    +0.000 NA
ATOM     30  C   UNL     1       1.070   9.566  18.099  0.00  0.00    +0.000 A 
ATOM     31  N   UNL     1       1.296   8.266  18.356  0.00  0.00    +0.000 NA
BRANCH  30  32
ATOM     32  C   UNL     1      -0.198  10.225  18.344  0.00  0.00    +0.000 A 
ATOM     33  C   UNL     1      -1.298   9.982  17.504  0.00  0.00    +0.000 A 
ATOM     34  C   UNL     1      -2.540  10.564  17.769  0.00  0.00    +0.000 A 
ATOM     35  C   UNL     1      -2.694  11.392  18.876  0.00  0.00    +0.000 A 
ATOM     36  C   UNL     1      -1.605  11.664  19.702  0.00  0.00    +0.000 A 
ATOM     37  C   UNL     1      -0.366  11.089  19.429  0.00  0.00    +0.000 A 
ATOM     38  F   UNL     1       0.654  11.385  20.247  0.00  0.00    +0.000 F 
ENDBRANCH  30  32
ENDBRANCH  26  27
ENDBRANCH   2  26
TORSDOF 8
ENDMDL
MODEL 9
REMARK VINA RESULT:      -8.6      1.644      2.494
REMARK  Name = 
REMARK  8 active torsions:
REMARK  status: ('A' for Active; 'I' for Inactive)
REMARK    1  A    between atoms: C_2  and  C_3
REMARK    2  A    between atoms: C_3  and  N_4
REMARK    3  A    between atoms: N_4  and  C_20
REMARK    4  A    between atoms: C_5  and  C_7
REMARK    5  A    between atoms: C_7  and  N_8
REMARK    6  A    between atoms: C_11  and  C_12
REMARK    7  A    between atoms: N_30  and  C_31
REMARK    8  A    between atoms: C_31  and  C_32
REMARK                            x       y       z     vdW  Elec       q    Type
REMARK                         _______ _______ _______ _____ _____    ______ ____
ROOT
ATOM      1  N   UNL     1       4.499   5.966  18.602  0.00  0.00    +0.000 N 
ATOM      2  C   UNL     1       4.287   7.018  17.676  0.00  0.00    +0.000 C 
ATOM      3  O   UNL     1       5.207   7.553  17.070  0.00  0.00    +0.000 OA
ENDROOT
BRANCH   1   4
ATOM      4  C   UNL     1       3.385   5.336  19.250  0.00  0.00    +0.000 A 
ATOM      5  C   UNL     1       2.760   6.058  20.302  0.00  0.00    +0.000 A 
ATOM      6  C   UNL     1       1.586   5.626  20.902  0.00  0.00    +0.000 A 
ATOM      7  C   UNL     1       1.063   4.406  20.521  0.00  0.00    +0.000 A 
ATOM      8  C   UNL     1       1.712   3.614  19.559  0.00  0.00    +0.000 A 
ATOM      9  C   UNL     1       2.885   4.073  18.905  0.00  0.00    +0.000 A 
ATOM     10  C   UNL     1       3.593   3.167  17.921  0.00  0.00    +0.000 C 
ATOM     11  C   UNL     1       3.235   1.690  18.086  0.00  0.00    +0.000 C 
ATOM     12  C   UNL     1       1.724   1.524  18.128  0.00  0.00    +0.000 C 
ATOM     13  C   UNL     1       1.161   2.223  19.354  0.00  0.00    +0.000 C 
ENDBRANCH   1   4
BRANCH   1  14
ATOM     14  C   UNL     1       5.901   5.566  18.921  0.00  0.00    +0.000 C 
BRANCH  14  16
ATOM     15  O   UNL     1       8.084   6.609  18.691  0.00  0.00    +0.000 OA
ATOM     16  C   UNL     1       7.235   5.888  18.150  0.00  0.00    +0.000 C 
ATOM     17  N   UNL     1       7.478   5.542  16.849  0.00  0.00    +0.000 N 
ATOM     18  H   UNL     1       8.414   5.760  16.529  0.00  0.00    +0.000 HD
BRANCH  17  19
ATOM     19  C   UNL     1       6.751   4.539  16.159  0.00  0.00    +0.000 C 
BRANCH  19  20
ATOM     20  C   UNL     1       6.751   4.531  14.667  0.00  0.00    +0.000 A 
ATOM     21  C   UNL     1       7.676   5.292  13.944  0.00  0.00    +0.000 A 
ATOM     22  C   UNL     1       7.765   5.146  12.562  0.00  0.00    +0.000 A 
ATOM     23  C   UNL     1       6.941   4.237  11.897  0.00  0.00    +0.000 A 
ATOM     24  C   UNL     1       6.030   3.463  12.614  0.00  0.00    +0.000 A 
ATOM     25  C   UNL     1       5.933   3.613  13.993  0.00  0.00    +0.000 A 
ENDBRANCH  19  20
ENDBRANCH  17  19
ENDBRANCH  14  16
ENDBRANCH   1  14
BRANCH   2  26
ATOM     26  C   UNL     1       2.844   7.416  17.437  0.00  0.00    +0.000 C 
BRANCH  26  27
ATOM     27  N   UNL     1       2.469   8.685  18.014  0.00  0.00    +0.000 N 
ATOM     28  N   UNL     1       2.966   9.811  17.466  0.00  0.00    +0.000 NA
ATOM     29  N   UNL     1       2.053  10.740  17.702  0.00  0.00    +0.000 NA
ATOM     30  C   UNL     1       1.023  10.128  18.372  0.00  0.00    +0.000 A 
ATOM     31  N   UNL     1       1.244   8.816  18.567  0.00  0.00    +0.000 NA
BRANCH  30  32
ATOM     32  C   UNL     1      -0.174  10.816  18.815  0.00  0.00    +0.000 A 
ATOM     33  C   UNL     1      -1.353  10.751  18.054  0.00  0.00    +0.000 A 
ATOM     34  C   UNL     1      -2.527  11.359  18.505  0.00  0.00    +0.000 A 
ATOM     35  C   UNL     1      -2.534  12.035  19.721  0.00  0.00    +0.000 A 
ATOM     36  C   UNL     1      -1.364  12.131  20.473  0.00  0.00    +0.000 A 
ATOM     37  C   UNL     1      -0.194  11.531  20.016  0.00  0.00    +0.000 A 
ATOM     38  F   UNL     1       0.908  11.655  20.770  0.00  0.00    +0.000 F 
ENDBRANCH  30  32
ENDBRANCH  26  27
ENDBRANCH   2  26
TORSDOF 8
ENDMDL
