MODEL 1
REMARK VINA RESULT:      -7.7      0.000      0.000
REMARK  Name = 
REMARK  6 active torsions:
REMARK  status: ('A' for Active; 'I' for Inactive)
REMARK    1  A    between atoms: C_1  and  C_2
REMARK    2  A    between atoms: C_2  and  C_3
REMARK    3  A    between atoms: C_2  and  N_4
REMARK    4  A    between atoms: C_6  and  S_7
REMARK    5  A    between atoms: S_7  and  N_10
REMARK    6  A    between atoms: C_14  and  N_15
REMARK                            x       y       z     vdW  Elec       q    Type
REMARK                         _______ _______ _______ _____ _____    ______ ____
ROOT
ATOM      1  N   UNL     1       5.604   6.468  17.959  0.00  0.00    +0.000 NA
ATOM      2  C   UNL     1       4.706   7.045  16.922  0.00  0.00    +0.000 C 
ATOM      3  C   UNL     1       3.472   7.652  17.566  0.00  0.00    +0.000 C 
ATOM      4  C   UNL     1       2.682   6.585  18.311  0.00  0.00    +0.000 C 
ATOM      5  C   UNL     1       3.543   5.918  19.399  0.00  0.00    +0.000 C 
ATOM      6  C   UNL     1       4.924   5.470  18.848  0.00  0.00    +0.000 C 
ENDROOT
BRANCH   5   7
ATOM      7  N   UNL     1       2.858   4.814  20.132  0.00  0.00    +0.000 NA
ATOM      8  C   UNL     1       1.499   4.556  19.627  0.00  0.00    +0.000 C 
ATOM      9  C   UNL     1       0.753   3.530  20.486  0.00  0.00    +0.000 C 
ATOM     10  C   UNL     1       1.542   2.233  20.614  0.00  0.00    +0.000 C 
ATOM     11  C   UNL     1       2.948   2.531  21.108  0.00  0.00    +0.000 C 
ATOM     12  C   UNL     1       3.634   3.565  20.216  0.00  0.00    +0.000 C 
ENDBRANCH   5   7
BRANCH   1  13
ATOM     13  S   UNL     1       7.023   5.756  17.270  0.00  0.00    +0.000 S 
ATOM     14  O   UNL     1       7.570   4.816  18.228  0.00  0.00    +0.000 OA
ATOM     15  O   UNL     1       7.827   6.808  16.690  0.00  0.00    +0.000 OA
BRANCH  13  18
ATOM     16  N   UNL     1       6.404   3.929  13.944  0.00  0.00    +0.000 N 
ATOM     17  C   UNL     1       6.975   4.962  14.626  0.00  0.00    +0.000 A 
ATOM     18  C   UNL     1       6.563   4.812  15.928  0.00  0.00    +0.000 A 
ATOM     19  C   UNL     1       5.720   3.695  15.934  0.00  0.00    +0.000 A 
ATOM     20  N   UNL     1       5.592   3.166  14.710  0.00  0.00    +0.000 NA
BRANCH  16  22
ATOM     21  C   UNL     1       5.326   3.181  11.853  0.00  0.00    +0.000 C 
ATOM     22  C   UNL     1       6.626   3.595  12.540  0.00  0.00    +0.000 C 
ATOM     23  C   UNL     1       7.323   4.732  11.803  0.00  0.00    +0.000 C 
ENDBRANCH  16  22
ENDBRANCH  13  18
ENDBRANCH   1  13
TORSDOF 4
ENDMDL
MODEL 2
REMARK VINA RESULT:      -7.7      1.755      3.386
REMARK  Name = 
REMARK  6 active torsions:
REMARK  status: ('A' for Active; 'I' for Inactive)
REMARK    1  A    between atoms: C_1  and  C_2
REMARK    2  A    between atoms: C_2  and  C_3
REMARK    3  A    between atoms: C_2  and  N_4
REMARK    4  A    between atoms: C_6  and  S_7
REMARK    5  A    between atoms: S_7  and  N_10
REMARK    6  A    between atoms: C_14  and  N_15
REMARK                            x       y       z     vdW  Elec       q    Type
REMARK                         _______ _______ _______ _____ _____    ______ ____
ROOT
ATOM      1  N   UNL     1       5.250   5.023  17.309  0.00  0.00    +0.000 NA
ATOM      2  C   UNL     1       5.424   4.152  18.504  0.00  0.00    +0.000 C 
ATOM      3  C   UNL     1       4.086   3.889  19.170  0.00  0.00    +0.000 C 
ATOM      4  C   UNL     1       3.463   5.195  19.644  0.00  0.00    +0.000 C 
ATOM      5  C   UNL     1       3.259   6.169  18.469  0.00  0.00    +0.000 C 
ATOM      6  C   UNL     1       4.544   6.311  17.609  0.00  0.00    +0.000 C 
ENDROOT
BRANCH   5   7
ATOM      7  N   UNL     1       2.710   7.500  18.863  0.00  0.00    +0.000 NA
ATOM      8  C   UNL     1       2.080   8.208  17.737  0.00  0.00    +0.000 C 
ATOM      9  C   UNL     1       1.659   9.632  18.118  0.00  0.00    +0.000 C 
ATOM     10  C   UNL     1       0.751   9.634  19.341  0.00  0.00    +0.000 C 
ATOM     11  C   UNL     1       1.412   8.872  20.477  0.00  0.00    +0.000 C 
ATOM     12  C   UNL     1       1.814   7.466  20.031  0.00  0.00    +0.000 C 
ENDBRANCH   5   7
BRANCH   1  13
ATOM     13  S   UNL     1       6.753   5.357  16.520  0.00  0.00    +0.000 S 
ATOM     14  O   UNL     1       7.796   4.614  17.196  0.00  0.00    +0.000 OA
ATOM     15  O   UNL     1       6.850   6.784  16.306  0.00  0.00    +0.000 OA
BRANCH  13  18
ATOM     16  N   UNL     1       6.153   3.598  13.154  0.00  0.00    +0.000 N 
ATOM     17  C   UNL     1       5.904   3.687  14.492  0.00  0.00    +0.000 A 
ATOM     18  C   UNL     1       6.695   4.716  14.942  0.00  0.00    +0.000 A 
ATOM     19  C   UNL     1       7.412   5.161  13.826  0.00  0.00    +0.000 A 
ATOM     20  N   UNL     1       7.108   4.455  12.729  0.00  0.00    +0.000 NA
BRANCH  16  22
ATOM     21  C   UNL     1       4.375   3.456  11.447  0.00  0.00    +0.000 C 
ATOM     22  C   UNL     1       5.475   2.717  12.208  0.00  0.00    +0.000 C 
ATOM     23  C   UNL     1       6.467   2.047  11.265  0.00  0.00    +0.000 C 
ENDBRANCH  16  22
ENDBRANCH  13  18
ENDBRANCH   1  13
TORSDOF 4
ENDMDL
MODEL 3
REMARK VINA RESULT:      -7.6      1.717      3.403
REMARK  Name = 
REMARK  6 active torsions:
REMARK  status: ('A' for Active; 'I' for Inactive)
REMARK    1  A    between atoms: C_1  and  C_2
REMARK    2  A    between atoms: C_2  and  C_3
REMARK    3  A    between atoms: C_2  and  N_4
REMARK    4  A    between atoms: C_6  and  S_7
REMARK    5  A    between atoms: S_7  and  N_10
REMARK    6  A    between atoms: C_14  and  N_15
REMARK                            x       y       z     vdW  Elec       q    Type
REMARK                         _______ _______ _______ _____ _____    ______ ____
ROOT
ATOM      1  N   UNL     1       5.204   4.928  17.321  0.00  0.00    +0.000 NA
ATOM      2  C   UNL     1       5.528   4.278  18.620  0.00  0.00    +0.000 C 
ATOM      3  C   UNL     1       4.258   3.835  19.324  0.00  0.00    +0.000 C 
ATOM      4  C   UNL     1       3.369   5.036  19.623  0.00  0.00    +0.000 C 
ATOM      5  C   UNL     1       2.996   5.782  18.329  0.00  0.00    +0.000 C 
ATOM      6  C   UNL     1       4.242   6.070  17.450  0.00  0.00    +0.000 C 
ENDROOT
BRANCH   5   7
ATOM      7  N   UNL     1       2.177   7.011  18.545  0.00  0.00    +0.000 NA
ATOM      8  C   UNL     1       2.119   7.412  19.960  0.00  0.00    +0.000 C 
ATOM      9  C   UNL     1       1.153   8.579  20.187  0.00  0.00    +0.000 C 
ATOM     10  C   UNL     1       1.498   9.767  19.297  0.00  0.00    +0.000 C 
ATOM     11  C   UNL     1       1.581   9.319  17.848  0.00  0.00    +0.000 C 
ATOM     12  C   UNL     1       2.552   8.150  17.690  0.00  0.00    +0.000 C 
ENDBRANCH   5   7
BRANCH   1  13
ATOM     13  S   UNL     1       6.623   5.458  16.485  0.00  0.00    +0.000 S 
ATOM     14  O   UNL     1       7.780   4.895  17.151  0.00  0.00    +0.000 OA
ATOM     15  O   UNL     1       6.503   6.877  16.234  0.00  0.00    +0.000 OA
BRANCH  13  18
ATOM     16  N   UNL     1       6.150   3.604  13.150  0.00  0.00    +0.000 N 
ATOM     17  C   UNL     1       5.848   3.733  14.473  0.00  0.00    +0.000 A 
ATOM     18  C   UNL     1       6.625   4.771  14.925  0.00  0.00    +0.000 A 
ATOM     19  C   UNL     1       7.389   5.181  13.826  0.00  0.00    +0.000 A 
ATOM     20  N   UNL     1       7.126   4.445  12.738  0.00  0.00    +0.000 NA
BRANCH  16  22
ATOM     21  C   UNL     1       4.382   3.398  11.439  0.00  0.00    +0.000 C 
ATOM     22  C   UNL     1       5.506   2.699  12.202  0.00  0.00    +0.000 C 
ATOM     23  C   UNL     1       6.524   2.064  11.262  0.00  0.00    +0.000 C 
ENDBRANCH  16  22
ENDBRANCH  13  18
ENDBRANCH   1  13
TORSDOF 4
ENDMDL
MODEL 4
REMARK VINA RESULT:      -7.5      1.948      3.401
REMARK  Name = 
REMARK  6 active torsions:
REMARK  status: ('A' for Active; 'I' for Inactive)
REMARK    1  A    between atoms: C_1  and  C_2
REMARK    2  A    between atoms: C_2  and  C_3
REMARK    3  A    between atoms: C_2  and  N_4
REMARK    4  A    between atoms: C_6  and  S_7
REMARK    5  A    between atoms: S_7  and  N_10
REMARK    6  A    between atoms: C_14  and  N_15
REMARK                            x       y       z     vdW  Elec       q    Type
REMARK                         _______ _______ _______ _____ _____    ______ ____
ROOT
ATOM      1  N   UNL     1       4.776   5.007  16.718  0.00  0.00    +0.000 NA
ATOM      2  C   UNL     1       4.603   3.809  17.585  0.00  0.00    +0.000 C 
ATOM      3  C   UNL     1       3.151   3.661  18.004  0.00  0.00    +0.000 C 
ATOM      4  C   UNL     1       2.703   4.875  18.807  0.00  0.00    +0.000 C 
ATOM      5  C   UNL     1       2.864   6.169  17.989  0.00  0.00    +0.000 C 
ATOM      6  C   UNL     1       4.272   6.272  17.343  0.00  0.00    +0.000 C 
ENDROOT
BRANCH   5   7
ATOM      7  N   UNL     1       2.504   7.412  18.731  0.00  0.00    +0.000 NA
ATOM      8  C   UNL     1       1.748   8.367  17.904  0.00  0.00    +0.000 C 
ATOM      9  C   UNL     1       1.521   9.699  18.628  0.00  0.00    +0.000 C 
ATOM     10  C   UNL     1       0.843   9.490  19.976  0.00  0.00    +0.000 C 
ATOM     11  C   UNL     1       1.627   8.479  20.796  0.00  0.00    +0.000 C 
ATOM     12  C   UNL     1       1.827   7.179  20.017  0.00  0.00    +0.000 C 
ENDBRANCH   5   7
BRANCH   1  13
ATOM     13  S   UNL     1       6.420   5.221  16.222  0.00  0.00    +0.000 S 
ATOM     14  O   UNL     1       7.250   4.326  17.001  0.00  0.00    +0.000 OA
ATOM     15  O   UNL     1       6.692   6.639  16.144  0.00  0.00    +0.000 OA
BRANCH  13  18
ATOM     16  N   UNL     1       6.233   3.784  12.661  0.00  0.00    +0.000 N 
ATOM     17  C   UNL     1       5.742   3.837  13.931  0.00  0.00    +0.000 A 
ATOM     18  C   UNL     1       6.577   4.691  14.610  0.00  0.00    +0.000 A 
ATOM     19  C   UNL     1       7.559   5.074  13.690  0.00  0.00    +0.000 A 
ATOM     20  N   UNL     1       7.373   4.494  12.497  0.00  0.00    +0.000 NA
BRANCH  16  22
ATOM     21  C   UNL     1       6.017   1.609  11.514  0.00  0.00    +0.000 C 
ATOM     22  C   UNL     1       5.628   3.086  11.530  0.00  0.00    +0.000 C 
ATOM     23  C   UNL     1       4.116   3.277  11.505  0.00  0.00    +0.000 C 
ENDBRANCH  16  22
ENDBRANCH  13  18
ENDBRANCH   1  13
TORSDOF 4
ENDMDL
MODEL 5
REMARK VINA RESULT:      -7.4      2.877      7.551
REMARK  Name = 
REMARK  6 active torsions:
REMARK  status: ('A' for Active; 'I' for Inactive)
REMARK    1  A    between atoms: C_1  and  C_2
REMARK    2  A    between atoms: C_2  and  C_3
REMARK    3  A    between atoms: C_2  and  N_4
REMARK    4  A    between atoms: C_6  and  S_7
REMARK    5  A    between atoms: S_7  and  N_10
REMARK    6  A    between atoms: C_14  and  N_15
REMARK                            x       y       z     vdW  Elec       q    Type
REMARK                         _______ _______ _______ _____ _____    ______ ____
ROOT
ATOM      1  N   UNL     1       4.960   5.699  18.091  0.00  0.00    +0.000 NA
ATOM      2  C   UNL     1       5.981   4.888  18.810  0.00  0.00    +0.000 C 
ATOM      3  C   UNL     1       7.363   5.145  18.236  0.00  0.00    +0.000 C 
ATOM      4  C   UNL     1       7.411   4.744  16.767  0.00  0.00    +0.000 C 
ATOM      5  C   UNL     1       6.370   5.526  15.946  0.00  0.00    +0.000 C 
ATOM      6  C   UNL     1       4.967   5.486  16.607  0.00  0.00    +0.000 C 
ENDROOT
BRANCH   5   7
ATOM      7  N   UNL     1       6.312   5.142  14.505  0.00  0.00    +0.000 NA
ATOM      8  C   UNL     1       7.636   5.153  13.862  0.00  0.00    +0.000 C 
ATOM      9  C   UNL     1       7.544   4.910  12.352  0.00  0.00    +0.000 C 
ATOM     10  C   UNL     1       6.798   3.618  12.043  0.00  0.00    +0.000 C 
ATOM     11  C   UNL     1       5.449   3.620  12.742  0.00  0.00    +0.000 C 
ATOM     12  C   UNL     1       5.609   3.876  14.240  0.00  0.00    +0.000 C 
ENDBRANCH   5   7
BRANCH   1  13
ATOM     13  S   UNL     1       3.364   5.432  18.707  0.00  0.00    +0.000 S 
ATOM     14  O   UNL     1       3.478   4.915  20.055  0.00  0.00    +0.000 OA
ATOM     15  O   UNL     1       2.591   4.753  17.692  0.00  0.00    +0.000 OA
BRANCH  13  18
ATOM     16  N   UNL     1       1.526   8.678  19.641  0.00  0.00    +0.000 N 
ATOM     17  C   UNL     1       1.889   7.402  19.958  0.00  0.00    +0.000 A 
ATOM     18  C   UNL     1       2.584   6.939  18.868  0.00  0.00    +0.000 A 
ATOM     19  C   UNL     1       2.559   7.978  17.931  0.00  0.00    +0.000 A 
ATOM     20  N   UNL     1       1.881   9.040  18.387  0.00  0.00    +0.000 NA
BRANCH  16  22
ATOM     21  C   UNL     1      -0.210  10.427  19.774  0.00  0.00    +0.000 C 
ATOM     22  C   UNL     1       0.854   9.628  20.523  0.00  0.00    +0.000 C 
ATOM     23  C   UNL     1       0.284   8.934  21.754  0.00  0.00    +0.000 C 
ENDBRANCH  16  22
ENDBRANCH  13  18
ENDBRANCH   1  13
TORSDOF 4
ENDMDL
MODEL 6
REMARK VINA RESULT:      -7.2      2.865      7.288
REMARK  Name = 
REMARK  6 active torsions:
REMARK  status: ('A' for Active; 'I' for Inactive)
REMARK    1  A    between atoms: C_1  and  C_2
REMARK    2  A    between atoms: C_2  and  C_3
REMARK    3  A    between atoms: C_2  and  N_4
REMARK    4  A    between atoms: C_6  and  S_7
REMARK    5  A    between atoms: S_7  and  N_10
REMARK    6  A    between atoms: C_14  and  N_15
REMARK                            x       y       z     vdW  Elec       q    Type
REMARK                         _______ _______ _______ _____ _____    ______ ____
ROOT
ATOM      1  N   UNL     1       4.824   5.860  18.201  0.00  0.00    +0.000 NA
ATOM      2  C   UNL     1       5.855   5.089  18.947  0.00  0.00    +0.000 C 
ATOM      3  C   UNL     1       7.236   5.361  18.379  0.00  0.00    +0.000 C 
ATOM      4  C   UNL     1       7.306   4.925  16.922  0.00  0.00    +0.000 C 
ATOM      5  C   UNL     1       6.257   5.664  16.073  0.00  0.00    +0.000 C 
ATOM      6  C   UNL     1       4.848   5.612  16.723  0.00  0.00    +0.000 C 
ENDROOT
BRANCH   5   7
ATOM      7  N   UNL     1       6.219   5.245  14.641  0.00  0.00    +0.000 NA
ATOM      8  C   UNL     1       7.559   5.188  14.032  0.00  0.00    +0.000 C 
ATOM      9  C   UNL     1       7.494   4.908  12.527  0.00  0.00    +0.000 C 
ATOM     10  C   UNL     1       6.707   3.637  12.233  0.00  0.00    +0.000 C 
ATOM     11  C   UNL     1       5.343   3.709  12.897  0.00  0.00    +0.000 C 
ATOM     12  C   UNL     1       5.476   3.999  14.391  0.00  0.00    +0.000 C 
ENDBRANCH   5   7
BRANCH   1  13
ATOM     13  S   UNL     1       3.229   5.576  18.809  0.00  0.00    +0.000 S 
ATOM     14  O   UNL     1       3.344   4.974  20.122  0.00  0.00    +0.000 OA
ATOM     15  O   UNL     1       2.440   4.970  17.759  0.00  0.00    +0.000 OA
BRANCH  13  18
ATOM     16  N   UNL     1       1.531   9.026  18.802  0.00  0.00    +0.000 N 
ATOM     17  C   UNL     1       2.231   8.062  18.139  0.00  0.00    +0.000 A 
ATOM     18  C   UNL     1       2.468   7.079  19.069  0.00  0.00    +0.000 A 
ATOM     19  C   UNL     1       1.915   7.546  20.266  0.00  0.00    +0.000 A 
ATOM     20  N   UNL     1       1.365   8.759  20.117  0.00  0.00    +0.000 NA
BRANCH  16  22
ATOM     21  C   UNL     1      -0.570  10.198  18.248  0.00  0.00    +0.000 C 
ATOM     22  C   UNL     1       0.956  10.232  18.214  0.00  0.00    +0.000 C 
ATOM     23  C   UNL     1       1.512  11.489  18.874  0.00  0.00    +0.000 C 
ENDBRANCH  16  22
ENDBRANCH  13  18
ENDBRANCH   1  13
TORSDOF 4
ENDMDL
MODEL 7
REMARK VINA RESULT:      -7.1      2.556      7.418
REMARK  Name = 
REMARK  6 active torsions:
REMARK  status: ('A' for Active; 'I' for Inactive)
REMARK    1  A    between atoms: C_1  and  C_2
REMARK    2  A    between atoms: C_2  and  C_3
REMARK    3  A    between atoms: C_2  and  N_4
REMARK    4  A    between atoms: C_6  and  S_7
REMARK    5  A    between atoms: S_7  and  N_10
REMARK    6  A    between atoms: C_14  and  N_15
REMARK                            x       y       z     vdW  Elec       q    Type
REMARK                         _______ _______ _______ _____ _____    ______ ____
ROOT
ATOM      1  N   UNL     1       4.841   5.147  17.989  0.00  0.00    +0.000 NA
ATOM      2  C   UNL     1       5.995   4.516  18.686  0.00  0.00    +0.000 C 
ATOM      3  C   UNL     1       7.305   5.054  18.139  0.00  0.00    +0.000 C 
ATOM      4  C   UNL     1       7.435   4.729  16.657  0.00  0.00    +0.000 C 
ATOM      5  C   UNL     1       6.267   5.332  15.855  0.00  0.00    +0.000 C 
ATOM      6  C   UNL     1       4.894   5.000  16.498  0.00  0.00    +0.000 C 
ENDROOT
BRANCH   5   7
ATOM      7  N   UNL     1       6.288   5.003  14.399  0.00  0.00    +0.000 NA
ATOM      8  C   UNL     1       7.629   5.139  13.807  0.00  0.00    +0.000 C 
ATOM      9  C   UNL     1       7.607   4.950  12.286  0.00  0.00    +0.000 C 
ATOM     10  C   UNL     1       6.975   3.619  11.902  0.00  0.00    +0.000 C 
ATOM     11  C   UNL     1       5.606   3.491  12.550  0.00  0.00    +0.000 C 
ATOM     12  C   UNL     1       5.695   3.698  14.061  0.00  0.00    +0.000 C 
ENDBRANCH   5   7
BRANCH   1  13
ATOM     13  S   UNL     1       3.323   4.558  18.575  0.00  0.00    +0.000 S 
ATOM     14  O   UNL     1       3.586   3.529  19.560  0.00  0.00    +0.000 OA
ATOM     15  O   UNL     1       2.455   4.326  17.443  0.00  0.00    +0.000 OA
BRANCH  13  18
ATOM     16  N   UNL     1       1.697   7.724  20.030  0.00  0.00    +0.000 N 
ATOM     17  C   UNL     1       2.496   7.141  19.092  0.00  0.00    +0.000 A 
ATOM     18  C   UNL     1       2.546   5.811  19.430  0.00  0.00    +0.000 A 
ATOM     19  C   UNL     1       1.788   5.687  20.599  0.00  0.00    +0.000 A 
ATOM     20  N   UNL     1       1.289   6.866  20.993  0.00  0.00    +0.000 NA
BRANCH  16  22
ATOM     21  C   UNL     1       0.963   9.621  18.632  0.00  0.00    +0.000 C 
ATOM     22  C   UNL     1       1.254   9.115  20.043  0.00  0.00    +0.000 C 
ATOM     23  C   UNL     1       0.064   9.309  20.974  0.00  0.00    +0.000 C 
ENDBRANCH  16  22
ENDBRANCH  13  18
ENDBRANCH   1  13
TORSDOF 4
ENDMDL
MODEL 8
REMARK VINA RESULT:      -7.0      4.461      6.008
REMARK  Name = 
REMARK  6 active torsions:
REMARK  status: ('A' for Active; 'I' for Inactive)
REMARK    1  A    between atoms: C_1  and  C_2
REMARK    2  A    between atoms: C_2  and  C_3
REMARK    3  A    between atoms: C_2  and  N_4
REMARK    4  A    between atoms: C_6  and  S_7
REMARK    5  A    between atoms: S_7  and  N_10
REMARK    6  A    between atoms: C_14  and  N_15
REMARK                            x       y       z     vdW  Elec       q    Type
REMARK                         _______ _______ _______ _____ _____    ______ ____
ROOT
ATOM      1  N   UNL     1       2.314   7.345  19.299  0.00  0.00    +0.000 NA
ATOM      2  C   UNL     1       2.111   7.757  17.883  0.00  0.00    +0.000 C 
ATOM      3  C   UNL     1       2.153   9.270  17.759  0.00  0.00    +0.000 C 
ATOM      4  C   UNL     1       1.039   9.902  18.584  0.00  0.00    +0.000 C 
ATOM      5  C   UNL     1       1.162   9.513  20.068  0.00  0.00    +0.000 C 
ATOM      6  C   UNL     1       1.347   7.983  20.250  0.00  0.00    +0.000 C 
ENDROOT
BRANCH   5   7
ATOM      7  N   UNL     1       0.067  10.043  20.934  0.00  0.00    +0.000 NA
ATOM      8  C   UNL     1       0.315   9.810  22.366  0.00  0.00    +0.000 C 
ATOM      9  C   UNL     1      -0.883  10.219  23.230  0.00  0.00    +0.000 C 
ATOM     10  C   UNL     1      -1.284  11.666  22.974  0.00  0.00    +0.000 C 
ATOM     11  C   UNL     1      -1.504  11.886  21.486  0.00  0.00    +0.000 C 
ATOM     12  C   UNL     1      -0.279  11.452  20.682  0.00  0.00    +0.000 C 
ENDBRANCH   5   7
BRANCH   1  13
ATOM     13  S   UNL     1       2.265   5.625  19.491  0.00  0.00    +0.000 S 
ATOM     14  O   UNL     1       1.425   5.076  18.447  0.00  0.00    +0.000 OA
ATOM     15  O   UNL     1       2.039   5.328  20.888  0.00  0.00    +0.000 OA
BRANCH  13  18
ATOM     16  N   UNL     1       5.905   4.757  18.606  0.00  0.00    +0.000 N 
ATOM     17  C   UNL     1       4.845   5.609  18.507  0.00  0.00    +0.000 A 
ATOM     18  C   UNL     1       3.822   5.000  19.192  0.00  0.00    +0.000 A 
ATOM     19  C   UNL     1       4.336   3.775  19.634  0.00  0.00    +0.000 A 
ATOM     20  N   UNL     1       5.607   3.604  19.248  0.00  0.00    +0.000 NA
BRANCH  16  22
ATOM     21  C   UNL     1       7.263   5.423  16.655  0.00  0.00    +0.000 C 
ATOM     22  C   UNL     1       7.260   5.006  18.124  0.00  0.00    +0.000 C 
ATOM     23  C   UNL     1       7.984   6.019  19.004  0.00  0.00    +0.000 C 
ENDBRANCH  16  22
ENDBRANCH  13  18
ENDBRANCH   1  13
TORSDOF 4
ENDMDL
MODEL 9
REMARK VINA RESULT:      -6.9      4.408      5.870
REMARK  Name = 
REMARK  6 active torsions:
REMARK  status: ('A' for Active; 'I' for Inactive)
REMARK    1  A    between atoms: C_1  and  C_2
REMARK    2  A    between atoms: C_2  and  C_3
REMARK    3  A    between atoms: C_2  and  N_4
REMARK    4  A    between atoms: C_6  and  S_7
REMARK    5  A    between atoms: S_7  and  N_10
REMARK    6  A    between atoms: C_14  and  N_15
REMARK                            x       y       z     vdW  Elec       q    Type
REMARK                         _______ _______ _______ _____ _____    ______ ____
ROOT
ATOM      1  N   UNL     1       2.355   7.407  19.158  0.00  0.00    +0.000 NA
ATOM      2  C   UNL     1       1.800   7.870  17.857  0.00  0.00    +0.000 C 
ATOM      3  C   UNL     1       1.917   9.379  17.736  0.00  0.00    +0.000 C 
ATOM      4  C   UNL     1       1.124  10.064  18.842  0.00  0.00    +0.000 C 
ATOM      5  C   UNL     1       1.623   9.628  20.231  0.00  0.00    +0.000 C 
ATOM      6  C   UNL     1       1.738   8.084  20.345  0.00  0.00    +0.000 C 
ENDROOT
BRANCH   5   7
ATOM      7  N   UNL     1       0.852  10.209  21.369  0.00  0.00    +0.000 NA
ATOM      8  C   UNL     1       0.139  11.442  21.000  0.00  0.00    +0.000 C 
ATOM      9  C   UNL     1      -0.520  12.110  22.212  0.00  0.00    +0.000 C 
ATOM     10  C   UNL     1      -1.444  11.145  22.943  0.00  0.00    +0.000 C 
ATOM     11  C   UNL     1      -0.692   9.870  23.286  0.00  0.00    +0.000 C 
ATOM     12  C   UNL     1      -0.053   9.259  22.039  0.00  0.00    +0.000 C 
ENDBRANCH   5   7
BRANCH   1  13
ATOM     13  S   UNL     1       2.235   5.690  19.345  0.00  0.00    +0.000 S 
ATOM     14  O   UNL     1       1.445   5.169  18.248  0.00  0.00    +0.000 OA
ATOM     15  O   UNL     1       1.909   5.402  20.724  0.00  0.00    +0.000 OA
BRANCH  13  18
ATOM     16  N   UNL     1       5.884   4.687  18.667  0.00  0.00    +0.000 N 
ATOM     17  C   UNL     1       4.855   5.561  18.482  0.00  0.00    +0.000 A 
ATOM     18  C   UNL     1       3.785   5.011  19.145  0.00  0.00    +0.000 A 
ATOM     19  C   UNL     1       4.244   3.795  19.665  0.00  0.00    +0.000 A 
ATOM     20  N   UNL     1       5.526   3.573  19.346  0.00  0.00    +0.000 NA
BRANCH  16  22
ATOM     21  C   UNL     1       7.395   4.796  16.718  0.00  0.00    +0.000 C 
ATOM     22  C   UNL     1       7.266   4.878  18.238  0.00  0.00    +0.000 C 
ATOM     23  C   UNL     1       7.843   6.177  18.788  0.00  0.00    +0.000 C 
ENDBRANCH  16  22
ENDBRANCH  13  18
ENDBRANCH   1  13
TORSDOF 4
ENDMDL
