MODEL 1
REMARK VINA RESULT:      -8.7      0.000      0.000
REMARK  Name = 
REMARK  6 active torsions:
REMARK  status: ('A' for Active; 'I' for Inactive)
REMARK    1  A    between atoms: C_1  and  C_2
REMARK    2  A    between atoms: N_6  and  C_7
REMARK    3  A    between atoms: C_10  and  C_11
REMARK    4  A    between atoms: C_16  and  C_17
REMARK    5  A    between atoms: C_17  and  O_18
REMARK    6  A    between atoms: C_17  and  C_19
REMARK                            x       y       z     vdW  Elec       q    Type
REMARK                         _______ _______ _______ _____ _____    ______ ____
ROOT
ATOM      1  C   UNL     1       0.480   2.595  19.034  0.00  0.00    +0.000 C 
ATOM      2  C   UNL     1       1.887   2.992  18.741  0.00  0.00    +0.000 A 
ATOM      3  C   UNL     1       2.636   2.246  17.847  0.00  0.00    +0.000 A 
ATOM      4  N   UNL     1       3.921   2.487  17.531  0.00  0.00    +0.000 NA
ATOM      5  C   UNL     1       4.489   3.539  18.124  0.00  0.00    +0.000 A 
ATOM      6  N   UNL     1       5.806   3.820  17.784  0.00  0.00    +0.000 N 
ATOM      7  N   UNL     1       3.863   4.302  19.033  0.00  0.00    +0.000 NA
ATOM      8  C   UNL     1       2.570   4.038  19.341  0.00  0.00    +0.000 A 
ATOM      9  H   UNL     1       6.154   3.150  17.116  0.00  0.00    +0.000 HD
ENDROOT
BRANCH   6  10
ATOM     10  C   UNL     1       6.442   5.070  17.789  0.00  0.00    +0.000 A 
ATOM     11  C   UNL     1       7.512   5.291  18.664  0.00  0.00    +0.000 A 
ATOM     12  C   UNL     1       8.103   6.556  18.760  0.00  0.00    +0.000 A 
ATOM     13  C   UNL     1       7.641   7.608  17.966  0.00  0.00    +0.000 A 
ATOM     14  C   UNL     1       6.599   7.394  17.067  0.00  0.00    +0.000 A 
ATOM     15  C   UNL     1       6.007   6.133  16.985  0.00  0.00    +0.000 A 
BRANCH  13  16
ATOM     16  C   UNL     1       8.229   8.911  18.083  0.00  0.00    +0.000 C 
ATOM     17  N   UNL     1       8.704   9.966  18.179  0.00  0.00    +0.000 NA
ENDBRANCH  13  16
ENDBRANCH   6  10
BRANCH   8  18
ATOM     18  C   UNL     1       1.973   4.974  20.391  0.00  0.00    +0.000 C 
BRANCH  18  19
ATOM     19  C   UNL     1       1.952   6.429  19.953  0.00  0.00    +0.000 A 
ATOM     20  C   UNL     1       1.431   7.420  20.801  0.00  0.00    +0.000 A 
ATOM     21  C   UNL     1       1.260   8.733  20.356  0.00  0.00    +0.000 A 
ATOM     22  C   UNL     1       1.647   9.085  19.066  0.00  0.00    +0.000 A 
ATOM     23  C   UNL     1       2.230   8.130  18.244  0.00  0.00    +0.000 A 
ATOM     24  F   UNL     1       2.630   8.474  17.013  0.00  0.00    +0.000 F 
ATOM     25  C   UNL     1       2.385   6.815  18.672  0.00  0.00    +0.000 A 
ENDBRANCH  18  19
BRANCH  18  26
ATOM     26  O   UNL     1       2.745   4.888  21.601  0.00  0.00    +0.000 OA
ATOM     27  H   UNL     1       3.610   5.291  21.375  0.00  0.00    +0.000 HD
ENDBRANCH  18  26
ENDBRANCH   8  18
TORSDOF 5
ENDMDL
MODEL 2
REMARK VINA RESULT:      -8.4      0.883      1.303
REMARK  Name = 
REMARK  6 active torsions:
REMARK  status: ('A' for Active; 'I' for Inactive)
REMARK    1  A    between atoms: C_1  and  C_2
REMARK    2  A    between atoms: N_6  and  C_7
REMARK    3  A    between atoms: C_10  and  C_11
REMARK    4  A    between atoms: C_16  and  C_17
REMARK    5  A    between atoms: C_17  and  O_18
REMARK    6  A    between atoms: C_17  and  C_19
REMARK                            x       y       z     vdW  Elec       q    Type
REMARK                         _______ _______ _______ _____ _____    ______ ____
ROOT
ATOM      1  C   UNL     1       0.615   2.433  19.097  0.00  0.00    +0.000 C 
ATOM      2  C   UNL     1       2.021   2.867  18.857  0.00  0.00    +0.000 A 
ATOM      3  C   UNL     1       2.865   2.066  18.106  0.00  0.00    +0.000 A 
ATOM      4  N   UNL     1       4.158   2.337  17.853  0.00  0.00    +0.000 NA
ATOM      5  C   UNL     1       4.635   3.475  18.361  0.00  0.00    +0.000 A 
ATOM      6  N   UNL     1       5.960   3.784  18.081  0.00  0.00    +0.000 N 
ATOM      7  N   UNL     1       3.912   4.300  19.132  0.00  0.00    +0.000 NA
ATOM      8  C   UNL     1       2.612   4.005  19.381  0.00  0.00    +0.000 A 
ATOM      9  H   UNL     1       6.384   3.063  17.518  0.00  0.00    +0.000 HD
ENDROOT
BRANCH   6  10
ATOM     10  C   UNL     1       6.540   5.059  17.988  0.00  0.00    +0.000 A 
ATOM     11  C   UNL     1       7.634   5.374  18.801  0.00  0.00    +0.000 A 
ATOM     12  C   UNL     1       8.171   6.667  18.801  0.00  0.00    +0.000 A 
ATOM     13  C   UNL     1       7.630   7.650  17.969  0.00  0.00    +0.000 A 
ATOM     14  C   UNL     1       6.562   7.341  17.130  0.00  0.00    +0.000 A 
ATOM     15  C   UNL     1       6.024   6.054  17.145  0.00  0.00    +0.000 A 
BRANCH  13  16
ATOM     16  C   UNL     1       8.164   8.982  17.987  0.00  0.00    +0.000 C 
ATOM     17  N   UNL     1       8.598  10.059  18.001  0.00  0.00    +0.000 NA
ENDBRANCH  13  16
ENDBRANCH   6  10
BRANCH   8  18
ATOM     18  C   UNL     1       1.901   5.020  20.275  0.00  0.00    +0.000 C 
BRANCH  18  19
ATOM     19  C   UNL     1       1.839   6.412  19.671  0.00  0.00    +0.000 A 
ATOM     20  C   UNL     1       2.239   6.630  18.342  0.00  0.00    +0.000 A 
ATOM     21  C   UNL     1       2.337   7.922  17.820  0.00  0.00    +0.000 A 
ATOM     22  C   UNL     1       1.997   9.017  18.609  0.00  0.00    +0.000 A 
ATOM     23  C   UNL     1       1.532   8.808  19.901  0.00  0.00    +0.000 A 
ATOM     24  F   UNL     1       1.176   9.860  20.651  0.00  0.00    +0.000 F 
ATOM     25  C   UNL     1       1.450   7.526  20.435  0.00  0.00    +0.000 A 
ENDBRANCH  18  19
BRANCH  18  26
ATOM     26  O   UNL     1       2.590   5.113  21.533  0.00  0.00    +0.000 OA
ATOM     27  H   UNL     1       2.692   4.185  21.832  0.00  0.00    +0.000 HD
ENDBRANCH  18  26
ENDBRANCH   8  18
TORSDOF 5
ENDMDL
MODEL 3
REMARK VINA RESULT:      -8.1      0.976      1.675
REMARK  Name = 
REMARK  6 active torsions:
REMARK  status: ('A' for Active; 'I' for Inactive)
REMARK    1  A    between atoms: C_1  and  C_2
REMARK    2  A    between atoms: N_6  and  C_7
REMARK    3  A    between atoms: C_10  and  C_11
REMARK    4  A    between atoms: C_16  and  C_17
REMARK    5  A    between atoms: C_17  and  O_18
REMARK    6  A    between atoms: C_17  and  C_19
REMARK                            x       y       z     vdW  Elec       q    Type
REMARK                         _______ _______ _______ _____ _____    ______ ____
ROOT
ATOM      1  C   UNL     1       0.599   2.578  18.822  0.00  0.00    +0.000 C 
ATOM      2  C   UNL     1       2.006   3.036  18.634  0.00  0.00    +0.000 A 
ATOM      3  C   UNL     1       2.841   2.344  17.771  0.00  0.00    +0.000 A 
ATOM      4  N   UNL     1       4.133   2.643  17.549  0.00  0.00    +0.000 NA
ATOM      5  C   UNL     1       4.619   3.697  18.206  0.00  0.00    +0.000 A 
ATOM      6  N   UNL     1       5.944   4.036  17.961  0.00  0.00    +0.000 N 
ATOM      7  N   UNL     1       3.906   4.409  19.091  0.00  0.00    +0.000 NA
ATOM      8  C   UNL     1       2.607   4.088  19.306  0.00  0.00    +0.000 A 
ATOM      9  H   UNL     1       6.360   3.399  17.300  0.00  0.00    +0.000 HD
ENDROOT
BRANCH   6  10
ATOM     10  C   UNL     1       6.529   5.309  18.042  0.00  0.00    +0.000 A 
ATOM     11  C   UNL     1       6.067   6.330  17.204  0.00  0.00    +0.000 A 
ATOM     12  C   UNL     1       6.694   7.581  17.194  0.00  0.00    +0.000 A 
ATOM     13  C   UNL     1       7.779   7.828  18.039  0.00  0.00    +0.000 A 
ATOM     14  C   UNL     1       8.229   6.831  18.901  0.00  0.00    +0.000 A 
ATOM     15  C   UNL     1       7.606   5.583  18.898  0.00  0.00    +0.000 A 
BRANCH  13  16
ATOM     16  C   UNL     1       8.439   9.101  18.010  0.00  0.00    +0.000 C 
ATOM     17  N   UNL     1       8.972  10.132  17.985  0.00  0.00    +0.000 NA
ENDBRANCH  13  16
ENDBRANCH   6  10
BRANCH   8  18
ATOM     18  C   UNL     1       1.907   4.971  20.338  0.00  0.00    +0.000 C 
BRANCH  18  19
ATOM     19  C   UNL     1       1.762   6.415  19.892  0.00  0.00    +0.000 A 
ATOM     20  C   UNL     1       2.159   6.805  18.602  0.00  0.00    +0.000 A 
ATOM     21  C   UNL     1       2.178   8.151  18.229  0.00  0.00    +0.000 A 
ATOM     22  C   UNL     1       1.761   9.127  19.129  0.00  0.00    +0.000 A 
ATOM     23  C   UNL     1       1.298   8.746  20.382  0.00  0.00    +0.000 A 
ATOM     24  F   UNL     1       0.869   9.682  21.239  0.00  0.00    +0.000 F 
ATOM     25  C   UNL     1       1.295   7.410  20.769  0.00  0.00    +0.000 A 
ENDBRANCH  18  19
BRANCH  18  26
ATOM     26  O   UNL     1       2.659   4.960  21.564  0.00  0.00    +0.000 OA
ATOM     27  H   UNL     1       3.056   4.064  21.605  0.00  0.00    +0.000 HD
ENDBRANCH  18  26
ENDBRANCH   8  18
TORSDOF 5
ENDMDL
MODEL 4
REMARK VINA RESULT:      -7.7      4.256      7.213
REMARK  Name = 
REMARK  6 active torsions:
REMARK  status: ('A' for Active; 'I' for Inactive)
REMARK    1  A    between atoms: C_1  and  C_2
REMARK    2  A    between atoms: N_6  and  C_7
REMARK    3  A    between atoms: C_10  and  C_11
REMARK    4  A    between atoms: C_16  and  C_17
REMARK    5  A    between atoms: C_17  and  O_18
REMARK    6  A    between atoms: C_17  and  C_19
REMARK                            x       y       z     vdW  Elec       q    Type
REMARK                         _______ _______ _______ _____ _____    ______ ____
ROOT
ATOM      1  C   UNL     1      -1.340  12.408  21.605  0.00  0.00    +0.000 C 
ATOM      2  C   UNL     1      -0.536  11.157  21.497  0.00  0.00    +0.000 A 
ATOM      3  C   UNL     1      -0.226  10.442  22.642  0.00  0.00    +0.000 A 
ATOM      4  N   UNL     1       0.518   9.322  22.671  0.00  0.00    +0.000 NA
ATOM      5  C   UNL     1       0.967   8.879  21.496  0.00  0.00    +0.000 A 
ATOM      6  N   UNL     1       1.711   7.706  21.507  0.00  0.00    +0.000 N 
ATOM      7  N   UNL     1       0.756   9.518  20.335  0.00  0.00    +0.000 NA
ATOM      8  C   UNL     1       0.008  10.648  20.329  0.00  0.00    +0.000 A 
ATOM      9  H   UNL     1       1.812   7.355  22.446  0.00  0.00    +0.000 HD
ENDROOT
BRANCH   6  10
ATOM     10  C   UNL     1       1.826   6.757  20.479  0.00  0.00    +0.000 A 
ATOM     11  C   UNL     1       1.366   5.453  20.697  0.00  0.00    +0.000 A 
ATOM     12  C   UNL     1       1.553   4.461  19.728  0.00  0.00    +0.000 A 
ATOM     13  C   UNL     1       2.186   4.770  18.522  0.00  0.00    +0.000 A 
ATOM     14  C   UNL     1       2.620   6.071  18.279  0.00  0.00    +0.000 A 
ATOM     15  C   UNL     1       2.440   7.052  19.254  0.00  0.00    +0.000 A 
BRANCH  13  16
ATOM     16  C   UNL     1       2.402   3.748  17.538  0.00  0.00    +0.000 C 
ATOM     17  N   UNL     1       2.575   2.920  16.744  0.00  0.00    +0.000 NA
ENDBRANCH  13  16
ENDBRANCH   6  10
BRANCH   8  18
ATOM     18  C   UNL     1      -0.154  11.283  18.948  0.00  0.00    +0.000 C 
BRANCH  18  19
ATOM     19  C   UNL     1      -1.481  10.949  18.288  0.00  0.00    +0.000 A 
ATOM     20  C   UNL     1      -1.570   9.899  17.359  0.00  0.00    +0.000 A 
ATOM     21  C   UNL     1      -2.741   9.679  16.629  0.00  0.00    +0.000 A 
ATOM     22  C   UNL     1      -3.856  10.483  16.846  0.00  0.00    +0.000 A 
ATOM     23  C   UNL     1      -3.802  11.478  17.814  0.00  0.00    +0.000 A 
ATOM     24  F   UNL     1      -4.884  12.233  18.044  0.00  0.00    +0.000 F 
ATOM     25  C   UNL     1      -2.634  11.717  18.531  0.00  0.00    +0.000 A 
ENDBRANCH  18  19
BRANCH  18  26
ATOM     26  O   UNL     1       0.898  10.821  18.084  0.00  0.00    +0.000 OA
ATOM     27  H   UNL     1       1.197   9.977  18.483  0.00  0.00    +0.000 HD
ENDBRANCH  18  26
ENDBRANCH   8  18
TORSDOF 5
ENDMDL
MODEL 5
REMARK VINA RESULT:      -7.7      2.829      5.784
REMARK  Name = 
REMARK  6 active torsions:
REMARK  status: ('A' for Active; 'I' for Inactive)
REMARK    1  A    between atoms: C_1  and  C_2
REMARK    2  A    between atoms: N_6  and  C_7
REMARK    3  A    between atoms: C_10  and  C_11
REMARK    4  A    between atoms: C_16  and  C_17
REMARK    5  A    between atoms: C_17  and  O_18
REMARK    6  A    between atoms: C_17  and  C_19
REMARK                            x       y       z     vdW  Elec       q    Type
REMARK                         _______ _______ _______ _____ _____    ______ ____
ROOT
ATOM      1  C   UNL     1       5.870   3.315  15.179  0.00  0.00    +0.000 C 
ATOM      2  C   UNL     1       5.295   4.511  15.861  0.00  0.00    +0.000 A 
ATOM      3  C   UNL     1       5.290   5.733  15.209  0.00  0.00    +0.000 A 
ATOM      4  N   UNL     1       4.831   6.883  15.735  0.00  0.00    +0.000 NA
ATOM      5  C   UNL     1       4.335   6.811  16.971  0.00  0.00    +0.000 A 
ATOM      6  N   UNL     1       3.828   7.985  17.516  0.00  0.00    +0.000 N 
ATOM      7  N   UNL     1       4.329   5.686  17.702  0.00  0.00    +0.000 NA
ATOM      8  C   UNL     1       4.802   4.540  17.155  0.00  0.00    +0.000 A 
ATOM      9  H   UNL     1       3.925   8.751  16.868  0.00  0.00    +0.000 HD
ENDROOT
BRANCH   6  10
ATOM     10  C   UNL     1       2.810   8.113  18.473  0.00  0.00    +0.000 A 
ATOM     11  C   UNL     1       1.999   9.253  18.462  0.00  0.00    +0.000 A 
ATOM     12  C   UNL     1       1.040   9.454  19.461  0.00  0.00    +0.000 A 
ATOM     13  C   UNL     1       0.871   8.504  20.471  0.00  0.00    +0.000 A 
ATOM     14  C   UNL     1       1.649   7.349  20.476  0.00  0.00    +0.000 A 
ATOM     15  C   UNL     1       2.611   7.161  19.484  0.00  0.00    +0.000 A 
BRANCH  13  16
ATOM     16  C   UNL     1      -0.094   8.721  21.510  0.00  0.00    +0.000 C 
ATOM     17  N   UNL     1      -0.877   8.898  22.350  0.00  0.00    +0.000 NA
ENDBRANCH  13  16
ENDBRANCH   6  10
BRANCH   8  18
ATOM     18  C   UNL     1       4.744   3.331  18.088  0.00  0.00    +0.000 C 
BRANCH  18  19
ATOM     19  C   UNL     1       3.399   3.168  18.775  0.00  0.00    +0.000 A 
ATOM     20  C   UNL     1       2.237   2.942  18.020  0.00  0.00    +0.000 A 
ATOM     21  C   UNL     1       0.975   2.945  18.619  0.00  0.00    +0.000 A 
ATOM     22  C   UNL     1       0.859   3.135  19.993  0.00  0.00    +0.000 A 
ATOM     23  C   UNL     1       2.007   3.288  20.759  0.00  0.00    +0.000 A 
ATOM     24  F   UNL     1       1.898   3.441  22.086  0.00  0.00    +0.000 F 
ATOM     25  C   UNL     1       3.266   3.306  20.168  0.00  0.00    +0.000 A 
ENDBRANCH  18  19
BRANCH  18  26
ATOM     26  O   UNL     1       5.748   3.468  19.109  0.00  0.00    +0.000 OA
ATOM     27  H   UNL     1       6.564   3.102  18.707  0.00  0.00    +0.000 HD
ENDBRANCH  18  26
ENDBRANCH   8  18
TORSDOF 5
ENDMDL
MODEL 6
REMARK VINA RESULT:      -7.5      2.819      5.774
REMARK  Name = 
REMARK  6 active torsions:
REMARK  status: ('A' for Active; 'I' for Inactive)
REMARK    1  A    between atoms: C_1  and  C_2
REMARK    2  A    between atoms: N_6  and  C_7
REMARK    3  A    between atoms: C_10  and  C_11
REMARK    4  A    between atoms: C_16  and  C_17
REMARK    5  A    between atoms: C_17  and  O_18
REMARK    6  A    between atoms: C_17  and  C_19
REMARK                            x       y       z     vdW  Elec       q    Type
REMARK                         _______ _______ _______ _____ _____    ______ ____
ROOT
ATOM      1  C   UNL     1       5.900   3.443  15.196  0.00  0.00    +0.000 C 
ATOM      2  C   UNL     1       5.308   4.634  15.871  0.00  0.00    +0.000 A 
ATOM      3  C   UNL     1       5.274   5.849  15.207  0.00  0.00    +0.000 A 
ATOM      4  N   UNL     1       4.798   6.995  15.726  0.00  0.00    +0.000 NA
ATOM      5  C   UNL     1       4.313   6.926  16.967  0.00  0.00    +0.000 A 
ATOM      6  N   UNL     1       3.789   8.095  17.505  0.00  0.00    +0.000 N 
ATOM      7  N   UNL     1       4.335   5.809  17.709  0.00  0.00    +0.000 NA
ATOM      8  C   UNL     1       4.825   4.666  17.169  0.00  0.00    +0.000 A 
ATOM      9  H   UNL     1       3.865   8.856  16.849  0.00  0.00    +0.000 HD
ENDROOT
BRANCH   6  10
ATOM     10  C   UNL     1       2.777   8.213  18.470  0.00  0.00    +0.000 A 
ATOM     11  C   UNL     1       1.953   9.344  18.463  0.00  0.00    +0.000 A 
ATOM     12  C   UNL     1       0.999   9.536  19.468  0.00  0.00    +0.000 A 
ATOM     13  C   UNL     1       0.848   8.585  20.481  0.00  0.00    +0.000 A 
ATOM     14  C   UNL     1       1.639   7.439  20.482  0.00  0.00    +0.000 A 
ATOM     15  C   UNL     1       2.595   7.260  19.483  0.00  0.00    +0.000 A 
BRANCH  13  16
ATOM     16  C   UNL     1      -0.112   8.793  21.528  0.00  0.00    +0.000 C 
ATOM     17  N   UNL     1      -0.887   8.959  22.375  0.00  0.00    +0.000 NA
ENDBRANCH  13  16
ENDBRANCH   6  10
BRANCH   8  18
ATOM     18  C   UNL     1       4.799   3.466  18.115  0.00  0.00    +0.000 C 
BRANCH  18  19
ATOM     19  C   UNL     1       3.499   3.343  18.891  0.00  0.00    +0.000 A 
ATOM     20  C   UNL     1       3.445   3.695  20.249  0.00  0.00    +0.000 A 
ATOM     21  C   UNL     1       2.304   3.443  21.015  0.00  0.00    +0.000 A 
ATOM     22  C   UNL     1       1.182   2.870  20.422  0.00  0.00    +0.000 A 
ATOM     23  C   UNL     1       1.200   2.585  19.063  0.00  0.00    +0.000 A 
ATOM     24  F   UNL     1       0.111   2.062  18.485  0.00  0.00    +0.000 F 
ATOM     25  C   UNL     1       2.339   2.815  18.298  0.00  0.00    +0.000 A 
ENDBRANCH  18  19
BRANCH  18  26
ATOM     26  O   UNL     1       5.872   3.584  19.065  0.00  0.00    +0.000 OA
ATOM     27  H   UNL     1       5.619   2.989  19.802  0.00  0.00    +0.000 HD
ENDBRANCH  18  26
ENDBRANCH   8  18
TORSDOF 5
ENDMDL
MODEL 7
REMARK VINA RESULT:      -7.4      4.093      7.080
REMARK  Name = 
REMARK  6 active torsions:
REMARK  status: ('A' for Active; 'I' for Inactive)
REMARK    1  A    between atoms: C_1  and  C_2
REMARK    2  A    between atoms: N_6  and  C_7
REMARK    3  A    between atoms: C_10  and  C_11
REMARK    4  A    between atoms: C_16  and  C_17
REMARK    5  A    between atoms: C_17  and  O_18
REMARK    6  A    between atoms: C_17  and  C_19
REMARK                            x       y       z     vdW  Elec       q    Type
REMARK                         _______ _______ _______ _____ _____    ______ ____
ROOT
ATOM      1  C   UNL     1      -1.296  12.469  21.674  0.00  0.00    +0.000 C 
ATOM      2  C   UNL     1      -0.509  11.207  21.556  0.00  0.00    +0.000 A 
ATOM      3  C   UNL     1      -0.227  10.469  22.693  0.00  0.00    +0.000 A 
ATOM      4  N   UNL     1       0.500   9.338  22.714  0.00  0.00    +0.000 NA
ATOM      5  C   UNL     1       0.958   8.907  21.538  0.00  0.00    +0.000 A 
ATOM      6  N   UNL     1       1.684   7.722  21.540  0.00  0.00    +0.000 N 
ATOM      7  N   UNL     1       0.773   9.567  20.385  0.00  0.00    +0.000 NA
ATOM      8  C   UNL     1       0.042  10.709  20.387  0.00  0.00    +0.000 A 
ATOM      9  H   UNL     1       1.766   7.354  22.475  0.00  0.00    +0.000 HD
ENDROOT
BRANCH   6  10
ATOM     10  C   UNL     1       1.798   6.788  20.499  0.00  0.00    +0.000 A 
ATOM     11  C   UNL     1       1.363   5.474  20.707  0.00  0.00    +0.000 A 
ATOM     12  C   UNL     1       1.551   4.498  19.723  0.00  0.00    +0.000 A 
ATOM     13  C   UNL     1       2.160   4.833  18.511  0.00  0.00    +0.000 A 
ATOM     14  C   UNL     1       2.569   6.144  18.277  0.00  0.00    +0.000 A 
ATOM     15  C   UNL     1       2.388   7.109  19.268  0.00  0.00    +0.000 A 
BRANCH  13  16
ATOM     16  C   UNL     1       2.378   3.827  17.511  0.00  0.00    +0.000 C 
ATOM     17  N   UNL     1       2.555   3.011  16.704  0.00  0.00    +0.000 NA
ENDBRANCH  13  16
ENDBRANCH   6  10
BRANCH   8  18
ATOM     18  C   UNL     1      -0.091  11.368  19.015  0.00  0.00    +0.000 C 
BRANCH  18  19
ATOM     19  C   UNL     1      -1.445  11.133  18.366  0.00  0.00    +0.000 A 
ATOM     20  C   UNL     1      -2.585  11.806  18.835  0.00  0.00    +0.000 A 
ATOM     21  C   UNL     1      -3.858  11.487  18.356  0.00  0.00    +0.000 A 
ATOM     22  C   UNL     1      -4.006  10.517  17.370  0.00  0.00    +0.000 A 
ATOM     23  C   UNL     1      -2.878   9.897  16.848  0.00  0.00    +0.000 A 
ATOM     24  F   UNL     1      -3.017   8.984  15.877  0.00  0.00    +0.000 F 
ATOM     25  C   UNL     1      -1.609  10.194  17.333  0.00  0.00    +0.000 A 
ENDBRANCH  18  19
BRANCH  18  26
ATOM     26  O   UNL     1       0.918  10.846  18.134  0.00  0.00    +0.000 OA
ATOM     27  H   UNL     1       1.748  11.285  18.416  0.00  0.00    +0.000 HD
ENDBRANCH  18  26
ENDBRANCH   8  18
TORSDOF 5
ENDMDL
MODEL 8
REMARK VINA RESULT:      -7.1      4.608      7.477
REMARK  Name = 
REMARK  6 active torsions:
REMARK  status: ('A' for Active; 'I' for Inactive)
REMARK    1  A    between atoms: C_1  and  C_2
REMARK    2  A    between atoms: N_6  and  C_7
REMARK    3  A    between atoms: C_10  and  C_11
REMARK    4  A    between atoms: C_16  and  C_17
REMARK    5  A    between atoms: C_17  and  O_18
REMARK    6  A    between atoms: C_17  and  C_19
REMARK                            x       y       z     vdW  Elec       q    Type
REMARK                         _______ _______ _______ _____ _____    ______ ____
ROOT
ATOM      1  C   UNL     1      -0.144  13.312  18.709  0.00  0.00    +0.000 C 
ATOM      2  C   UNL     1       0.540  11.995  18.564  0.00  0.00    +0.000 A 
ATOM      3  C   UNL     1       1.873  11.954  18.191  0.00  0.00    +0.000 A 
ATOM      4  N   UNL     1       2.582  10.828  17.996  0.00  0.00    +0.000 NA
ATOM      5  C   UNL     1       1.936   9.679  18.200  0.00  0.00    +0.000 A 
ATOM      6  N   UNL     1       2.665   8.508  18.033  0.00  0.00    +0.000 N 
ATOM      7  N   UNL     1       0.637   9.609  18.525  0.00  0.00    +0.000 NA
ATOM      8  C   UNL     1      -0.062  10.756  18.710  0.00  0.00    +0.000 A 
ATOM      9  H   UNL     1       3.614   8.712  17.763  0.00  0.00    +0.000 HD
ENDROOT
BRANCH   6  10
ATOM     10  C   UNL     1       2.459   7.275  18.672  0.00  0.00    +0.000 A 
ATOM     11  C   UNL     1       2.495   6.098  17.915  0.00  0.00    +0.000 A 
ATOM     12  C   UNL     1       2.198   4.864  18.505  0.00  0.00    +0.000 A 
ATOM     13  C   UNL     1       1.883   4.795  19.864  0.00  0.00    +0.000 A 
ATOM     14  C   UNL     1       1.876   5.954  20.636  0.00  0.00    +0.000 A 
ATOM     15  C   UNL     1       2.161   7.182  20.039  0.00  0.00    +0.000 A 
BRANCH  13  16
ATOM     16  C   UNL     1       1.553   3.534  20.465  0.00  0.00    +0.000 C 
ATOM     17  N   UNL     1       1.284   2.515  20.951  0.00  0.00    +0.000 NA
ENDBRANCH  13  16
ENDBRANCH   6  10
BRANCH   8  18
ATOM     18  C   UNL     1      -1.531  10.542  19.072  0.00  0.00    +0.000 C 
BRANCH  18  19
ATOM     19  C   UNL     1      -2.457  10.580  17.869  0.00  0.00    +0.000 A 
ATOM     20  C   UNL     1      -2.139   9.864  16.703  0.00  0.00    +0.000 A 
ATOM     21  C   UNL     1      -2.895  10.011  15.537  0.00  0.00    +0.000 A 
ATOM     22  C   UNL     1      -4.006  10.848  15.532  0.00  0.00    +0.000 A 
ATOM     23  C   UNL     1      -4.371  11.506  16.699  0.00  0.00    +0.000 A 
ATOM     24  F   UNL     1      -5.458  12.289  16.703  0.00  0.00    +0.000 F 
ATOM     25  C   UNL     1      -3.613  11.380  17.859  0.00  0.00    +0.000 A 
ENDBRANCH  18  19
BRANCH  18  26
ATOM     26  O   UNL     1      -1.951  11.568  19.987  0.00  0.00    +0.000 OA
ATOM     27  H   UNL     1      -1.390  11.440  20.781  0.00  0.00    +0.000 HD
ENDBRANCH  18  26
ENDBRANCH   8  18
TORSDOF 5
ENDMDL
MODEL 9
REMARK VINA RESULT:      -7.1      2.523      3.164
REMARK  Name = 
REMARK  6 active torsions:
REMARK  status: ('A' for Active; 'I' for Inactive)
REMARK    1  A    between atoms: C_1  and  C_2
REMARK    2  A    between atoms: N_6  and  C_7
REMARK    3  A    between atoms: C_10  and  C_11
REMARK    4  A    between atoms: C_16  and  C_17
REMARK    5  A    between atoms: C_17  and  O_18
REMARK    6  A    between atoms: C_17  and  C_19
REMARK                            x       y       z     vdW  Elec       q    Type
REMARK                         _______ _______ _______ _____ _____    ______ ____
ROOT
ATOM      1  C   UNL     1       0.781   3.975  20.464  0.00  0.00    +0.000 C 
ATOM      2  C   UNL     1       1.832   3.667  19.451  0.00  0.00    +0.000 A 
ATOM      3  C   UNL     1       1.729   2.516  18.687  0.00  0.00    +0.000 A 
ATOM      4  N   UNL     1       2.630   2.118  17.772  0.00  0.00    +0.000 NA
ATOM      5  C   UNL     1       3.683   2.917  17.592  0.00  0.00    +0.000 A 
ATOM      6  N   UNL     1       4.606   2.535  16.626  0.00  0.00    +0.000 N 
ATOM      7  N   UNL     1       3.896   4.032  18.306  0.00  0.00    +0.000 NA
ATOM      8  C   UNL     1       2.978   4.412  19.229  0.00  0.00    +0.000 A 
ATOM      9  H   UNL     1       4.332   1.667  16.192  0.00  0.00    +0.000 HD
ENDROOT
BRANCH   6  10
ATOM     10  C   UNL     1       5.439   3.368  15.863  0.00  0.00    +0.000 A 
ATOM     11  C   UNL     1       5.291   3.396  14.472  0.00  0.00    +0.000 A 
ATOM     12  C   UNL     1       6.168   4.142  13.678  0.00  0.00    +0.000 A 
ATOM     13  C   UNL     1       7.192   4.884  14.272  0.00  0.00    +0.000 A 
ATOM     14  C   UNL     1       7.331   4.892  15.657  0.00  0.00    +0.000 A 
ATOM     15  C   UNL     1       6.460   4.136  16.442  0.00  0.00    +0.000 A 
BRANCH  13  16
ATOM     16  C   UNL     1       8.109   5.629  13.457  0.00  0.00    +0.000 C 
ATOM     17  N   UNL     1       8.852   6.232  12.800  0.00  0.00    +0.000 NA
ENDBRANCH  13  16
ENDBRANCH   6  10
BRANCH   8  18
ATOM     18  C   UNL     1       3.338   5.694  19.977  0.00  0.00    +0.000 C 
BRANCH  18  19
ATOM     19  C   UNL     1       2.595   6.916  19.464  0.00  0.00    +0.000 A 
ATOM     20  C   UNL     1       2.783   7.362  18.146  0.00  0.00    +0.000 A 
ATOM     21  C   UNL     1       2.230   8.568  17.707  0.00  0.00    +0.000 A 
ATOM     22  C   UNL     1       1.446   9.327  18.570  0.00  0.00    +0.000 A 
ATOM     23  C   UNL     1       1.194   8.859  19.853  0.00  0.00    +0.000 A 
ATOM     24  F   UNL     1       0.414   9.575  20.674  0.00  0.00    +0.000 F 
ATOM     25  C   UNL     1       1.756   7.670  20.305  0.00  0.00    +0.000 A 
ENDBRANCH  18  19
BRANCH  18  26
ATOM     26  O   UNL     1       4.748   5.946  19.843  0.00  0.00    +0.000 OA
ATOM     27  H   UNL     1       4.976   5.616  18.949  0.00  0.00    +0.000 HD
ENDBRANCH  18  26
ENDBRANCH   8  18
TORSDOF 5
ENDMDL
