MODEL 1
REMARK VINA RESULT:      -4.7      0.000      0.000
REMARK  Name = 
REMARK  9 active torsions:
REMARK  status: ('A' for Active; 'I' for Inactive)
REMARK    1  A    between atoms: C_1  and  N_2
REMARK    2  A    between atoms: N_2  and  C_3
REMARK    3  A    between atoms: N_2  and  C_4
REMARK    4  A    between atoms: N_2  and  C_5
REMARK    5  A    between atoms: C_5  and  C_6
REMARK    6  A    between atoms: C_6  and  C_7
REMARK    7  A    between atoms: C_7  and  P_8
REMARK    8  A    between atoms: P_8  and  O_10
REMARK    9  A    between atoms: P_8  and  O_11
REMARK                            x       y       z     vdW  Elec       q    Type
REMARK                         _______ _______ _______ _____ _____    ______ ____
ROOT
ATOM      1  C   UNL     1       6.509   5.340  18.938  0.00  0.00    +0.000 C 
ENDROOT
BRANCH   1   2
ATOM      2  P   UNL     1       7.024   5.003  17.215  0.00  0.00    +0.000 P 
ATOM      3  O   UNL     1       7.622   6.403  17.106  0.00  0.00    +0.000 OA
BRANCH   2   4
ATOM      4  O   UNL     1       8.256   4.072  17.742  0.00  0.00    +0.000 OA
ATOM      5  H   UNL     1       9.009   4.631  18.018  0.00  0.00    +0.000 HD
ENDBRANCH   2   4
BRANCH   2   6
ATOM      6  O   UNL     1       7.511   4.685  15.585  0.00  0.00    +0.000 OA
ATOM      7  H   UNL     1       8.157   3.950  15.637  0.00  0.00    +0.000 HD
ENDBRANCH   2   6
ENDBRANCH   1   2
BRANCH   1   8
ATOM      8  C   UNL     1       5.015   5.053  19.090  0.00  0.00    +0.000 C 
BRANCH   8   9
ATOM      9  C   UNL     1       4.530   4.050  18.053  0.00  0.00    +0.000 C 
BRANCH   9  11
ATOM     10  C   UNL     1       3.066   3.519  19.984  0.00  0.00    +0.000 C 
ATOM     11  N   UNL     1       3.238   3.325  18.474  0.00  0.00    +0.000 N 
ATOM     12  C   UNL     1       3.320   1.826  18.195  0.00  0.00    +0.000 C 
ATOM     13  C   UNL     1       2.011   3.906  17.779  0.00  0.00    +0.000 C 
ENDBRANCH   9  11
ENDBRANCH   8   9
ENDBRANCH   1   8
TORSDOF 6
ENDMDL
MODEL 2
REMARK VINA RESULT:      -4.7      0.412      1.400
REMARK  Name = 
REMARK  9 active torsions:
REMARK  status: ('A' for Active; 'I' for Inactive)
REMARK    1  A    between atoms: C_1  and  N_2
REMARK    2  A    between atoms: N_2  and  C_3
REMARK    3  A    between atoms: N_2  and  C_4
REMARK    4  A    between atoms: N_2  and  C_5
REMARK    5  A    between atoms: C_5  and  C_6
REMARK    6  A    between atoms: C_6  and  C_7
REMARK    7  A    between atoms: C_7  and  P_8
REMARK    8  A    between atoms: P_8  and  O_10
REMARK    9  A    between atoms: P_8  and  O_11
REMARK                            x       y       z     vdW  Elec       q    Type
REMARK                         _______ _______ _______ _____ _____    ______ ____
ROOT
ATOM      1  C   UNL     1       6.426   5.537  18.498  0.00  0.00    +0.000 C 
ENDROOT
BRANCH   1   2
ATOM      2  P   UNL     1       6.922   5.092  16.794  0.00  0.00    +0.000 P 
ATOM      3  O   UNL     1       7.565   6.463  16.609  0.00  0.00    +0.000 OA
BRANCH   2   4
ATOM      4  O   UNL     1       8.125   4.149  17.366  0.00  0.00    +0.000 OA
ATOM      5  H   UNL     1       8.839   4.702  17.739  0.00  0.00    +0.000 HD
ENDBRANCH   2   4
BRANCH   2   6
ATOM      6  O   UNL     1       7.390   4.671  15.182  0.00  0.00    +0.000 OA
ATOM      7  H   UNL     1       6.787   3.949  14.907  0.00  0.00    +0.000 HD
ENDBRANCH   2   6
ENDBRANCH   1   2
BRANCH   1   8
ATOM      8  C   UNL     1       5.388   4.535  19.006  0.00  0.00    +0.000 C 
BRANCH   8   9
ATOM      9  C   UNL     1       4.475   4.058  17.886  0.00  0.00    +0.000 C 
BRANCH   9  11
ATOM     10  C   UNL     1       3.022   2.049  17.962  0.00  0.00    +0.000 C 
ATOM     11  N   UNL     1       3.128   3.514  18.397  0.00  0.00    +0.000 N 
ATOM     12  C   UNL     1       1.951   4.275  17.790  0.00  0.00    +0.000 C 
ATOM     13  C   UNL     1       3.038   3.565  19.918  0.00  0.00    +0.000 C 
ENDBRANCH   9  11
ENDBRANCH   8   9
ENDBRANCH   1   8
TORSDOF 6
ENDMDL
MODEL 3
REMARK VINA RESULT:      -4.6      1.319      1.725
REMARK  Name = 
REMARK  9 active torsions:
REMARK  status: ('A' for Active; 'I' for Inactive)
REMARK    1  A    between atoms: C_1  and  N_2
REMARK    2  A    between atoms: N_2  and  C_3
REMARK    3  A    between atoms: N_2  and  C_4
REMARK    4  A    between atoms: N_2  and  C_5
REMARK    5  A    between atoms: C_5  and  C_6
REMARK    6  A    between atoms: C_6  and  C_7
REMARK    7  A    between atoms: C_7  and  P_8
REMARK    8  A    between atoms: P_8  and  O_10
REMARK    9  A    between atoms: P_8  and  O_11
REMARK                            x       y       z     vdW  Elec       q    Type
REMARK                         _______ _______ _______ _____ _____    ______ ____
ROOT
ATOM      1  C   UNL     1       5.049   5.658  17.360  0.00  0.00    +0.000 C 
ENDROOT
BRANCH   1   2
ATOM      2  P   UNL     1       6.674   4.829  17.509  0.00  0.00    +0.000 P 
ATOM      3  O   UNL     1       6.293   4.302  18.890  0.00  0.00    +0.000 OA
BRANCH   2   4
ATOM      4  O   UNL     1       6.195   3.658  16.478  0.00  0.00    +0.000 OA
ATOM      5  H   UNL     1       6.628   2.811  16.704  0.00  0.00    +0.000 HD
ENDBRANCH   2   4
BRANCH   2   6
ATOM      6  O   UNL     1       8.210   4.045  17.651  0.00  0.00    +0.000 OA
ATOM      7  H   UNL     1       8.749   4.615  18.238  0.00  0.00    +0.000 HD
ENDBRANCH   2   6
ENDBRANCH   1   2
BRANCH   1   8
ATOM      8  C   UNL     1       4.104   5.127  18.438  0.00  0.00    +0.000 C 
BRANCH   8   9
ATOM      9  C   UNL     1       2.976   4.301  17.836  0.00  0.00    +0.000 C 
BRANCH   9  11
ATOM     10  C   UNL     1       3.093   3.272  20.090  0.00  0.00    +0.000 C 
ATOM     11  N   UNL     1       2.672   3.023  18.639  0.00  0.00    +0.000 N 
ATOM     12  C   UNL     1       3.467   1.829  18.113  0.00  0.00    +0.000 C 
ATOM     13  C   UNL     1       1.184   2.688  18.627  0.00  0.00    +0.000 C 
ENDBRANCH   9  11
ENDBRANCH   8   9
ENDBRANCH   1   8
TORSDOF 6
ENDMDL
MODEL 4
REMARK VINA RESULT:      -4.5      0.375      1.312
REMARK  Name = 
REMARK  9 active torsions:
REMARK  status: ('A' for Active; 'I' for Inactive)
REMARK    1  A    between atoms: C_1  and  N_2
REMARK    2  A    between atoms: N_2  and  C_3
REMARK    3  A    between atoms: N_2  and  C_4
REMARK    4  A    between atoms: N_2  and  C_5
REMARK    5  A    between atoms: C_5  and  C_6
REMARK    6  A    between atoms: C_6  and  C_7
REMARK    7  A    between atoms: C_7  and  P_8
REMARK    8  A    between atoms: P_8  and  O_10
REMARK    9  A    between atoms: P_8  and  O_11
REMARK                            x       y       z     vdW  Elec       q    Type
REMARK                         _______ _______ _______ _____ _____    ______ ____
ROOT
ATOM      1  C   UNL     1       6.470   5.184  18.753  0.00  0.00    +0.000 C 
ENDROOT
BRANCH   1   2
ATOM      2  P   UNL     1       6.977   5.295  16.999  0.00  0.00    +0.000 P 
ATOM      3  O   UNL     1       7.718   6.599  17.281  0.00  0.00    +0.000 OA
BRANCH   2   4
ATOM      4  O   UNL     1       8.098   4.130  17.226  0.00  0.00    +0.000 OA
ATOM      5  H   UNL     1       8.933   4.372  16.779  0.00  0.00    +0.000 HD
ENDBRANCH   2   4
BRANCH   2   6
ATOM      6  O   UNL     1       7.456   5.400  15.339  0.00  0.00    +0.000 OA
ATOM      7  H   UNL     1       6.843   4.816  14.845  0.00  0.00    +0.000 HD
ENDBRANCH   2   6
ENDBRANCH   1   2
BRANCH   1   8
ATOM      8  C   UNL     1       4.944   5.216  18.847  0.00  0.00    +0.000 C 
BRANCH   8   9
ATOM      9  C   UNL     1       4.302   4.283  17.831  0.00  0.00    +0.000 C 
BRANCH   9  11
ATOM     10  C   UNL     1       1.835   4.029  17.873  0.00  0.00    +0.000 C 
ATOM     11  N   UNL     1       3.145   3.455  18.421  0.00  0.00    +0.000 N 
ATOM     12  C   UNL     1       3.106   3.554  19.944  0.00  0.00    +0.000 C 
ATOM     13  C   UNL     1       3.230   1.989  18.008  0.00  0.00    +0.000 C 
ENDBRANCH   9  11
ENDBRANCH   8   9
ENDBRANCH   1   8
TORSDOF 6
ENDMDL
MODEL 5
REMARK VINA RESULT:      -4.5      1.649      2.461
REMARK  Name = 
REMARK  9 active torsions:
REMARK  status: ('A' for Active; 'I' for Inactive)
REMARK    1  A    between atoms: C_1  and  N_2
REMARK    2  A    between atoms: N_2  and  C_3
REMARK    3  A    between atoms: N_2  and  C_4
REMARK    4  A    between atoms: N_2  and  C_5
REMARK    5  A    between atoms: C_5  and  C_6
REMARK    6  A    between atoms: C_6  and  C_7
REMARK    7  A    between atoms: C_7  and  P_8
REMARK    8  A    between atoms: P_8  and  O_10
REMARK    9  A    between atoms: P_8  and  O_11
REMARK                            x       y       z     vdW  Elec       q    Type
REMARK                         _______ _______ _______ _____ _____    ______ ____
ROOT
ATOM      1  C   UNL     1       5.871   3.859  15.955  0.00  0.00    +0.000 C 
ENDROOT
BRANCH   1   2
ATOM      2  P   UNL     1       6.817   5.383  16.319  0.00  0.00    +0.000 P 
ATOM      3  O   UNL     1       7.782   4.590  17.196  0.00  0.00    +0.000 OA
BRANCH   2   4
ATOM      4  O   UNL     1       7.491   5.347  14.833  0.00  0.00    +0.000 OA
ATOM      5  H   UNL     1       7.162   4.576  14.331  0.00  0.00    +0.000 HD
ENDBRANCH   2   4
BRANCH   2   6
ATOM      6  O   UNL     1       7.711   6.824  16.665  0.00  0.00    +0.000 OA
ATOM      7  H   UNL     1       7.463   7.467  15.968  0.00  0.00    +0.000 HD
ENDBRANCH   2   6
ENDBRANCH   1   2
BRANCH   1   8
ATOM      8  C   UNL     1       4.538   3.895  16.702  0.00  0.00    +0.000 C 
BRANCH   8   9
ATOM      9  C   UNL     1       4.198   5.301  17.174  0.00  0.00    +0.000 C 
BRANCH   9  11
ATOM     10  C   UNL     1       3.712   4.688  19.528  0.00  0.00    +0.000 C 
ATOM     11  N   UNL     1       3.115   5.324  18.268  0.00  0.00    +0.000 N 
ATOM     12  C   UNL     1       1.890   4.507  17.860  0.00  0.00    +0.000 C 
ATOM     13  C   UNL     1       2.687   6.746  18.612  0.00  0.00    +0.000 C 
ENDBRANCH   9  11
ENDBRANCH   8   9
ENDBRANCH   1   8
TORSDOF 6
ENDMDL
MODEL 6
REMARK VINA RESULT:      -4.5      1.095      1.589
REMARK  Name = 
REMARK  9 active torsions:
REMARK  status: ('A' for Active; 'I' for Inactive)
REMARK    1  A    between atoms: C_1  and  N_2
REMARK    2  A    between atoms: N_2  and  C_3
REMARK    3  A    between atoms: N_2  and  C_4
REMARK    4  A    between atoms: N_2  and  C_5
REMARK    5  A    between atoms: C_5  and  C_6
REMARK    6  A    between atoms: C_6  and  C_7
REMARK    7  A    between atoms: C_7  and  P_8
REMARK    8  A    between atoms: P_8  and  O_10
REMARK    9  A    between atoms: P_8  and  O_11
REMARK                            x       y       z     vdW  Elec       q    Type
REMARK                         _______ _______ _______ _____ _____    ______ ____
ROOT
ATOM      1  C   UNL     1       6.432   5.526  18.486  0.00  0.00    +0.000 C 
ENDROOT
BRANCH   1   2
ATOM      2  P   UNL     1       6.935   5.158  16.765  0.00  0.00    +0.000 P 
ATOM      3  O   UNL     1       7.627   6.515  16.663  0.00  0.00    +0.000 OA
BRANCH   2   4
ATOM      4  O   UNL     1       8.098   4.145  17.298  0.00  0.00    +0.000 OA
ATOM      5  H   UNL     1       8.150   4.173  18.274  0.00  0.00    +0.000 HD
ENDBRANCH   2   4
BRANCH   2   6
ATOM      6  O   UNL     1       7.410   4.811  15.138  0.00  0.00    +0.000 OA
ATOM      7  H   UNL     1       7.541   5.680  14.705  0.00  0.00    +0.000 HD
ENDBRANCH   2   6
ENDBRANCH   1   2
BRANCH   1   8
ATOM      8  C   UNL     1       5.416   4.485  18.955  0.00  0.00    +0.000 C 
BRANCH   8   9
ATOM      9  C   UNL     1       4.266   4.341  17.968  0.00  0.00    +0.000 C 
BRANCH   9  11
ATOM     10  C   UNL     1       2.839   6.358  18.185  0.00  0.00    +0.000 C 
ATOM     11  N   UNL     1       2.929   4.867  18.522  0.00  0.00    +0.000 N 
ATOM     12  C   UNL     1       2.854   4.718  20.040  0.00  0.00    +0.000 C 
ATOM     13  C   UNL     1       1.736   4.164  17.882  0.00  0.00    +0.000 C 
ENDBRANCH   9  11
ENDBRANCH   8   9
ENDBRANCH   1   8
TORSDOF 6
ENDMDL
MODEL 7
REMARK VINA RESULT:      -4.5      1.151      1.770
REMARK  Name = 
REMARK  9 active torsions:
REMARK  status: ('A' for Active; 'I' for Inactive)
REMARK    1  A    between atoms: C_1  and  N_2
REMARK    2  A    between atoms: N_2  and  C_3
REMARK    3  A    between atoms: N_2  and  C_4
REMARK    4  A    between atoms: N_2  and  C_5
REMARK    5  A    between atoms: C_5  and  C_6
REMARK    6  A    between atoms: C_6  and  C_7
REMARK    7  A    between atoms: C_7  and  P_8
REMARK    8  A    between atoms: P_8  and  O_10
REMARK    9  A    between atoms: P_8  and  O_11
REMARK                            x       y       z     vdW  Elec       q    Type
REMARK                         _______ _______ _______ _____ _____    ______ ____
ROOT
ATOM      1  C   UNL     1       5.579   4.804  17.512  0.00  0.00    +0.000 C 
ENDROOT
BRANCH   1   2
ATOM      2  P   UNL     1       6.703   5.083  16.094  0.00  0.00    +0.000 P 
ATOM      3  O   UNL     1       6.830   6.557  16.468  0.00  0.00    +0.000 OA
BRANCH   2   4
ATOM      4  O   UNL     1       7.925   4.351  16.891  0.00  0.00    +0.000 OA
ATOM      5  H   UNL     1       8.554   3.956  16.257  0.00  0.00    +0.000 HD
ENDBRANCH   2   4
BRANCH   2   6
ATOM      6  O   UNL     1       7.765   5.346  14.754  0.00  0.00    +0.000 OA
ATOM      7  H   UNL     1       7.606   4.603  14.135  0.00  0.00    +0.000 HD
ENDBRANCH   2   6
ENDBRANCH   1   2
BRANCH   1   8
ATOM      8  C   UNL     1       4.409   3.924  17.071  0.00  0.00    +0.000 C 
BRANCH   8   9
ATOM      9  C   UNL     1       3.950   3.001  18.190  0.00  0.00    +0.000 C 
BRANCH   9  11
ATOM     10  C   UNL     1       1.791   2.135  19.051  0.00  0.00    +0.000 C 
ATOM     11  N   UNL     1       2.594   3.413  18.792  0.00  0.00    +0.000 N 
ATOM     12  C   UNL     1       1.795   4.287  17.826  0.00  0.00    +0.000 C 
ATOM     13  C   UNL     1       2.763   4.144  20.119  0.00  0.00    +0.000 C 
ENDBRANCH   9  11
ENDBRANCH   8   9
ENDBRANCH   1   8
TORSDOF 6
ENDMDL
MODEL 8
REMARK VINA RESULT:      -4.5      1.284      1.751
REMARK  Name = 
REMARK  9 active torsions:
REMARK  status: ('A' for Active; 'I' for Inactive)
REMARK    1  A    between atoms: C_1  and  N_2
REMARK    2  A    between atoms: N_2  and  C_3
REMARK    3  A    between atoms: N_2  and  C_4
REMARK    4  A    between atoms: N_2  and  C_5
REMARK    5  A    between atoms: C_5  and  C_6
REMARK    6  A    between atoms: C_6  and  C_7
REMARK    7  A    between atoms: C_7  and  P_8
REMARK    8  A    between atoms: P_8  and  O_10
REMARK    9  A    between atoms: P_8  and  O_11
REMARK                            x       y       z     vdW  Elec       q    Type
REMARK                         _______ _______ _______ _____ _____    ______ ____
ROOT
ATOM      1  C   UNL     1       5.594   5.928  16.465  0.00  0.00    +0.000 C 
ENDROOT
BRANCH   1   2
ATOM      2  P   UNL     1       7.002   4.945  17.100  0.00  0.00    +0.000 P 
ATOM      3  O   UNL     1       7.489   4.698  15.675  0.00  0.00    +0.000 OA
BRANCH   2   4
ATOM      4  O   UNL     1       7.772   6.307  17.564  0.00  0.00    +0.000 OA
ATOM      5  H   UNL     1       8.253   6.155  18.402  0.00  0.00    +0.000 HD
ENDBRANCH   2   4
BRANCH   2   6
ATOM      6  O   UNL     1       8.333   4.016  17.700  0.00  0.00    +0.000 OA
ATOM      7  H   UNL     1       8.746   4.560  18.402  0.00  0.00    +0.000 HD
ENDBRANCH   2   6
ENDBRANCH   1   2
BRANCH   1   8
ATOM      8  C   UNL     1       4.283   5.323  16.966  0.00  0.00    +0.000 C 
BRANCH   8   9
ATOM      9  C   UNL     1       4.428   3.836  17.260  0.00  0.00    +0.000 C 
BRANCH   9  11
ATOM     10  C   UNL     1       4.306   2.847  19.531  0.00  0.00    +0.000 C 
ATOM     11  N   UNL     1       3.462   3.341  18.353  0.00  0.00    +0.000 N 
ATOM     12  C   UNL     1       2.608   2.176  17.859  0.00  0.00    +0.000 C 
ATOM     13  C   UNL     1       2.556   4.460  18.855  0.00  0.00    +0.000 C 
ENDBRANCH   9  11
ENDBRANCH   8   9
ENDBRANCH   1   8
TORSDOF 6
ENDMDL
MODEL 9
REMARK VINA RESULT:      -4.5      1.634      2.218
REMARK  Name = 
REMARK  9 active torsions:
REMARK  status: ('A' for Active; 'I' for Inactive)
REMARK    1  A    between atoms: C_1  and  N_2
REMARK    2  A    between atoms: N_2  and  C_3
REMARK    3  A    between atoms: N_2  and  C_4
REMARK    4  A    between atoms: N_2  and  C_5
REMARK    5  A    between atoms: C_5  and  C_6
REMARK    6  A    between atoms: C_6  and  C_7
REMARK    7  A    between atoms: C_7  and  P_8
REMARK    8  A    between atoms: P_8  and  O_10
REMARK    9  A    between atoms: P_8  and  O_11
REMARK                            x       y       z     vdW  Elec       q    Type
REMARK                         _______ _______ _______ _____ _____    ______ ____
ROOT
ATOM      1  C   UNL     1       5.461   3.833  16.186  0.00  0.00    +0.000 C 
ENDROOT
BRANCH   1   2
ATOM      2  P   UNL     1       6.692   4.721  15.164  0.00  0.00    +0.000 P 
ATOM      3  O   UNL     1       6.032   6.054  15.503  0.00  0.00    +0.000 OA
BRANCH   2   4
ATOM      4  O   UNL     1       7.828   4.520  16.318  0.00  0.00    +0.000 OA
ATOM      5  H   UNL     1       7.407   4.318  17.176  0.00  0.00    +0.000 HD
ENDBRANCH   2   4
BRANCH   2   6
ATOM      6  O   UNL     1       7.855   5.560  14.196  0.00  0.00    +0.000 OA
ATOM      7  H   UNL     1       7.365   6.285  13.755  0.00  0.00    +0.000 HD
ENDBRANCH   2   6
ENDBRANCH   1   2
BRANCH   1   8
ATOM      8  C   UNL     1       4.538   4.843  16.866  0.00  0.00    +0.000 C 
BRANCH   8   9
ATOM      9  C   UNL     1       3.290   4.174  17.425  0.00  0.00    +0.000 C 
BRANCH   9  11
ATOM     10  C   UNL     1       3.906   2.949  19.492  0.00  0.00    +0.000 C 
ATOM     11  N   UNL     1       3.223   4.214  18.963  0.00  0.00    +0.000 N 
ATOM     12  C   UNL     1       1.779   4.216  19.460  0.00  0.00    +0.000 C 
ATOM     13  C   UNL     1       3.958   5.423  19.530  0.00  0.00    +0.000 C 
ENDBRANCH   9  11
ENDBRANCH   8   9
ENDBRANCH   1   8
TORSDOF 6
ENDMDL
