MODEL 1
REMARK VINA RESULT:      -8.9      0.000      0.000
REMARK  Name = 
REMARK  6 active torsions:
REMARK  status: ('A' for Active; 'I' for Inactive)
REMARK    1  A    between atoms: C_2  and  O_3
REMARK    2  A    between atoms: C_2  and  C_19
REMARK    3  A    between atoms: O_3  and  C_4
REMARK    4  A    between atoms: C_4  and  C_5
REMARK    5  A    between atoms: C_4  and  C_13
REMARK    6  A    between atoms: C_5  and  C_7
REMARK                            x       y       z     vdW  Elec       q    Type
REMARK                         _______ _______ _______ _____ _____    ______ ____
ROOT
ATOM      1  C   UNL     1       2.879   5.800  18.145  0.00  0.00    +0.000 C 
ENDROOT
BRANCH   1   2
ATOM      2  C   UNL     1       2.298   4.744  19.092  0.00  0.00    +0.000 A 
ATOM      3  C   UNL     1       2.648   4.769  20.457  0.00  0.00    +0.000 A 
ATOM      4  C   UNL     1       2.102   3.857  21.362  0.00  0.00    +0.000 A 
ATOM      5  C   UNL     1       1.192   2.901  20.924  0.00  0.00    +0.000 A 
ATOM      6  C   UNL     1       0.812   2.872  19.585  0.00  0.00    +0.000 A 
ATOM      7  C   UNL     1       1.352   3.791  18.679  0.00  0.00    +0.000 A 
ENDBRANCH   1   2
BRANCH   1   8
ATOM      8  C   UNL     1       4.175   5.353  17.441  0.00  0.00    +0.000 C 
ATOM      9  O   UNL     1       4.163   4.438  16.611  0.00  0.00    +0.000 OA
BRANCH   8  10
ATOM     10  C   UNL     1       5.512   5.905  17.830  0.00  0.00    +0.000 A 
ATOM     11  C   UNL     1       6.164   5.308  18.924  0.00  0.00    +0.000 A 
ATOM     12  C   UNL     1       7.436   5.730  19.317  0.00  0.00    +0.000 A 
ATOM     13  C   UNL     1       8.074   6.747  18.613  0.00  0.00    +0.000 A 
ATOM     14  C   UNL     1       7.433   7.353  17.533  0.00  0.00    +0.000 A 
ATOM     15  C   UNL     1       6.152   6.941  17.144  0.00  0.00    +0.000 A 
ENDBRANCH   8  10
ENDBRANCH   1   8
BRANCH   1  16
ATOM     16  O   UNL     1       3.001   7.031  18.870  0.00  0.00    +0.000 OA
BRANCH  16  18
ATOM     17  O   UNL     1       2.437   8.566  17.269  0.00  0.00    +0.000 OA
ATOM     18  C   UNL     1       2.344   8.111  18.396  0.00  0.00    +0.000 C 
BRANCH  18  19
ATOM     19  C   UNL     1       1.465   8.701  19.443  0.00  0.00    +0.000 A 
ATOM     20  C   UNL     1       1.511   8.161  20.739  0.00  0.00    +0.000 A 
ATOM     21  C   UNL     1       0.678   8.661  21.747  0.00  0.00    +0.000 A 
ATOM     22  C   UNL     1      -0.202   9.707  21.475  0.00  0.00    +0.000 A 
ATOM     23  C   UNL     1      -0.233  10.269  20.201  0.00  0.00    +0.000 A 
ATOM     24  C   UNL     1       0.598   9.771  19.197  0.00  0.00    +0.000 A 
ATOM     25  F   UNL     1       0.528  10.362  17.996  0.00  0.00    +0.000 F 
ENDBRANCH  18  19
ENDBRANCH  16  18
ENDBRANCH   1  16
TORSDOF 6
ENDMDL
MODEL 2
REMARK VINA RESULT:      -8.8      0.079      1.365
REMARK  Name = 
REMARK  6 active torsions:
REMARK  status: ('A' for Active; 'I' for Inactive)
REMARK    1  A    between atoms: C_2  and  O_3
REMARK    2  A    between atoms: C_2  and  C_19
REMARK    3  A    between atoms: O_3  and  C_4
REMARK    4  A    between atoms: C_4  and  C_5
REMARK    5  A    between atoms: C_4  and  C_13
REMARK    6  A    between atoms: C_5  and  C_7
REMARK                            x       y       z     vdW  Elec       q    Type
REMARK                         _______ _______ _______ _____ _____    ______ ____
ROOT
ATOM      1  C   UNL     1       2.880   5.813  18.152  0.00  0.00    +0.000 C 
ENDROOT
BRANCH   1   2
ATOM      2  C   UNL     1       2.276   4.819  19.151  0.00  0.00    +0.000 A 
ATOM      3  C   UNL     1       1.374   3.838  18.692  0.00  0.00    +0.000 A 
ATOM      4  C   UNL     1       0.841   2.882  19.559  0.00  0.00    +0.000 A 
ATOM      5  C   UNL     1       1.200   2.884  20.903  0.00  0.00    +0.000 A 
ATOM      6  C   UNL     1       2.108   3.829  21.374  0.00  0.00    +0.000 A 
ATOM      7  C   UNL     1       2.648   4.781  20.504  0.00  0.00    +0.000 A 
ENDBRANCH   1   2
BRANCH   1   8
ATOM      8  C   UNL     1       4.150   5.292  17.452  0.00  0.00    +0.000 C 
ATOM      9  O   UNL     1       4.085   4.391  16.609  0.00  0.00    +0.000 OA
BRANCH   8  10
ATOM     10  C   UNL     1       5.517   5.749  17.859  0.00  0.00    +0.000 A 
ATOM     11  C   UNL     1       6.091   6.802  17.125  0.00  0.00    +0.000 A 
ATOM     12  C   UNL     1       7.340   7.321  17.474  0.00  0.00    +0.000 A 
ATOM     13  C   UNL     1       8.023   6.800  18.569  0.00  0.00    +0.000 A 
ATOM     14  C   UNL     1       7.466   5.750  19.299  0.00  0.00    +0.000 A 
ATOM     15  C   UNL     1       6.220   5.218  18.943  0.00  0.00    +0.000 A 
ENDBRANCH   8  10
ENDBRANCH   1   8
BRANCH   1  16
ATOM     16  O   UNL     1       3.054   7.069  18.821  0.00  0.00    +0.000 OA
BRANCH  16  18
ATOM     17  O   UNL     1       2.442   8.596  17.230  0.00  0.00    +0.000 OA
ATOM     18  C   UNL     1       2.367   8.134  18.356  0.00  0.00    +0.000 C 
BRANCH  18  19
ATOM     19  C   UNL     1       1.480   8.697  19.410  0.00  0.00    +0.000 A 
ATOM     20  C   UNL     1       1.564   8.170  20.709  0.00  0.00    +0.000 A 
ATOM     21  C   UNL     1       0.725   8.644  21.725  0.00  0.00    +0.000 A 
ATOM     22  C   UNL     1      -0.199   9.652  21.457  0.00  0.00    +0.000 A 
ATOM     23  C   UNL     1      -0.270  10.202  20.180  0.00  0.00    +0.000 A 
ATOM     24  C   UNL     1       0.567   9.730  19.168  0.00  0.00    +0.000 A 
ATOM     25  F   UNL     1       0.458  10.307  17.964  0.00  0.00    +0.000 F 
ENDBRANCH  18  19
ENDBRANCH  16  18
ENDBRANCH   1  16
TORSDOF 6
ENDMDL
MODEL 3
REMARK VINA RESULT:      -8.6      2.424      4.751
REMARK  Name = 
REMARK  6 active torsions:
REMARK  status: ('A' for Active; 'I' for Inactive)
REMARK    1  A    between atoms: C_2  and  O_3
REMARK    2  A    between atoms: C_2  and  C_19
REMARK    3  A    between atoms: O_3  and  C_4
REMARK    4  A    between atoms: C_4  and  C_5
REMARK    5  A    between atoms: C_4  and  C_13
REMARK    6  A    between atoms: C_5  and  C_7
REMARK                            x       y       z     vdW  Elec       q    Type
REMARK                         _______ _______ _______ _____ _____    ______ ____
ROOT
ATOM      1  C   UNL     1       3.453   5.163  17.908  0.00  0.00    +0.000 C 
ENDROOT
BRANCH   1   2
ATOM      2  C   UNL     1       2.787   6.464  18.370  0.00  0.00    +0.000 A 
ATOM      3  C   UNL     1       2.375   6.592  19.712  0.00  0.00    +0.000 A 
ATOM      4  C   UNL     1       1.811   7.778  20.187  0.00  0.00    +0.000 A 
ATOM      5  C   UNL     1       1.648   8.863  19.332  0.00  0.00    +0.000 A 
ATOM      6  C   UNL     1       2.069   8.767  18.008  0.00  0.00    +0.000 A 
ATOM      7  C   UNL     1       2.643   7.583  17.535  0.00  0.00    +0.000 A 
ENDBRANCH   1   2
BRANCH   1   8
ATOM      8  C   UNL     1       4.718   5.386  17.054  0.00  0.00    +0.000 C 
ATOM      9  O   UNL     1       4.800   4.927  15.911  0.00  0.00    +0.000 OA
BRANCH   8  10
ATOM     10  C   UNL     1       5.942   6.040  17.618  0.00  0.00    +0.000 A 
ATOM     11  C   UNL     1       6.597   5.383  18.675  0.00  0.00    +0.000 A 
ATOM     12  C   UNL     1       7.773   5.902  19.221  0.00  0.00    +0.000 A 
ATOM     13  C   UNL     1       8.313   7.077  18.707  0.00  0.00    +0.000 A 
ATOM     14  C   UNL     1       7.667   7.741  17.665  0.00  0.00    +0.000 A 
ATOM     15  C   UNL     1       6.480   7.232  17.125  0.00  0.00    +0.000 A 
ENDBRANCH   8  10
ENDBRANCH   1   8
BRANCH   1  16
ATOM     16  O   UNL     1       2.456   4.351  17.275  0.00  0.00    +0.000 OA
BRANCH  16  18
ATOM     17  O   UNL     1       2.397   2.100  16.867  0.00  0.00    +0.000 OA
ATOM     18  C   UNL     1       2.382   3.050  17.630  0.00  0.00    +0.000 C 
BRANCH  18  19
ATOM     19  C   UNL     1       2.275   2.907  19.108  0.00  0.00    +0.000 A 
ATOM     20  C   UNL     1       1.021   3.100  19.711  0.00  0.00    +0.000 A 
ATOM     21  C   UNL     1       0.879   3.010  21.101  0.00  0.00    +0.000 A 
ATOM     22  C   UNL     1       1.983   2.719  21.901  0.00  0.00    +0.000 A 
ATOM     23  C   UNL     1       3.224   2.497  21.309  0.00  0.00    +0.000 A 
ATOM     24  C   UNL     1       3.365   2.586  19.924  0.00  0.00    +0.000 A 
ATOM     25  F   UNL     1       4.583   2.351  19.416  0.00  0.00    +0.000 F 
ENDBRANCH  18  19
ENDBRANCH  16  18
ENDBRANCH   1  16
TORSDOF 6
ENDMDL
MODEL 4
REMARK VINA RESULT:      -8.6      0.947      1.382
REMARK  Name = 
REMARK  6 active torsions:
REMARK  status: ('A' for Active; 'I' for Inactive)
REMARK    1  A    between atoms: C_2  and  O_3
REMARK    2  A    between atoms: C_2  and  C_19
REMARK    3  A    between atoms: O_3  and  C_4
REMARK    4  A    between atoms: C_4  and  C_5
REMARK    5  A    between atoms: C_4  and  C_13
REMARK    6  A    between atoms: C_5  and  C_7
REMARK                            x       y       z     vdW  Elec       q    Type
REMARK                         _______ _______ _______ _____ _____    ______ ____
ROOT
ATOM      1  C   UNL     1       2.833   5.739  18.084  0.00  0.00    +0.000 C 
ENDROOT
BRANCH   1   2
ATOM      2  C   UNL     1       2.274   4.718  19.082  0.00  0.00    +0.000 A 
ATOM      3  C   UNL     1       2.639   4.806  20.441  0.00  0.00    +0.000 A 
ATOM      4  C   UNL     1       2.113   3.928  21.390  0.00  0.00    +0.000 A 
ATOM      5  C   UNL     1       1.210   2.944  21.004  0.00  0.00    +0.000 A 
ATOM      6  C   UNL     1       0.817   2.853  19.671  0.00  0.00    +0.000 A 
ATOM      7  C   UNL     1       1.337   3.738  18.721  0.00  0.00    +0.000 A 
ENDBRANCH   1   2
BRANCH   1   8
ATOM      8  C   UNL     1       4.142   5.288  17.406  0.00  0.00    +0.000 C 
ATOM      9  O   UNL     1       4.144   4.371  16.579  0.00  0.00    +0.000 OA
BRANCH   8  10
ATOM     10  C   UNL     1       5.472   5.840  17.818  0.00  0.00    +0.000 A 
ATOM     11  C   UNL     1       6.087   5.270  18.947  0.00  0.00    +0.000 A 
ATOM     12  C   UNL     1       7.350   5.693  19.364  0.00  0.00    +0.000 A 
ATOM     13  C   UNL     1       8.018   6.683  18.650  0.00  0.00    +0.000 A 
ATOM     14  C   UNL     1       7.414   7.262  17.534  0.00  0.00    +0.000 A 
ATOM     15  C   UNL     1       6.141   6.850  17.121  0.00  0.00    +0.000 A 
ENDBRANCH   8  10
ENDBRANCH   1   8
BRANCH   1  16
ATOM     16  O   UNL     1       2.924   7.008  18.746  0.00  0.00    +0.000 OA
BRANCH  16  18
ATOM     17  O   UNL     1       2.989   8.479  16.995  0.00  0.00    +0.000 OA
ATOM     18  C   UNL     1       2.537   8.106  18.064  0.00  0.00    +0.000 C 
BRANCH  18  19
ATOM     19  C   UNL     1       1.460   8.833  18.791  0.00  0.00    +0.000 A 
ATOM     20  C   UNL     1       0.585   9.647  18.053  0.00  0.00    +0.000 A 
ATOM     21  C   UNL     1      -0.421  10.376  18.699  0.00  0.00    +0.000 A 
ATOM     22  C   UNL     1      -0.568  10.296  20.082  0.00  0.00    +0.000 A 
ATOM     23  C   UNL     1       0.276   9.468  20.818  0.00  0.00    +0.000 A 
ATOM     24  C   UNL     1       1.278   8.741  20.175  0.00  0.00    +0.000 A 
ATOM     25  F   UNL     1       2.050   7.955  20.939  0.00  0.00    +0.000 F 
ENDBRANCH  18  19
ENDBRANCH  16  18
ENDBRANCH   1  16
TORSDOF 6
ENDMDL
MODEL 5
REMARK VINA RESULT:      -8.6      0.959      1.949
REMARK  Name = 
REMARK  6 active torsions:
REMARK  status: ('A' for Active; 'I' for Inactive)
REMARK    1  A    between atoms: C_2  and  O_3
REMARK    2  A    between atoms: C_2  and  C_19
REMARK    3  A    between atoms: O_3  and  C_4
REMARK    4  A    between atoms: C_4  and  C_5
REMARK    5  A    between atoms: C_4  and  C_13
REMARK    6  A    between atoms: C_5  and  C_7
REMARK                            x       y       z     vdW  Elec       q    Type
REMARK                         _______ _______ _______ _____ _____    ______ ____
ROOT
ATOM      1  C   UNL     1       2.830   5.751  18.125  0.00  0.00    +0.000 C 
ENDROOT
BRANCH   1   2
ATOM      2  C   UNL     1       2.242   4.784  19.159  0.00  0.00    +0.000 A 
ATOM      3  C   UNL     1       1.358   3.771  18.737  0.00  0.00    +0.000 A 
ATOM      4  C   UNL     1       0.840   2.839  19.638  0.00  0.00    +0.000 A 
ATOM      5  C   UNL     1       1.197   2.896  20.981  0.00  0.00    +0.000 A 
ATOM      6  C   UNL     1       2.088   3.873  21.417  0.00  0.00    +0.000 A 
ATOM      7  C   UNL     1       2.613   4.802  20.513  0.00  0.00    +0.000 A 
ENDBRANCH   1   2
BRANCH   1   8
ATOM      8  C   UNL     1       4.109   5.225  17.445  0.00  0.00    +0.000 C 
ATOM      9  O   UNL     1       4.054   4.329  16.596  0.00  0.00    +0.000 OA
BRANCH   8  10
ATOM     10  C   UNL     1       5.472   5.672  17.879  0.00  0.00    +0.000 A 
ATOM     11  C   UNL     1       6.105   6.660  17.103  0.00  0.00    +0.000 A 
ATOM     12  C   UNL     1       7.354   7.166  17.470  0.00  0.00    +0.000 A 
ATOM     13  C   UNL     1       7.976   6.700  18.624  0.00  0.00    +0.000 A 
ATOM     14  C   UNL     1       7.361   5.715  19.396  0.00  0.00    +0.000 A 
ATOM     15  C   UNL     1       6.115   5.194  19.023  0.00  0.00    +0.000 A 
ENDBRANCH   8  10
ENDBRANCH   1   8
BRANCH   1  16
ATOM     16  O   UNL     1       2.983   7.033  18.748  0.00  0.00    +0.000 OA
BRANCH  16  18
ATOM     17  O   UNL     1       3.063   8.499  16.993  0.00  0.00    +0.000 OA
ATOM     18  C   UNL     1       2.594   8.124  18.054  0.00  0.00    +0.000 C 
BRANCH  18  19
ATOM     19  C   UNL     1       1.492   8.837  18.756  0.00  0.00    +0.000 A 
ATOM     20  C   UNL     1       0.619   9.634  17.997  0.00  0.00    +0.000 A 
ATOM     21  C   UNL     1      -0.411  10.350  18.619  0.00  0.00    +0.000 A 
ATOM     22  C   UNL     1      -0.584  10.274  19.999  0.00  0.00    +0.000 A 
ATOM     23  C   UNL     1       0.259   9.463  20.756  0.00  0.00    +0.000 A 
ATOM     24  C   UNL     1       1.284   8.749  20.136  0.00  0.00    +0.000 A 
ATOM     25  F   UNL     1       2.053   7.979  20.919  0.00  0.00    +0.000 F 
ENDBRANCH  18  19
ENDBRANCH  16  18
ENDBRANCH   1  16
TORSDOF 6
ENDMDL
MODEL 6
REMARK VINA RESULT:      -8.5      2.270      4.817
REMARK  Name = 
REMARK  6 active torsions:
REMARK  status: ('A' for Active; 'I' for Inactive)
REMARK    1  A    between atoms: C_2  and  O_3
REMARK    2  A    between atoms: C_2  and  C_19
REMARK    3  A    between atoms: O_3  and  C_4
REMARK    4  A    between atoms: C_4  and  C_5
REMARK    5  A    between atoms: C_4  and  C_13
REMARK    6  A    between atoms: C_5  and  C_7
REMARK                            x       y       z     vdW  Elec       q    Type
REMARK                         _______ _______ _______ _____ _____    ______ ____
ROOT
ATOM      1  C   UNL     1       3.258   5.623  18.055  0.00  0.00    +0.000 C 
ENDROOT
BRANCH   1   2
ATOM      2  C   UNL     1       2.558   6.889  18.563  0.00  0.00    +0.000 A 
ATOM      3  C   UNL     1       2.185   6.978  19.919  0.00  0.00    +0.000 A 
ATOM      4  C   UNL     1       1.592   8.133  20.433  0.00  0.00    +0.000 A 
ATOM      5  C   UNL     1       1.361   9.225  19.605  0.00  0.00    +0.000 A 
ATOM      6  C   UNL     1       1.743   9.169  18.267  0.00  0.00    +0.000 A 
ATOM      7  C   UNL     1       2.345   8.016  17.753  0.00  0.00    +0.000 A 
ENDBRANCH   1   2
BRANCH   1   8
ATOM      8  C   UNL     1       4.498   5.910  17.185  0.00  0.00    +0.000 C 
ATOM      9  O   UNL     1       4.445   5.819  15.955  0.00  0.00    +0.000 OA
BRANCH   8  10
ATOM     10  C   UNL     1       5.843   6.170  17.794  0.00  0.00    +0.000 A 
ATOM     11  C   UNL     1       6.589   7.244  17.276  0.00  0.00    +0.000 A 
ATOM     12  C   UNL     1       7.828   7.583  17.823  0.00  0.00    +0.000 A 
ATOM     13  C   UNL     1       8.329   6.860  18.902  0.00  0.00    +0.000 A 
ATOM     14  C   UNL     1       7.600   5.789  19.417  0.00  0.00    +0.000 A 
ATOM     15  C   UNL     1       6.364   5.436  18.862  0.00  0.00    +0.000 A 
ENDBRANCH   8  10
ENDBRANCH   1   8
BRANCH   1  16
ATOM     16  O   UNL     1       2.277   4.794  17.420  0.00  0.00    +0.000 OA
BRANCH  16  18
ATOM     17  O   UNL     1       2.429   2.604  16.773  0.00  0.00    +0.000 OA
ATOM     18  C   UNL     1       2.340   3.463  17.634  0.00  0.00    +0.000 C 
BRANCH  18  19
ATOM     19  C   UNL     1       2.285   3.154  19.089  0.00  0.00    +0.000 A 
ATOM     20  C   UNL     1       1.050   3.255  19.750  0.00  0.00    +0.000 A 
ATOM     21  C   UNL     1       0.957   3.008  21.125  0.00  0.00    +0.000 A 
ATOM     22  C   UNL     1       2.092   2.652  21.852  0.00  0.00    +0.000 A 
ATOM     23  C   UNL     1       3.316   2.521  21.199  0.00  0.00    +0.000 A 
ATOM     24  C   UNL     1       3.407   2.766  19.829  0.00  0.00    +0.000 A 
ATOM     25  F   UNL     1       4.611   2.612  19.259  0.00  0.00    +0.000 F 
ENDBRANCH  18  19
ENDBRANCH  16  18
ENDBRANCH   1  16
TORSDOF 6
ENDMDL
MODEL 7
REMARK VINA RESULT:      -8.4      2.188      4.895
REMARK  Name = 
REMARK  6 active torsions:
REMARK  status: ('A' for Active; 'I' for Inactive)
REMARK    1  A    between atoms: C_2  and  O_3
REMARK    2  A    between atoms: C_2  and  C_19
REMARK    3  A    between atoms: O_3  and  C_4
REMARK    4  A    between atoms: C_4  and  C_5
REMARK    5  A    between atoms: C_4  and  C_13
REMARK    6  A    between atoms: C_5  and  C_7
REMARK                            x       y       z     vdW  Elec       q    Type
REMARK                         _______ _______ _______ _____ _____    ______ ____
ROOT
ATOM      1  C   UNL     1       3.109   5.988  18.195  0.00  0.00    +0.000 C 
ENDROOT
BRANCH   1   2
ATOM      2  C   UNL     1       2.453   7.291  18.665  0.00  0.00    +0.000 A 
ATOM      3  C   UNL     1       2.223   8.326  17.736  0.00  0.00    +0.000 A 
ATOM      4  C   UNL     1       1.582   9.508  18.112  0.00  0.00    +0.000 A 
ATOM      5  C   UNL     1       1.155   9.682  19.424  0.00  0.00    +0.000 A 
ATOM      6  C   UNL     1       1.350   8.664  20.353  0.00  0.00    +0.000 A 
ATOM      7  C   UNL     1       1.984   7.476  19.975  0.00  0.00    +0.000 A 
ENDBRANCH   1   2
BRANCH   1   8
ATOM      8  C   UNL     1       4.357   6.206  17.316  0.00  0.00    +0.000 C 
ATOM      9  O   UNL     1       4.271   6.216  16.084  0.00  0.00    +0.000 OA
BRANCH   8  10
ATOM     10  C   UNL     1       5.732   6.274  17.906  0.00  0.00    +0.000 A 
ATOM     11  C   UNL     1       6.611   7.241  17.386  0.00  0.00    +0.000 A 
ATOM     12  C   UNL     1       7.893   7.402  17.917  0.00  0.00    +0.000 A 
ATOM     13  C   UNL     1       8.304   6.606  18.982  0.00  0.00    +0.000 A 
ATOM     14  C   UNL     1       7.444   5.638  19.500  0.00  0.00    +0.000 A 
ATOM     15  C   UNL     1       6.163   5.464  18.960  0.00  0.00    +0.000 A 
ENDBRANCH   8  10
ENDBRANCH   1   8
BRANCH   1  16
ATOM     16  O   UNL     1       2.099   5.174  17.585  0.00  0.00    +0.000 OA
BRANCH  16  18
ATOM     17  O   UNL     1       2.333   3.073  16.708  0.00  0.00    +0.000 OA
ATOM     18  C   UNL     1       2.239   3.833  17.657  0.00  0.00    +0.000 C 
BRANCH  18  19
ATOM     19  C   UNL     1       2.267   3.375  19.073  0.00  0.00    +0.000 A 
ATOM     20  C   UNL     1       1.093   3.487  19.837  0.00  0.00    +0.000 A 
ATOM     21  C   UNL     1       1.081   3.102  21.182  0.00  0.00    +0.000 A 
ATOM     22  C   UNL     1       2.235   2.596  21.778  0.00  0.00    +0.000 A 
ATOM     23  C   UNL     1       3.395   2.453  21.020  0.00  0.00    +0.000 A 
ATOM     24  C   UNL     1       3.406   2.836  19.679  0.00  0.00    +0.000 A 
ATOM     25  F   UNL     1       4.551   2.663  19.003  0.00  0.00    +0.000 F 
ENDBRANCH  18  19
ENDBRANCH  16  18
ENDBRANCH   1  16
TORSDOF 6
ENDMDL
MODEL 8
REMARK VINA RESULT:      -8.3      2.132      4.609
REMARK  Name = 
REMARK  6 active torsions:
REMARK  status: ('A' for Active; 'I' for Inactive)
REMARK    1  A    between atoms: C_2  and  O_3
REMARK    2  A    between atoms: C_2  and  C_19
REMARK    3  A    between atoms: O_3  and  C_4
REMARK    4  A    between atoms: C_4  and  C_5
REMARK    5  A    between atoms: C_4  and  C_13
REMARK    6  A    between atoms: C_5  and  C_7
REMARK                            x       y       z     vdW  Elec       q    Type
REMARK                         _______ _______ _______ _____ _____    ______ ____
ROOT
ATOM      1  C   UNL     1       3.436   5.154  17.932  0.00  0.00    +0.000 C 
ENDROOT
BRANCH   1   2
ATOM      2  C   UNL     1       2.772   6.463  18.376  0.00  0.00    +0.000 A 
ATOM      3  C   UNL     1       2.356   6.609  19.715  0.00  0.00    +0.000 A 
ATOM      4  C   UNL     1       1.794   7.803  20.172  0.00  0.00    +0.000 A 
ATOM      5  C   UNL     1       1.638   8.878  19.303  0.00  0.00    +0.000 A 
ATOM      6  C   UNL     1       2.065   8.764  17.983  0.00  0.00    +0.000 A 
ATOM      7  C   UNL     1       2.635   7.572  17.526  0.00  0.00    +0.000 A 
ENDBRANCH   1   2
BRANCH   1   8
ATOM      8  C   UNL     1       4.700   5.362  17.075  0.00  0.00    +0.000 C 
ATOM      9  O   UNL     1       4.780   4.889  15.936  0.00  0.00    +0.000 OA
BRANCH   8  10
ATOM     10  C   UNL     1       5.928   6.018  17.630  0.00  0.00    +0.000 A 
ATOM     11  C   UNL     1       6.585   5.367  18.690  0.00  0.00    +0.000 A 
ATOM     12  C   UNL     1       7.764   5.888  19.227  0.00  0.00    +0.000 A 
ATOM     13  C   UNL     1       8.305   7.057  18.703  0.00  0.00    +0.000 A 
ATOM     14  C   UNL     1       7.657   7.715  17.658  0.00  0.00    +0.000 A 
ATOM     15  C   UNL     1       6.467   7.204  17.125  0.00  0.00    +0.000 A 
ENDBRANCH   8  10
ENDBRANCH   1   8
BRANCH   1  16
ATOM     16  O   UNL     1       2.437   4.334  17.312  0.00  0.00    +0.000 OA
BRANCH  16  18
ATOM     17  O   UNL     1       2.356   2.084  16.901  0.00  0.00    +0.000 OA
ATOM     18  C   UNL     1       2.377   3.033  17.667  0.00  0.00    +0.000 C 
BRANCH  18  19
ATOM     19  C   UNL     1       2.339   2.886  19.148  0.00  0.00    +0.000 A 
ATOM     20  C   UNL     1       3.516   2.507  19.814  0.00  0.00    +0.000 A 
ATOM     21  C   UNL     1       3.519   2.322  21.202  0.00  0.00    +0.000 A 
ATOM     22  C   UNL     1       2.353   2.521  21.939  0.00  0.00    +0.000 A 
ATOM     23  C   UNL     1       1.189   2.926  21.290  0.00  0.00    +0.000 A 
ATOM     24  C   UNL     1       1.186   3.110  19.908  0.00  0.00    +0.000 A 
ATOM     25  F   UNL     1       0.037   3.511  19.346  0.00  0.00    +0.000 F 
ENDBRANCH  18  19
ENDBRANCH  16  18
ENDBRANCH   1  16
TORSDOF 6
ENDMDL
MODEL 9
REMARK VINA RESULT:      -8.2      2.194      4.897
REMARK  Name = 
REMARK  6 active torsions:
REMARK  status: ('A' for Active; 'I' for Inactive)
REMARK    1  A    between atoms: C_2  and  O_3
REMARK    2  A    between atoms: C_2  and  C_19
REMARK    3  A    between atoms: O_3  and  C_4
REMARK    4  A    between atoms: C_4  and  C_5
REMARK    5  A    between atoms: C_4  and  C_13
REMARK    6  A    between atoms: C_5  and  C_7
REMARK                            x       y       z     vdW  Elec       q    Type
REMARK                         _______ _______ _______ _____ _____    ______ ____
ROOT
ATOM      1  C   UNL     1       2.909   6.251  18.380  0.00  0.00    +0.000 C 
ENDROOT
BRANCH   1   2
ATOM      2  C   UNL     1       2.213   7.480  18.976  0.00  0.00    +0.000 A 
ATOM      3  C   UNL     1       1.841   8.545  18.131  0.00  0.00    +0.000 A 
ATOM      4  C   UNL     1       1.160   9.659  18.625  0.00  0.00    +0.000 A 
ATOM      5  C   UNL     1       0.833   9.732  19.975  0.00  0.00    +0.000 A 
ATOM      6  C   UNL     1       1.168   8.681  20.825  0.00  0.00    +0.000 A 
ATOM      7  C   UNL     1       1.843   7.561  20.328  0.00  0.00    +0.000 A 
ENDBRANCH   1   2
BRANCH   1   8
ATOM      8  C   UNL     1       4.114   6.599  17.483  0.00  0.00    +0.000 C 
ATOM      9  O   UNL     1       4.013   7.436  16.581  0.00  0.00    +0.000 OA
BRANCH   8  10
ATOM     10  C   UNL     1       5.405   5.844  17.573  0.00  0.00    +0.000 A 
ATOM     11  C   UNL     1       5.790   5.087  16.451  0.00  0.00    +0.000 A 
ATOM     12  C   UNL     1       7.004   4.397  16.437  0.00  0.00    +0.000 A 
ATOM     13  C   UNL     1       7.851   4.466  17.539  0.00  0.00    +0.000 A 
ATOM     14  C   UNL     1       7.475   5.206  18.659  0.00  0.00    +0.000 A 
ATOM     15  C   UNL     1       6.252   5.888  18.683  0.00  0.00    +0.000 A 
ENDBRANCH   8  10
ENDBRANCH   1   8
BRANCH   1  16
ATOM     16  O   UNL     1       1.915   5.442  17.737  0.00  0.00    +0.000 OA
BRANCH  16  18
ATOM     17  O   UNL     1       2.177   3.418  16.703  0.00  0.00    +0.000 OA
ATOM     18  C   UNL     1       2.110   4.107  17.706  0.00  0.00    +0.000 C 
BRANCH  18  19
ATOM     19  C   UNL     1       2.238   3.556  19.083  0.00  0.00    +0.000 A 
ATOM     20  C   UNL     1       1.109   3.571  19.919  0.00  0.00    +0.000 A 
ATOM     21  C   UNL     1       1.191   3.095  21.233  0.00  0.00    +0.000 A 
ATOM     22  C   UNL     1       2.395   2.594  21.724  0.00  0.00    +0.000 A 
ATOM     23  C   UNL     1       3.512   2.547  20.893  0.00  0.00    +0.000 A 
ATOM     24  C   UNL     1       3.430   3.020  19.583  0.00  0.00    +0.000 A 
ATOM     25  F   UNL     1       4.537   2.938  18.832  0.00  0.00    +0.000 F 
ENDBRANCH  18  19
ENDBRANCH  16  18
ENDBRANCH   1  16
TORSDOF 6
ENDMDL
