MODEL 1
REMARK VINA RESULT:      -7.9      0.000      0.000
REMARK  Name = 
REMARK  7 active torsions:
REMARK  status: ('A' for Active; 'I' for Inactive)
REMARK    1  A    between atoms: C_1  and  N_2
REMARK    2  A    between atoms: C_3  and  C_4
REMARK    3  A    between atoms: C_7  and  O_8
REMARK    4  A    between atoms: C_12  and  C_13
REMARK    5  A    between atoms: C_16  and  O_17
REMARK    6  A    between atoms: C_20  and  C_21
REMARK    7  A    between atoms: C_24  and  O_25
REMARK                            x       y       z     vdW  Elec       q    Type
REMARK                         _______ _______ _______ _____ _____    ______ ____
ROOT
ATOM      1  C   UNL     1       4.685   2.924  17.491  0.00  0.00    +0.000 C 
ATOM      2  N   UNL     1       4.222   4.290  17.344  0.00  0.00    +0.000 N 
ATOM      3  C   UNL     1       4.607   5.152  16.319  0.00  0.00    +0.000 A 
ATOM      4  C   UNL     1       4.085   6.388  16.658  0.00  0.00    +0.000 A 
ATOM      5  C   UNL     1       3.328   6.285  17.862  0.00  0.00    +0.000 A 
ATOM      6  C   UNL     1       3.363   4.938  18.260  0.00  0.00    +0.000 A 
ENDROOT
BRANCH   6   7
ATOM      7  C   UNL     1       2.624   4.246  19.373  0.00  0.00    +0.000 A 
ATOM      8  C   UNL     1       3.225   4.133  20.642  0.00  0.00    +0.000 A 
ATOM      9  C   UNL     1       2.611   3.432  21.692  0.00  0.00    +0.000 A 
ATOM     10  C   UNL     1       1.336   2.914  21.518  0.00  0.00    +0.000 A 
ATOM     11  C   UNL     1       0.694   3.045  20.303  0.00  0.00    +0.000 A 
ATOM     12  C   UNL     1       1.355   3.659  19.238  0.00  0.00    +0.000 A 
ATOM     13  F   UNL     1       0.722   3.614  18.059  0.00  0.00    +0.000 F 
BRANCH  10  14
ATOM     14  O   UNL     1       0.686   2.251  22.514  0.00  0.00    +0.000 OA
ATOM     15  H   UNL     1       0.761   2.762  23.336  0.00  0.00    +0.000 HD
ENDBRANCH  10  14
ENDBRANCH   6   7
BRANCH   3  16
ATOM     16  C   UNL     1       5.479   4.836  15.161  0.00  0.00    +0.000 A 
ATOM     17  C   UNL     1       6.797   5.311  15.057  0.00  0.00    +0.000 A 
ATOM     18  C   UNL     1       7.552   5.120  13.893  0.00  0.00    +0.000 A 
ATOM     19  C   UNL     1       7.032   4.355  12.858  0.00  0.00    +0.000 A 
ATOM     20  C   UNL     1       5.774   3.780  12.977  0.00  0.00    +0.000 A 
ATOM     21  C   UNL     1       4.998   4.032  14.116  0.00  0.00    +0.000 A 
BRANCH  19  22
ATOM     22  O   UNL     1       7.728   4.136  11.710  0.00  0.00    +0.000 OA
ATOM     23  H   UNL     1       7.283   3.418  11.213  0.00  0.00    +0.000 HD
ENDBRANCH  19  22
ENDBRANCH   3  16
BRANCH   5  24
ATOM     24  C   UNL     1       2.600   7.388  18.511  0.00  0.00    +0.000 A 
ATOM     25  C   UNL     1       2.254   8.533  17.771  0.00  0.00    +0.000 A 
ATOM     26  C   UNL     1       1.520   9.577  18.350  0.00  0.00    +0.000 A 
ATOM     27  C   UNL     1       1.113   9.472  19.674  0.00  0.00    +0.000 A 
ATOM     28  C   UNL     1       1.465   8.366  20.434  0.00  0.00    +0.000 A 
ATOM     29  C   UNL     1       2.237   7.348  19.865  0.00  0.00    +0.000 A 
BRANCH  27  30
ATOM     30  O   UNL     1       0.364  10.443  20.270  0.00  0.00    +0.000 OA
ATOM     31  H   UNL     1       0.462  10.365  21.233  0.00  0.00    +0.000 HD
ENDBRANCH  27  30
ENDBRANCH   5  24
TORSDOF 6
ENDMDL
MODEL 2
REMARK VINA RESULT:      -7.4      0.948      1.271
REMARK  Name = 
REMARK  7 active torsions:
REMARK  status: ('A' for Active; 'I' for Inactive)
REMARK    1  A    between atoms: C_1  and  N_2
REMARK    2  A    between atoms: C_3  and  C_4
REMARK    3  A    between atoms: C_7  and  O_8
REMARK    4  A    between atoms: C_12  and  C_13
REMARK    5  A    between atoms: C_16  and  O_17
REMARK    6  A    between atoms: C_20  and  C_21
REMARK    7  A    between atoms: C_24  and  O_25
REMARK                            x       y       z     vdW  Elec       q    Type
REMARK                         _______ _______ _______ _____ _____    ______ ____
ROOT
ATOM      1  C   UNL     1       4.809   2.760  17.341  0.00  0.00    +0.000 C 
ATOM      2  N   UNL     1       4.331   4.124  17.219  0.00  0.00    +0.000 N 
ATOM      3  C   UNL     1       4.679   4.997  16.190  0.00  0.00    +0.000 A 
ATOM      4  C   UNL     1       4.157   6.225  16.554  0.00  0.00    +0.000 A 
ATOM      5  C   UNL     1       3.437   6.107  17.778  0.00  0.00    +0.000 A 
ATOM      6  C   UNL     1       3.494   4.757  18.165  0.00  0.00    +0.000 A 
ENDROOT
BRANCH   6   7
ATOM      7  C   UNL     1       2.794   4.051  19.294  0.00  0.00    +0.000 A 
ATOM      8  C   UNL     1       1.385   4.038  19.339  0.00  0.00    +0.000 A 
ATOM      9  C   UNL     1       0.684   3.460  20.410  0.00  0.00    +0.000 A 
ATOM     10  C   UNL     1       1.382   2.796  21.408  0.00  0.00    +0.000 A 
ATOM     11  C   UNL     1       2.762   2.747  21.375  0.00  0.00    +0.000 A 
ATOM     12  C   UNL     1       3.450   3.410  20.358  0.00  0.00    +0.000 A 
ATOM     13  F   UNL     1       4.782   3.436  20.480  0.00  0.00    +0.000 F 
BRANCH  10  14
ATOM     14  O   UNL     1       0.749   2.195  22.452  0.00  0.00    +0.000 OA
ATOM     15  H   UNL     1      -0.169   2.512  22.490  0.00  0.00    +0.000 HD
ENDBRANCH  10  14
ENDBRANCH   6   7
BRANCH   3  16
ATOM     16  C   UNL     1       5.519   4.696  15.005  0.00  0.00    +0.000 A 
ATOM     17  C   UNL     1       6.836   5.166  14.873  0.00  0.00    +0.000 A 
ATOM     18  C   UNL     1       7.559   4.993  13.687  0.00  0.00    +0.000 A 
ATOM     19  C   UNL     1       7.008   4.248  12.654  0.00  0.00    +0.000 A 
ATOM     20  C   UNL     1       5.750   3.677  12.796  0.00  0.00    +0.000 A 
ATOM     21  C   UNL     1       5.005   3.912  13.959  0.00  0.00    +0.000 A 
BRANCH  19  22
ATOM     22  O   UNL     1       7.672   4.045  11.484  0.00  0.00    +0.000 OA
ATOM     23  H   UNL     1       8.167   4.863  11.266  0.00  0.00    +0.000 HD
ENDBRANCH  19  22
ENDBRANCH   3  16
BRANCH   5  24
ATOM     24  C   UNL     1       2.719   7.199  18.458  0.00  0.00    +0.000 A 
ATOM     25  C   UNL     1       2.339   8.345  17.737  0.00  0.00    +0.000 A 
ATOM     26  C   UNL     1       1.613   9.378  18.345  0.00  0.00    +0.000 A 
ATOM     27  C   UNL     1       1.252   9.262  19.681  0.00  0.00    +0.000 A 
ATOM     28  C   UNL     1       1.639   8.156  20.423  0.00  0.00    +0.000 A 
ATOM     29  C   UNL     1       2.402   7.148  19.823  0.00  0.00    +0.000 A 
BRANCH  27  30
ATOM     30  O   UNL     1       0.512  10.222  20.307  0.00  0.00    +0.000 OA
ATOM     31  H   UNL     1      -0.152   9.788  20.867  0.00  0.00    +0.000 HD
ENDBRANCH  27  30
ENDBRANCH   5  24
TORSDOF 6
ENDMDL
MODEL 3
REMARK VINA RESULT:      -7.2      2.042      6.939
REMARK  Name = 
REMARK  7 active torsions:
REMARK  status: ('A' for Active; 'I' for Inactive)
REMARK    1  A    between atoms: C_1  and  N_2
REMARK    2  A    between atoms: C_3  and  C_4
REMARK    3  A    between atoms: C_7  and  O_8
REMARK    4  A    between atoms: C_12  and  C_13
REMARK    5  A    between atoms: C_16  and  O_17
REMARK    6  A    between atoms: C_20  and  C_21
REMARK    7  A    between atoms: C_24  and  O_25
REMARK                            x       y       z     vdW  Elec       q    Type
REMARK                         _______ _______ _______ _____ _____    ______ ____
ROOT
ATOM      1  C   UNL     1       1.228   5.433  20.372  0.00  0.00    +0.000 C 
ATOM      2  N   UNL     1       2.222   6.101  19.555  0.00  0.00    +0.000 N 
ATOM      3  C   UNL     1       2.290   7.479  19.359  0.00  0.00    +0.000 A 
ATOM      4  C   UNL     1       3.255   7.668  18.386  0.00  0.00    +0.000 A 
ATOM      5  C   UNL     1       3.828   6.416  18.017  0.00  0.00    +0.000 A 
ATOM      6  C   UNL     1       3.216   5.430  18.809  0.00  0.00    +0.000 A 
ENDROOT
BRANCH   6   7
ATOM      7  C   UNL     1       3.535   3.965  18.935  0.00  0.00    +0.000 A 
ATOM      8  C   UNL     1       4.290   3.510  20.034  0.00  0.00    +0.000 A 
ATOM      9  C   UNL     1       4.680   2.167  20.159  0.00  0.00    +0.000 A 
ATOM     10  C   UNL     1       4.236   1.234  19.233  0.00  0.00    +0.000 A 
ATOM     11  C   UNL     1       3.454   1.634  18.167  0.00  0.00    +0.000 A 
ATOM     12  C   UNL     1       3.156   2.987  18.001  0.00  0.00    +0.000 A 
ATOM     13  F   UNL     1       2.521   3.306  16.867  0.00  0.00    +0.000 F 
BRANCH  10  14
ATOM     14  O   UNL     1       4.561  -0.084  19.326  0.00  0.00    +0.000 OA
ATOM     15  H   UNL     1       3.988  -0.505  19.987  0.00  0.00    +0.000 HD
ENDBRANCH  10  14
ENDBRANCH   6   7
BRANCH   3  16
ATOM     16  C   UNL     1       1.436   8.518  19.986  0.00  0.00    +0.000 A 
ATOM     17  C   UNL     1       1.120   8.511  21.354  0.00  0.00    +0.000 A 
ATOM     18  C   UNL     1       0.199   9.416  21.896  0.00  0.00    +0.000 A 
ATOM     19  C   UNL     1      -0.335  10.412  21.091  0.00  0.00    +0.000 A 
ATOM     20  C   UNL     1       0.043  10.513  19.759  0.00  0.00    +0.000 A 
ATOM     21  C   UNL     1       0.912   9.563  19.207  0.00  0.00    +0.000 A 
BRANCH  19  22
ATOM     22  O   UNL     1      -1.228  11.318  21.572  0.00  0.00    +0.000 OA
ATOM     23  H   UNL     1      -1.288  11.206  22.544  0.00  0.00    +0.000 HD
ENDBRANCH  19  22
ENDBRANCH   3  16
BRANCH   5  24
ATOM     24  C   UNL     1       4.907   6.226  17.033  0.00  0.00    +0.000 A 
ATOM     25  C   UNL     1       6.197   6.719  17.300  0.00  0.00    +0.000 A 
ATOM     26  C   UNL     1       7.254   6.511  16.405  0.00  0.00    +0.000 A 
ATOM     27  C   UNL     1       7.028   5.793  15.237  0.00  0.00    +0.000 A 
ATOM     28  C   UNL     1       5.759   5.320  14.936  0.00  0.00    +0.000 A 
ATOM     29  C   UNL     1       4.697   5.570  15.811  0.00  0.00    +0.000 A 
BRANCH  27  30
ATOM     30  O   UNL     1       8.032   5.530  14.354  0.00  0.00    +0.000 OA
ATOM     31  H   UNL     1       7.876   6.041  13.543  0.00  0.00    +0.000 HD
ENDBRANCH  27  30
ENDBRANCH   5  24
TORSDOF 6
ENDMDL
MODEL 4
REMARK VINA RESULT:      -6.8      5.647     11.482
REMARK  Name = 
REMARK  7 active torsions:
REMARK  status: ('A' for Active; 'I' for Inactive)
REMARK    1  A    between atoms: C_1  and  N_2
REMARK    2  A    between atoms: C_3  and  C_4
REMARK    3  A    between atoms: C_7  and  O_8
REMARK    4  A    between atoms: C_12  and  C_13
REMARK    5  A    between atoms: C_16  and  O_17
REMARK    6  A    between atoms: C_20  and  C_21
REMARK    7  A    between atoms: C_24  and  O_25
REMARK                            x       y       z     vdW  Elec       q    Type
REMARK                         _______ _______ _______ _____ _____    ______ ____
ROOT
ATOM      1  C   UNL     1      -0.642  14.510  21.873  0.00  0.00    +0.000 C 
ATOM      2  N   UNL     1      -0.686  13.125  21.446  0.00  0.00    +0.000 N 
ATOM      3  C   UNL     1      -1.708  12.231  21.759  0.00  0.00    +0.000 A 
ATOM      4  C   UNL     1      -1.270  10.997  21.316  0.00  0.00    +0.000 A 
ATOM      5  C   UNL     1      -0.002  11.129  20.677  0.00  0.00    +0.000 A 
ATOM      6  C   UNL     1       0.336  12.493  20.704  0.00  0.00    +0.000 A 
ENDROOT
BRANCH   6   7
ATOM      7  C   UNL     1       1.487  13.209  20.053  0.00  0.00    +0.000 A 
ATOM      8  C   UNL     1       2.614  13.558  20.824  0.00  0.00    +0.000 A 
ATOM      9  C   UNL     1       3.681  14.294  20.284  0.00  0.00    +0.000 A 
ATOM     10  C   UNL     1       3.684  14.609  18.933  0.00  0.00    +0.000 A 
ATOM     11  C   UNL     1       2.619  14.243  18.134  0.00  0.00    +0.000 A 
ATOM     12  C   UNL     1       1.519  13.599  18.704  0.00  0.00    +0.000 A 
ATOM     13  F   UNL     1       0.472  13.412  17.893  0.00  0.00    +0.000 F 
BRANCH  10  14
ATOM     14  O   UNL     1       4.707  15.295  18.355  0.00  0.00    +0.000 OA
ATOM     15  H   UNL     1       5.254  15.693  19.052  0.00  0.00    +0.000 HD
ENDBRANCH  10  14
ENDBRANCH   6   7
BRANCH   3  16
ATOM     16  C   UNL     1      -2.959  12.523  22.502  0.00  0.00    +0.000 A 
ATOM     17  C   UNL     1      -3.060  12.382  23.896  0.00  0.00    +0.000 A 
ATOM     18  C   UNL     1      -4.286  12.524  24.558  0.00  0.00    +0.000 A 
ATOM     19  C   UNL     1      -5.407  12.917  23.842  0.00  0.00    +0.000 A 
ATOM     20  C   UNL     1      -5.315  13.171  22.481  0.00  0.00    +0.000 A 
ATOM     21  C   UNL     1      -4.101  12.961  21.813  0.00  0.00    +0.000 A 
BRANCH  19  22
ATOM     22  O   UNL     1      -6.619  13.075  24.441  0.00  0.00    +0.000 OA
ATOM     23  H   UNL     1      -7.240  13.453  23.783  0.00  0.00    +0.000 HD
ENDBRANCH  19  22
ENDBRANCH   3  16
BRANCH   5  24
ATOM     24  C   UNL     1       0.761  10.034  20.055  0.00  0.00    +0.000 A 
ATOM     25  C   UNL     1       1.145   8.920  20.824  0.00  0.00    +0.000 A 
ATOM     26  C   UNL     1       1.829   7.842  20.248  0.00  0.00    +0.000 A 
ATOM     27  C   UNL     1       2.123   7.867  18.890  0.00  0.00    +0.000 A 
ATOM     28  C   UNL     1       1.780   8.965  18.115  0.00  0.00    +0.000 A 
ATOM     29  C   UNL     1       1.138  10.060  18.704  0.00  0.00    +0.000 A 
BRANCH  27  30
ATOM     30  O   UNL     1       2.752   6.825  18.276  0.00  0.00    +0.000 OA
ATOM     31  H   UNL     1       3.672   6.791  18.584  0.00  0.00    +0.000 HD
ENDBRANCH  27  30
ENDBRANCH   5  24
TORSDOF 6
ENDMDL
MODEL 5
REMARK VINA RESULT:      -6.8      5.460      9.200
REMARK  Name = 
REMARK  7 active torsions:
REMARK  status: ('A' for Active; 'I' for Inactive)
REMARK    1  A    between atoms: C_1  and  N_2
REMARK    2  A    between atoms: C_3  and  C_4
REMARK    3  A    between atoms: C_7  and  O_8
REMARK    4  A    between atoms: C_12  and  C_13
REMARK    5  A    between atoms: C_16  and  O_17
REMARK    6  A    between atoms: C_20  and  C_21
REMARK    7  A    between atoms: C_24  and  O_25
REMARK                            x       y       z     vdW  Elec       q    Type
REMARK                         _______ _______ _______ _____ _____    ______ ____
ROOT
ATOM      1  C   UNL     1       1.845  12.037  19.410  0.00  0.00    +0.000 C 
ATOM      2  N   UNL     1       0.554  11.452  19.105  0.00  0.00    +0.000 N 
ATOM      3  C   UNL     1       0.342  10.104  18.819  0.00  0.00    +0.000 A 
ATOM      4  C   UNL     1      -0.978  10.015  18.416  0.00  0.00    +0.000 A 
ATOM      5  C   UNL     1      -1.604  11.292  18.503  0.00  0.00    +0.000 A 
ATOM      6  C   UNL     1      -0.646  12.190  19.004  0.00  0.00    +0.000 A 
ENDROOT
BRANCH   6   7
ATOM      7  C   UNL     1      -0.803  13.626  19.423  0.00  0.00    +0.000 A 
ATOM      8  C   UNL     1      -0.323  14.652  18.585  0.00  0.00    +0.000 A 
ATOM      9  C   UNL     1      -0.376  16.004  18.964  0.00  0.00    +0.000 A 
ATOM     10  C   UNL     1      -1.001  16.360  20.150  0.00  0.00    +0.000 A 
ATOM     11  C   UNL     1      -1.526  15.386  20.977  0.00  0.00    +0.000 A 
ATOM     12  C   UNL     1      -1.379  14.040  20.636  0.00  0.00    +0.000 A 
ATOM     13  F   UNL     1      -1.784  13.160  21.559  0.00  0.00    +0.000 F 
BRANCH  10  14
ATOM     14  O   UNL     1      -1.105  17.657  20.548  0.00  0.00    +0.000 OA
ATOM     15  H   UNL     1      -1.744  18.113  19.977  0.00  0.00    +0.000 HD
ENDBRANCH  10  14
ENDBRANCH   6   7
BRANCH   3  16
ATOM     16  C   UNL     1       1.346   9.013  18.845  0.00  0.00    +0.000 A 
ATOM     17  C   UNL     1       2.215   8.761  17.770  0.00  0.00    +0.000 A 
ATOM     18  C   UNL     1       3.055   7.640  17.757  0.00  0.00    +0.000 A 
ATOM     19  C   UNL     1       3.112   6.816  18.871  0.00  0.00    +0.000 A 
ATOM     20  C   UNL     1       2.345   7.101  19.993  0.00  0.00    +0.000 A 
ATOM     21  C   UNL     1       1.458   8.185  19.973  0.00  0.00    +0.000 A 
BRANCH  19  22
ATOM     22  O   UNL     1       3.916   5.719  18.909  0.00  0.00    +0.000 OA
ATOM     23  H   UNL     1       4.490   5.785  19.701  0.00  0.00    +0.000 HD
ENDBRANCH  19  22
ENDBRANCH   3  16
BRANCH   5  24
ATOM     24  C   UNL     1      -3.013  11.579  18.185  0.00  0.00    +0.000 A 
ATOM     25  C   UNL     1      -3.479  11.431  16.865  0.00  0.00    +0.000 A 
ATOM     26  C   UNL     1      -4.824  11.650  16.542  0.00  0.00    +0.000 A 
ATOM     27  C   UNL     1      -5.717  12.007  17.544  0.00  0.00    +0.000 A 
ATOM     28  C   UNL     1      -5.278  12.188  18.848  0.00  0.00    +0.000 A 
ATOM     29  C   UNL     1      -3.925  12.012  19.157  0.00  0.00    +0.000 A 
BRANCH  27  30
ATOM     30  O   UNL     1      -7.043  12.193  17.287  0.00  0.00    +0.000 OA
ATOM     31  H   UNL     1      -7.150  13.012  16.776  0.00  0.00    +0.000 HD
ENDBRANCH  27  30
ENDBRANCH   5  24
TORSDOF 6
ENDMDL
MODEL 6
REMARK VINA RESULT:      -6.7      5.470      9.031
REMARK  Name = 
REMARK  7 active torsions:
REMARK  status: ('A' for Active; 'I' for Inactive)
REMARK    1  A    between atoms: C_1  and  N_2
REMARK    2  A    between atoms: C_3  and  C_4
REMARK    3  A    between atoms: C_7  and  O_8
REMARK    4  A    between atoms: C_12  and  C_13
REMARK    5  A    between atoms: C_16  and  O_17
REMARK    6  A    between atoms: C_20  and  C_21
REMARK    7  A    between atoms: C_24  and  O_25
REMARK                            x       y       z     vdW  Elec       q    Type
REMARK                         _______ _______ _______ _____ _____    ______ ____
ROOT
ATOM      1  C   UNL     1       1.182  11.597  20.850  0.00  0.00    +0.000 C 
ATOM      2  N   UNL     1       0.052  11.168  20.049  0.00  0.00    +0.000 N 
ATOM      3  C   UNL     1       0.052  10.056  19.209  0.00  0.00    +0.000 A 
ATOM      4  C   UNL     1      -1.141  10.118  18.512  0.00  0.00    +0.000 A 
ATOM      5  C   UNL     1      -1.909  11.233  18.955  0.00  0.00    +0.000 A 
ATOM      6  C   UNL     1      -1.177  11.861  19.978  0.00  0.00    +0.000 A 
ENDROOT
BRANCH   6   7
ATOM      7  C   UNL     1      -1.574  12.991  20.887  0.00  0.00    +0.000 A 
ATOM      8  C   UNL     1      -1.444  14.321  20.440  0.00  0.00    +0.000 A 
ATOM      9  C   UNL     1      -1.728  15.414  21.275  0.00  0.00    +0.000 A 
ATOM     10  C   UNL     1      -2.243  15.192  22.544  0.00  0.00    +0.000 A 
ATOM     11  C   UNL     1      -2.428  13.903  23.002  0.00  0.00    +0.000 A 
ATOM     12  C   UNL     1      -2.050  12.826  22.198  0.00  0.00    +0.000 A 
ATOM     13  F   UNL     1      -2.126  11.619  22.772  0.00  0.00    +0.000 F 
BRANCH  10  14
ATOM     14  O   UNL     1      -2.561  16.217  23.381  0.00  0.00    +0.000 OA
ATOM     15  H   UNL     1      -2.538  17.051  22.884  0.00  0.00    +0.000 HD
ENDBRANCH  10  14
ENDBRANCH   6   7
BRANCH   3  16
ATOM     16  C   UNL     1       1.146   9.069  19.027  0.00  0.00    +0.000 A 
ATOM     17  C   UNL     1       1.955   9.041  17.879  0.00  0.00    +0.000 A 
ATOM     18  C   UNL     1       2.884   8.016  17.664  0.00  0.00    +0.000 A 
ATOM     19  C   UNL     1       3.091   7.064  18.652  0.00  0.00    +0.000 A 
ATOM     20  C   UNL     1       2.384   7.128  19.846  0.00  0.00    +0.000 A 
ATOM     21  C   UNL     1       1.408   8.117  20.025  0.00  0.00    +0.000 A 
BRANCH  19  22
ATOM     22  O   UNL     1       3.986   6.052  18.494  0.00  0.00    +0.000 OA
ATOM     23  H   UNL     1       4.843   6.439  18.218  0.00  0.00    +0.000 HD
ENDBRANCH  19  22
ENDBRANCH   3  16
BRANCH   5  24
ATOM     24  C   UNL     1      -3.247  11.601  18.462  0.00  0.00    +0.000 A 
ATOM     25  C   UNL     1      -3.571  11.418  17.105  0.00  0.00    +0.000 A 
ATOM     26  C   UNL     1      -4.851  11.713  16.618  0.00  0.00    +0.000 A 
ATOM     27  C   UNL     1      -5.822  12.183  17.494  0.00  0.00    +0.000 A 
ATOM     28  C   UNL     1      -5.521  12.399  18.830  0.00  0.00    +0.000 A 
ATOM     29  C   UNL     1      -4.228  12.146  19.302  0.00  0.00    +0.000 A 
BRANCH  27  30
ATOM     30  O   UNL     1      -7.092  12.447  17.076  0.00  0.00    +0.000 OA
ATOM     31  H   UNL     1      -7.505  11.617  16.787  0.00  0.00    +0.000 HD
ENDBRANCH  27  30
ENDBRANCH   5  24
TORSDOF 6
ENDMDL
MODEL 7
REMARK VINA RESULT:      -6.7      5.522      9.152
REMARK  Name = 
REMARK  7 active torsions:
REMARK  status: ('A' for Active; 'I' for Inactive)
REMARK    1  A    between atoms: C_1  and  N_2
REMARK    2  A    between atoms: C_3  and  C_4
REMARK    3  A    between atoms: C_7  and  O_8
REMARK    4  A    between atoms: C_12  and  C_13
REMARK    5  A    between atoms: C_16  and  O_17
REMARK    6  A    between atoms: C_20  and  C_21
REMARK    7  A    between atoms: C_24  and  O_25
REMARK                            x       y       z     vdW  Elec       q    Type
REMARK                         _______ _______ _______ _____ _____    ______ ____
ROOT
ATOM      1  C   UNL     1       1.612  11.908  20.114  0.00  0.00    +0.000 C 
ATOM      2  N   UNL     1       0.377  11.368  19.580  0.00  0.00    +0.000 N 
ATOM      3  C   UNL     1       0.242  10.096  19.026  0.00  0.00    +0.000 A 
ATOM      4  C   UNL     1      -1.031  10.060  18.486  0.00  0.00    +0.000 A 
ATOM      5  C   UNL     1      -1.709  11.285  18.750  0.00  0.00    +0.000 A 
ATOM      6  C   UNL     1      -0.836  12.089  19.503  0.00  0.00    +0.000 A 
ENDROOT
BRANCH   6   7
ATOM      7  C   UNL     1      -1.084  13.415  20.167  0.00  0.00    +0.000 A 
ATOM      8  C   UNL     1      -1.627  13.451  21.467  0.00  0.00    +0.000 A 
ATOM      9  C   UNL     1      -1.949  14.662  22.102  0.00  0.00    +0.000 A 
ATOM     10  C   UNL     1      -1.640  15.864  21.484  0.00  0.00    +0.000 A 
ATOM     11  C   UNL     1      -1.063  15.871  20.229  0.00  0.00    +0.000 A 
ATOM     12  C   UNL     1      -0.839  14.662  19.568  0.00  0.00    +0.000 A 
ATOM     13  F   UNL     1      -0.416  14.763  18.303  0.00  0.00    +0.000 F 
BRANCH  10  14
ATOM     14  O   UNL     1      -1.904  17.064  22.069  0.00  0.00    +0.000 OA
ATOM     15  H   UNL     1      -1.114  17.625  22.011  0.00  0.00    +0.000 HD
ENDBRANCH  10  14
ENDBRANCH   6   7
BRANCH   3  16
ATOM     16  C   UNL     1       1.280   9.039  18.943  0.00  0.00    +0.000 A 
ATOM     17  C   UNL     1       2.123   8.894  17.829  0.00  0.00    +0.000 A 
ATOM     18  C   UNL     1       2.996   7.805  17.710  0.00  0.00    +0.000 A 
ATOM     19  C   UNL     1       3.113   6.905  18.760  0.00  0.00    +0.000 A 
ATOM     20  C   UNL     1       2.372   7.084  19.920  0.00  0.00    +0.000 A 
ATOM     21  C   UNL     1       1.452   8.137  20.005  0.00  0.00    +0.000 A 
BRANCH  19  22
ATOM     22  O   UNL     1       3.950   5.836  18.695  0.00  0.00    +0.000 OA
ATOM     23  H   UNL     1       4.847   6.130  18.960  0.00  0.00    +0.000 HD
ENDBRANCH  19  22
ENDBRANCH   3  16
BRANCH   5  24
ATOM     24  C   UNL     1      -3.092  11.601  18.356  0.00  0.00    +0.000 A 
ATOM     25  C   UNL     1      -3.504  11.409  17.024  0.00  0.00    +0.000 A 
ATOM     26  C   UNL     1      -4.825  11.655  16.630  0.00  0.00    +0.000 A 
ATOM     27  C   UNL     1      -5.750  12.083  17.574  0.00  0.00    +0.000 A 
ATOM     28  C   UNL     1      -5.364  12.306  18.888  0.00  0.00    +0.000 A 
ATOM     29  C   UNL     1      -4.033  12.104  19.266  0.00  0.00    +0.000 A 
BRANCH  27  30
ATOM     30  O   UNL     1      -7.057  12.297  17.248  0.00  0.00    +0.000 OA
ATOM     31  H   UNL     1      -7.351  13.122  17.668  0.00  0.00    +0.000 HD
ENDBRANCH  27  30
ENDBRANCH   5  24
TORSDOF 6
ENDMDL
MODEL 8
REMARK VINA RESULT:      -6.7      5.828     11.639
REMARK  Name = 
REMARK  7 active torsions:
REMARK  status: ('A' for Active; 'I' for Inactive)
REMARK    1  A    between atoms: C_1  and  N_2
REMARK    2  A    between atoms: C_3  and  C_4
REMARK    3  A    between atoms: C_7  and  O_8
REMARK    4  A    between atoms: C_12  and  C_13
REMARK    5  A    between atoms: C_16  and  O_17
REMARK    6  A    between atoms: C_20  and  C_21
REMARK    7  A    between atoms: C_24  and  O_25
REMARK                            x       y       z     vdW  Elec       q    Type
REMARK                         _______ _______ _______ _____ _____    ______ ____
ROOT
ATOM      1  C   UNL     1      -0.941  14.569  21.950  0.00  0.00    +0.000 C 
ATOM      2  N   UNL     1      -0.950  13.212  21.439  0.00  0.00    +0.000 N 
ATOM      3  C   UNL     1      -1.960  12.282  21.676  0.00  0.00    +0.000 A 
ATOM      4  C   UNL     1      -1.488  11.085  21.167  0.00  0.00    +0.000 A 
ATOM      5  C   UNL     1      -0.212  11.279  20.563  0.00  0.00    +0.000 A 
ATOM      6  C   UNL     1       0.098  12.645  20.679  0.00  0.00    +0.000 A 
ENDROOT
BRANCH   6   7
ATOM      7  C   UNL     1       1.247  13.422  20.096  0.00  0.00    +0.000 A 
ATOM      8  C   UNL     1       2.471  13.479  20.791  0.00  0.00    +0.000 A 
ATOM      9  C   UNL     1       3.549  14.251  20.329  0.00  0.00    +0.000 A 
ATOM     10  C   UNL     1       3.453  14.903  19.109  0.00  0.00    +0.000 A 
ATOM     11  C   UNL     1       2.285  14.833  18.375  0.00  0.00    +0.000 A 
ATOM     12  C   UNL     1       1.187  14.143  18.892  0.00  0.00    +0.000 A 
ATOM     13  F   UNL     1       0.054  14.247  18.190  0.00  0.00    +0.000 F 
BRANCH  10  14
ATOM     14  O   UNL     1       4.479  15.640  18.603  0.00  0.00    +0.000 OA
ATOM     15  H   UNL     1       4.565  16.459  19.118  0.00  0.00    +0.000 HD
ENDBRANCH  10  14
ENDBRANCH   6   7
BRANCH   3  16
ATOM     16  C   UNL     1      -3.230  12.504  22.411  0.00  0.00    +0.000 A 
ATOM     17  C   UNL     1      -4.404  12.939  21.775  0.00  0.00    +0.000 A 
ATOM     18  C   UNL     1      -5.548  13.279  22.507  0.00  0.00    +0.000 A 
ATOM     19  C   UNL     1      -5.564  13.082  23.881  0.00  0.00    +0.000 A 
ATOM     20  C   UNL     1      -4.456  12.549  24.524  0.00  0.00    +0.000 A 
ATOM     21  C   UNL     1      -3.291  12.276  23.795  0.00  0.00    +0.000 A 
BRANCH  19  22
ATOM     22  O   UNL     1      -6.653  13.391  24.635  0.00  0.00    +0.000 OA
ATOM     23  H   UNL     1      -6.984  12.567  25.051  0.00  0.00    +0.000 HD
ENDBRANCH  19  22
ENDBRANCH   3  16
BRANCH   5  24
ATOM     24  C   UNL     1       0.584  10.239  19.890  0.00  0.00    +0.000 A 
ATOM     25  C   UNL     1       0.956  10.401  18.543  0.00  0.00    +0.000 A 
ATOM     26  C   UNL     1       1.753   9.451  17.891  0.00  0.00    +0.000 A 
ATOM     27  C   UNL     1       2.196   8.336  18.592  0.00  0.00    +0.000 A 
ATOM     28  C   UNL     1       1.820   8.138  19.912  0.00  0.00    +0.000 A 
ATOM     29  C   UNL     1       0.986   9.066  20.545  0.00  0.00    +0.000 A 
BRANCH  27  30
ATOM     30  O   UNL     1       3.006   7.404  18.013  0.00  0.00    +0.000 OA
ATOM     31  H   UNL     1       3.703   7.162  18.645  0.00  0.00    +0.000 HD
ENDBRANCH  27  30
ENDBRANCH   5  24
TORSDOF 6
ENDMDL
MODEL 9
REMARK VINA RESULT:      -6.6      5.452     10.610
REMARK  Name = 
REMARK  7 active torsions:
REMARK  status: ('A' for Active; 'I' for Inactive)
REMARK    1  A    between atoms: C_1  and  N_2
REMARK    2  A    between atoms: C_3  and  C_4
REMARK    3  A    between atoms: C_7  and  O_8
REMARK    4  A    between atoms: C_12  and  C_13
REMARK    5  A    between atoms: C_16  and  O_17
REMARK    6  A    between atoms: C_20  and  C_21
REMARK    7  A    between atoms: C_24  and  O_25
REMARK                            x       y       z     vdW  Elec       q    Type
REMARK                         _______ _______ _______ _____ _____    ______ ____
ROOT
ATOM      1  C   UNL     1      -1.643  13.985  19.469  0.00  0.00    +0.000 C 
ATOM      2  N   UNL     1      -1.365  12.604  19.125  0.00  0.00    +0.000 N 
ATOM      3  C   UNL     1      -2.331  11.668  18.762  0.00  0.00    +0.000 A 
ATOM      4  C   UNL     1      -1.667  10.456  18.697  0.00  0.00    +0.000 A 
ATOM      5  C   UNL     1      -0.280  10.644  18.962  0.00  0.00    +0.000 A 
ATOM      6  C   UNL     1      -0.079  12.020  19.169  0.00  0.00    +0.000 A 
ENDROOT
BRANCH   6   7
ATOM      7  C   UNL     1       1.202  12.788  19.346  0.00  0.00    +0.000 A 
ATOM      8  C   UNL     1       2.025  13.033  18.229  0.00  0.00    +0.000 A 
ATOM      9  C   UNL     1       3.267  13.678  18.353  0.00  0.00    +0.000 A 
ATOM     10  C   UNL     1       3.662  14.177  19.585  0.00  0.00    +0.000 A 
ATOM     11  C   UNL     1       2.860  13.997  20.695  0.00  0.00    +0.000 A 
ATOM     12  C   UNL     1       1.675  13.269  20.578  0.00  0.00    +0.000 A 
ATOM     13  F   UNL     1       1.033  13.017  21.725  0.00  0.00    +0.000 F 
BRANCH  10  14
ATOM     14  O   UNL     1       4.842  14.834  19.752  0.00  0.00    +0.000 OA
ATOM     15  H   UNL     1       5.417  14.309  20.331  0.00  0.00    +0.000 HD
ENDBRANCH  10  14
ENDBRANCH   6   7
BRANCH   3  16
ATOM     16  C   UNL     1      -3.786  11.902  18.583  0.00  0.00    +0.000 A 
ATOM     17  C   UNL     1      -4.424  11.773  17.339  0.00  0.00    +0.000 A 
ATOM     18  C   UNL     1      -5.765  12.137  17.164  0.00  0.00    +0.000 A 
ATOM     19  C   UNL     1      -6.514  12.533  18.263  0.00  0.00    +0.000 A 
ATOM     20  C   UNL     1      -5.940  12.565  19.527  0.00  0.00    +0.000 A 
ATOM     21  C   UNL     1      -4.580  12.265  19.683  0.00  0.00    +0.000 A 
BRANCH  19  22
ATOM     22  O   UNL     1      -7.821  12.891  18.147  0.00  0.00    +0.000 OA
ATOM     23  H   UNL     1      -7.975  13.198  17.229  0.00  0.00    +0.000 HD
ENDBRANCH  19  22
ENDBRANCH   3  16
BRANCH   5  24
ATOM     24  C   UNL     1       0.745   9.587  18.951  0.00  0.00    +0.000 A 
ATOM     25  C   UNL     1       0.986   8.830  20.112  0.00  0.00    +0.000 A 
ATOM     26  C   UNL     1       1.920   7.786  20.118  0.00  0.00    +0.000 A 
ATOM     27  C   UNL     1       2.613   7.484  18.951  0.00  0.00    +0.000 A 
ATOM     28  C   UNL     1       2.415   8.233  17.800  0.00  0.00    +0.000 A 
ATOM     29  C   UNL     1       1.514   9.304  17.813  0.00  0.00    +0.000 A 
BRANCH  27  30
ATOM     30  O   UNL     1       3.503   6.453  18.895  0.00  0.00    +0.000 OA
ATOM     31  H   UNL     1       3.012   5.623  18.776  0.00  0.00    +0.000 HD
ENDBRANCH  27  30
ENDBRANCH   5  24
TORSDOF 6
ENDMDL
