MODEL 1
REMARK VINA RESULT:      -8.4      0.000      0.000
REMARK  Name = 
REMARK  8 active torsions:
REMARK  status: ('A' for Active; 'I' for Inactive)
REMARK    1  A    between atoms: C_1  and  O_2
REMARK    2  A    between atoms: O_2  and  C_3
REMARK    3  A    between atoms: C_6  and  C_7
REMARK    4  A    between atoms: CA_9  and  C_10
REMARK    5  A    between atoms: C_10  and  OXT_12
REMARK    6  A    between atoms: C_20  and  C_21
REMARK    7  A    between atoms: C_21  and  O_22
REMARK    8  A    between atoms: O_22  and  C_23
REMARK                            x       y       z     vdW  Elec       q    Type
REMARK                         _______ _______ _______ _____ _____    ______ ____
ROOT
ATOM      1  C   UNL     1       1.369   9.170  18.983  0.00  0.00    +0.000 A 
ATOM      2  C   UNL     1       2.118   8.561  17.967  0.00  0.00    +0.000 A 
ATOM      3  C   UNL     1       2.788   7.358  18.183  0.00  0.00    +0.000 A 
ATOM      4  C   UNL     1       2.734   6.728  19.433  0.00  0.00    +0.000 A 
ATOM      5  C   UNL     1       2.035   7.376  20.465  0.00  0.00    +0.000 A 
ATOM      6  C   UNL     1       1.306   8.570  20.249  0.00  0.00    +0.000 A 
ENDROOT
BRANCH   4   7
ATOM      7  C   UNL     1       3.330   5.351  19.685  0.00  0.00    +0.000 C 
ATOM      8  N   UNL     1       4.736   5.240  19.215  0.00  0.00    +0.000 NA
ATOM      9  CA  UNL     1       4.812   4.933  17.731  0.00  0.00    +0.000 C 
ATOM     10  C   UNL     1       4.136   3.604  17.307  0.00  0.00    +0.000 C 
ATOM     11  C   UNL     1       2.850   3.466  18.030  0.00  0.00    +0.000 A 
ATOM     12  N   UNL     1       1.831   2.618  17.710  0.00  0.00    +0.000 NA
ATOM     13  C   UNL     1       0.879   2.886  18.584  0.00  0.00    +0.000 A 
ATOM     14  N   UNL     1       1.258   3.862  19.468  0.00  0.00    +0.000 N 
ATOM     15  C   UNL     1       2.521   4.249  19.110  0.00  0.00    +0.000 A 
ATOM     16  H   UNL     1       5.111   4.412  19.689  0.00  0.00    +0.000 HD
ATOM     17  H   UNL     1       0.680   4.257  20.199  0.00  0.00    +0.000 HD
BRANCH   9  18
ATOM     18  C   UNL     1       6.293   4.919  17.340  0.00  0.00    +0.000 C 
ATOM     19  O   UNL     1       6.781   5.472  16.369  0.00  0.00    +0.000 OA
BRANCH  18  20
ATOM     20  OXT UNL     1       7.033   4.226  18.249  0.00  0.00    +0.000 OA
ATOM     21  HXT UNL     1       7.233   3.346  17.847  0.00  0.00    +0.000 HD
ENDBRANCH  18  20
ENDBRANCH   9  18
ENDBRANCH   4   7
BRANCH   1  23
ATOM     22  C   UNL     1      -0.628  10.061  18.018  0.00  0.00    +0.000 C 
ATOM     23  O   UNL     1       0.677  10.263  18.539  0.00  0.00    +0.000 OA
ENDBRANCH   1  23
BRANCH   6  24
ATOM     24  C   UNL     1       0.444   9.047  21.394  0.00  0.00    +0.000 C 
BRANCH  24  25
ATOM     25  O   UNL     1       0.830  10.374  21.748  0.00  0.00    +0.000 OA
BRANCH  25  26
ATOM     26  C   UNL     1      -0.172  11.293  21.916  0.00  0.00    +0.000 A 
ATOM     27  C   UNL     1      -1.086  10.969  22.924  0.00  0.00    +0.000 A 
ATOM     28  C   UNL     1      -2.164  11.813  23.211  0.00  0.00    +0.000 A 
ATOM     29  C   UNL     1      -2.342  12.989  22.486  0.00  0.00    +0.000 A 
ATOM     30  C   UNL     1      -1.436  13.323  21.481  0.00  0.00    +0.000 A 
ATOM     31  C   UNL     1      -0.359  12.479  21.204  0.00  0.00    +0.000 A 
ATOM     32  F   UNL     1       0.479  12.853  20.227  0.00  0.00    +0.000 F 
ENDBRANCH  25  26
ENDBRANCH  24  25
ENDBRANCH   6  24
TORSDOF 7
ENDMDL
MODEL 2
REMARK VINA RESULT:      -8.3      0.911      1.266
REMARK  Name = 
REMARK  8 active torsions:
REMARK  status: ('A' for Active; 'I' for Inactive)
REMARK    1  A    between atoms: C_1  and  O_2
REMARK    2  A    between atoms: O_2  and  C_3
REMARK    3  A    between atoms: C_6  and  C_7
REMARK    4  A    between atoms: CA_9  and  C_10
REMARK    5  A    between atoms: C_10  and  OXT_12
REMARK    6  A    between atoms: C_20  and  C_21
REMARK    7  A    between atoms: C_21  and  O_22
REMARK    8  A    between atoms: O_22  and  C_23
REMARK                            x       y       z     vdW  Elec       q    Type
REMARK                         _______ _______ _______ _____ _____    ______ ____
ROOT
ATOM      1  C   UNL     1       1.465   9.059  18.745  0.00  0.00    +0.000 A 
ATOM      2  C   UNL     1       2.221   8.416  17.755  0.00  0.00    +0.000 A 
ATOM      3  C   UNL     1       2.894   7.225  18.018  0.00  0.00    +0.000 A 
ATOM      4  C   UNL     1       2.838   6.641  19.290  0.00  0.00    +0.000 A 
ATOM      5  C   UNL     1       2.132   7.324  20.294  0.00  0.00    +0.000 A 
ATOM      6  C   UNL     1       1.399   8.506  20.032  0.00  0.00    +0.000 A 
ENDROOT
BRANCH   4   7
ATOM      7  C   UNL     1       3.438   5.276  19.595  0.00  0.00    +0.000 C 
ATOM      8  N   UNL     1       4.842   5.150  19.125  0.00  0.00    +0.000 NA
ATOM      9  CA  UNL     1       4.916   4.785  17.654  0.00  0.00    +0.000 C 
ATOM     10  C   UNL     1       4.242   3.439  17.285  0.00  0.00    +0.000 C 
ATOM     11  C   UNL     1       2.959   3.326  18.016  0.00  0.00    +0.000 A 
ATOM     12  N   UNL     1       1.942   2.464  17.732  0.00  0.00    +0.000 NA
ATOM     13  C   UNL     1       0.991   2.763  18.597  0.00  0.00    +0.000 A 
ATOM     14  N   UNL     1       1.369   3.775  19.441  0.00  0.00    +0.000 N 
ATOM     15  C   UNL     1       2.630   4.150  19.065  0.00  0.00    +0.000 A 
ATOM     16  H   UNL     1       5.222   4.343  19.631  0.00  0.00    +0.000 HD
ATOM     17  H   UNL     1       0.792   4.196  20.158  0.00  0.00    +0.000 HD
BRANCH   9  18
ATOM     18  C   UNL     1       6.396   4.759  17.261  0.00  0.00    +0.000 C 
ATOM     19  O   UNL     1       6.863   5.160  16.208  0.00  0.00    +0.000 OA
BRANCH  18  20
ATOM     20  OXT UNL     1       7.162   4.254  18.267  0.00  0.00    +0.000 OA
ATOM     21  HXT UNL     1       6.870   4.696  19.101  0.00  0.00    +0.000 HD
ENDBRANCH  18  20
ENDBRANCH   9  18
ENDBRANCH   4   7
BRANCH   1  23
ATOM     22  C   UNL     1      -0.567   9.925  17.833  0.00  0.00    +0.000 C 
ATOM     23  O   UNL     1       0.771  10.133  18.259  0.00  0.00    +0.000 OA
ENDBRANCH   1  23
BRANCH   6  24
ATOM     24  C   UNL     1       0.531   9.021  21.156  0.00  0.00    +0.000 C 
BRANCH  24  25
ATOM     25  O   UNL     1       0.728  10.427  21.292  0.00  0.00    +0.000 OA
BRANCH  25  26
ATOM     26  C   UNL     1      -0.352  11.176  21.675  0.00  0.00    +0.000 A 
ATOM     27  C   UNL     1      -0.707  12.179  20.765  0.00  0.00    +0.000 A 
ATOM     28  C   UNL     1      -1.790  13.026  21.020  0.00  0.00    +0.000 A 
ATOM     29  C   UNL     1      -2.528  12.882  22.193  0.00  0.00    +0.000 A 
ATOM     30  C   UNL     1      -2.185  11.886  23.105  0.00  0.00    +0.000 A 
ATOM     31  C   UNL     1      -1.106  11.040  22.842  0.00  0.00    +0.000 A 
ATOM     32  F   UNL     1      -0.825  10.100  23.755  0.00  0.00    +0.000 F 
ENDBRANCH  25  26
ENDBRANCH  24  25
ENDBRANCH   6  24
TORSDOF 7
ENDMDL
MODEL 3
REMARK VINA RESULT:      -8.2      2.597      4.440
REMARK  Name = 
REMARK  8 active torsions:
REMARK  status: ('A' for Active; 'I' for Inactive)
REMARK    1  A    between atoms: C_1  and  O_2
REMARK    2  A    between atoms: O_2  and  C_3
REMARK    3  A    between atoms: C_6  and  C_7
REMARK    4  A    between atoms: CA_9  and  C_10
REMARK    5  A    between atoms: C_10  and  OXT_12
REMARK    6  A    between atoms: C_20  and  C_21
REMARK    7  A    between atoms: C_21  and  O_22
REMARK    8  A    between atoms: O_22  and  C_23
REMARK                            x       y       z     vdW  Elec       q    Type
REMARK                         _______ _______ _______ _____ _____    ______ ____
ROOT
ATOM      1  C   UNL     1       1.648   4.204  19.051  0.00  0.00    +0.000 A 
ATOM      2  C   UNL     1       2.285   3.527  18.002  0.00  0.00    +0.000 A 
ATOM      3  C   UNL     1       3.341   4.106  17.302  0.00  0.00    +0.000 A 
ATOM      4  C   UNL     1       3.791   5.392  17.627  0.00  0.00    +0.000 A 
ATOM      5  C   UNL     1       3.107   6.090  18.637  0.00  0.00    +0.000 A 
ATOM      6  C   UNL     1       2.068   5.498  19.393  0.00  0.00    +0.000 A 
ENDROOT
BRANCH   4   7
ATOM      7  C   UNL     1       5.023   6.017  16.991  0.00  0.00    +0.000 C 
ATOM      8  N   UNL     1       5.139   5.708  15.542  0.00  0.00    +0.000 NA
ATOM      9  CA  UNL     1       5.779   4.353  15.302  0.00  0.00    +0.000 C 
ATOM     10  C   UNL     1       7.216   4.205  15.865  0.00  0.00    +0.000 C 
ATOM     11  C   UNL     1       7.274   4.828  17.208  0.00  0.00    +0.000 A 
ATOM     12  N   UNL     1       8.245   4.635  18.145  0.00  0.00    +0.000 NA
ATOM     13  C   UNL     1       7.850   5.336  19.192  0.00  0.00    +0.000 A 
ATOM     14  N   UNL     1       6.669   5.988  18.953  0.00  0.00    +0.000 N 
ATOM     15  C   UNL     1       6.286   5.656  17.682  0.00  0.00    +0.000 A 
ATOM     16  H   UNL     1       5.804   6.397  15.174  0.00  0.00    +0.000 HD
ATOM     17  H   UNL     1       6.157   6.552  19.620  0.00  0.00    +0.000 HD
BRANCH   9  18
ATOM     18  C   UNL     1       5.776   4.105  13.791  0.00  0.00    +0.000 C 
ATOM     19  O   UNL     1       4.823   3.729  13.129  0.00  0.00    +0.000 OA
BRANCH  18  20
ATOM     20  OXT UNL     1       6.990   4.393  13.245  0.00  0.00    +0.000 OA
ATOM     21  HXT UNL     1       6.820   4.846  12.384  0.00  0.00    +0.000 HD
ENDBRANCH  18  20
ENDBRANCH   9  18
ENDBRANCH   4   7
BRANCH   1  23
ATOM     22  C   UNL     1       1.155   2.733  20.869  0.00  0.00    +0.000 C 
ATOM     23  O   UNL     1       0.734   3.421  19.701  0.00  0.00    +0.000 OA
ENDBRANCH   1  23
BRANCH   6  24
ATOM     24  C   UNL     1       1.559   6.293  20.573  0.00  0.00    +0.000 C 
BRANCH  24  25
ATOM     25  O   UNL     1       2.107   7.609  20.520  0.00  0.00    +0.000 OA
BRANCH  25  26
ATOM     26  C   UNL     1       1.239   8.655  20.688  0.00  0.00    +0.000 A 
ATOM     27  C   UNL     1       0.930   8.935  22.024  0.00  0.00    +0.000 A 
ATOM     28  C   UNL     1       0.057   9.977  22.353  0.00  0.00    +0.000 A 
ATOM     29  C   UNL     1      -0.522  10.747  21.347  0.00  0.00    +0.000 A 
ATOM     30  C   UNL     1      -0.220  10.478  20.014  0.00  0.00    +0.000 A 
ATOM     31  C   UNL     1       0.657   9.440  19.692  0.00  0.00    +0.000 A 
ATOM     32  F   UNL     1       0.910   9.230  18.393  0.00  0.00    +0.000 F 
ENDBRANCH  25  26
ENDBRANCH  24  25
ENDBRANCH   6  24
TORSDOF 7
ENDMDL
MODEL 4
REMARK VINA RESULT:      -8.2      2.376      4.048
REMARK  Name = 
REMARK  8 active torsions:
REMARK  status: ('A' for Active; 'I' for Inactive)
REMARK    1  A    between atoms: C_1  and  O_2
REMARK    2  A    between atoms: O_2  and  C_3
REMARK    3  A    between atoms: C_6  and  C_7
REMARK    4  A    between atoms: CA_9  and  C_10
REMARK    5  A    between atoms: C_10  and  OXT_12
REMARK    6  A    between atoms: C_20  and  C_21
REMARK    7  A    between atoms: C_21  and  O_22
REMARK    8  A    between atoms: O_22  and  C_23
REMARK                            x       y       z     vdW  Elec       q    Type
REMARK                         _______ _______ _______ _____ _____    ______ ____
ROOT
ATOM      1  C   UNL     1       1.300   8.885  20.352  0.00  0.00    +0.000 A 
ATOM      2  C   UNL     1       1.686   7.658  20.907  0.00  0.00    +0.000 A 
ATOM      3  C   UNL     1       2.194   6.632  20.113  0.00  0.00    +0.000 A 
ATOM      4  C   UNL     1       2.324   6.801  18.729  0.00  0.00    +0.000 A 
ATOM      5  C   UNL     1       1.876   8.009  18.171  0.00  0.00    +0.000 A 
ATOM      6  C   UNL     1       1.407   9.081  18.967  0.00  0.00    +0.000 A 
ENDROOT
BRANCH   4   7
ATOM      7  C   UNL     1       2.997   5.770  17.835  0.00  0.00    +0.000 C 
ATOM      8  N   UNL     1       2.224   4.504  17.739  0.00  0.00    +0.000 NA
ATOM      9  CA  UNL     1       2.505   3.580  18.910  0.00  0.00    +0.000 C 
ATOM     10  C   UNL     1       3.985   3.142  19.051  0.00  0.00    +0.000 C 
ATOM     11  C   UNL     1       4.859   4.312  18.801  0.00  0.00    +0.000 A 
ATOM     12  N   UNL     1       6.177   4.419  19.132  0.00  0.00    +0.000 NA
ATOM     13  C   UNL     1       6.518   5.644  18.776  0.00  0.00    +0.000 A 
ATOM     14  N   UNL     1       5.470   6.320  18.209  0.00  0.00    +0.000 N 
ATOM     15  C   UNL     1       4.395   5.473  18.233  0.00  0.00    +0.000 A 
ATOM     16  H   UNL     1       2.598   4.025  16.913  0.00  0.00    +0.000 HD
ATOM     17  H   UNL     1       5.485   7.283  17.897  0.00  0.00    +0.000 HD
BRANCH   9  18
ATOM     18  C   UNL     1       1.604   2.351  18.751  0.00  0.00    +0.000 C 
ATOM     19  O   UNL     1       0.385   2.354  18.743  0.00  0.00    +0.000 OA
BRANCH  18  20
ATOM     20  OXT UNL     1       2.344   1.221  18.580  0.00  0.00    +0.000 OA
ATOM     21  HXT UNL     1       2.499   0.838  19.477  0.00  0.00    +0.000 HD
ENDBRANCH  18  20
ENDBRANCH   9  18
ENDBRANCH   4   7
BRANCH   1  23
ATOM     22  C   UNL     1      -0.020   9.446  22.264  0.00  0.00    +0.000 C 
ATOM     23  O   UNL     1       0.961   9.807  21.304  0.00  0.00    +0.000 OA
ENDBRANCH   1  23
BRANCH   6  24
ATOM     24  C   UNL     1       1.144  10.385  18.251  0.00  0.00    +0.000 C 
BRANCH  24  25
ATOM     25  O   UNL     1       0.115  11.095  18.937  0.00  0.00    +0.000 OA
BRANCH  25  26
ATOM     26  C   UNL     1      -1.156  10.991  18.439  0.00  0.00    +0.000 A 
ATOM     27  C   UNL     1      -1.300  10.034  17.428  0.00  0.00    +0.000 A 
ATOM     28  C   UNL     1      -2.542   9.815  16.822  0.00  0.00    +0.000 A 
ATOM     29  C   UNL     1      -3.653  10.556  17.218  0.00  0.00    +0.000 A 
ATOM     30  C   UNL     1      -3.521  11.510  18.224  0.00  0.00    +0.000 A 
ATOM     31  C   UNL     1      -2.281  11.721  18.830  0.00  0.00    +0.000 A 
ATOM     32  F   UNL     1      -2.216  12.651  19.792  0.00  0.00    +0.000 F 
ENDBRANCH  25  26
ENDBRANCH  24  25
ENDBRANCH   6  24
TORSDOF 7
ENDMDL
MODEL 5
REMARK VINA RESULT:      -8.0      2.908      4.964
REMARK  Name = 
REMARK  8 active torsions:
REMARK  status: ('A' for Active; 'I' for Inactive)
REMARK    1  A    between atoms: C_1  and  O_2
REMARK    2  A    between atoms: O_2  and  C_3
REMARK    3  A    between atoms: C_6  and  C_7
REMARK    4  A    between atoms: CA_9  and  C_10
REMARK    5  A    between atoms: C_10  and  OXT_12
REMARK    6  A    between atoms: C_20  and  C_21
REMARK    7  A    between atoms: C_21  and  O_22
REMARK    8  A    between atoms: O_22  and  C_23
REMARK                            x       y       z     vdW  Elec       q    Type
REMARK                         _______ _______ _______ _____ _____    ______ ____
ROOT
ATOM      1  C   UNL     1       1.954   3.193  19.631  0.00  0.00    +0.000 A 
ATOM      2  C   UNL     1       2.536   2.060  19.046  0.00  0.00    +0.000 A 
ATOM      3  C   UNL     1       3.719   2.150  18.316  0.00  0.00    +0.000 A 
ATOM      4  C   UNL     1       4.357   3.384  18.141  0.00  0.00    +0.000 A 
ATOM      5  C   UNL     1       3.734   4.525  18.676  0.00  0.00    +0.000 A 
ATOM      6  C   UNL     1       2.561   4.446  19.464  0.00  0.00    +0.000 A 
ENDROOT
BRANCH   4   7
ATOM      7  C   UNL     1       5.717   3.520  17.473  0.00  0.00    +0.000 C 
ATOM      8  N   UNL     1       6.767   4.004  18.406  0.00  0.00    +0.000 NA
ATOM      9  CA  UNL     1       6.751   5.516  18.540  0.00  0.00    +0.000 C 
ATOM     10  C   UNL     1       6.996   6.287  17.217  0.00  0.00    +0.000 C 
ATOM     11  C   UNL     1       6.237   5.629  16.128  0.00  0.00    +0.000 A 
ATOM     12  N   UNL     1       5.938   6.169  14.912  0.00  0.00    +0.000 NA
ATOM     13  C   UNL     1       5.206   5.254  14.306  0.00  0.00    +0.000 A 
ATOM     14  N   UNL     1       5.040   4.136  15.081  0.00  0.00    +0.000 N 
ATOM     15  C   UNL     1       5.691   4.376  16.261  0.00  0.00    +0.000 A 
ATOM     16  H   UNL     1       7.656   3.776  17.948  0.00  0.00    +0.000 HD
ATOM     17  H   UNL     1       4.485   3.324  14.840  0.00  0.00    +0.000 HD
BRANCH   9  18
ATOM     18  C   UNL     1       7.813   5.897  19.576  0.00  0.00    +0.000 C 
ATOM     19  O   UNL     1       8.048   5.298  20.612  0.00  0.00    +0.000 OA
BRANCH  18  20
ATOM     20  OXT UNL     1       8.512   6.996  19.179  0.00  0.00    +0.000 OA
ATOM     21  HXT UNL     1       7.892   7.764  19.222  0.00  0.00    +0.000 HD
ENDBRANCH  18  20
ENDBRANCH   9  18
ENDBRANCH   4   7
BRANCH   1  23
ATOM     22  C   UNL     1       1.107   2.659  21.801  0.00  0.00    +0.000 C 
ATOM     23  O   UNL     1       0.879   2.882  20.418  0.00  0.00    +0.000 OA
ENDBRANCH   1  23
BRANCH   6  24
ATOM     24  C   UNL     1       2.116   5.724  20.135  0.00  0.00    +0.000 C 
BRANCH  24  25
ATOM     25  O   UNL     1       2.675   6.836  19.438  0.00  0.00    +0.000 OA
BRANCH  25  26
ATOM     26  C   UNL     1       1.969   8.009  19.463  0.00  0.00    +0.000 A 
ATOM     27  C   UNL     1       1.389   8.304  20.701  0.00  0.00    +0.000 A 
ATOM     28  C   UNL     1       0.637   9.470  20.880  0.00  0.00    +0.000 A 
ATOM     29  C   UNL     1       0.452  10.351  19.817  0.00  0.00    +0.000 A 
ATOM     30  C   UNL     1       1.026  10.068  18.580  0.00  0.00    +0.000 A 
ATOM     31  C   UNL     1       1.781   8.906  18.409  0.00  0.00    +0.000 A 
ATOM     32  F   UNL     1       2.308   8.688  17.197  0.00  0.00    +0.000 F 
ENDBRANCH  25  26
ENDBRANCH  24  25
ENDBRANCH   6  24
TORSDOF 7
ENDMDL
MODEL 6
REMARK VINA RESULT:      -8.0      2.520      4.031
REMARK  Name = 
REMARK  8 active torsions:
REMARK  status: ('A' for Active; 'I' for Inactive)
REMARK    1  A    between atoms: C_1  and  O_2
REMARK    2  A    between atoms: O_2  and  C_3
REMARK    3  A    between atoms: C_6  and  C_7
REMARK    4  A    between atoms: CA_9  and  C_10
REMARK    5  A    between atoms: C_10  and  OXT_12
REMARK    6  A    between atoms: C_20  and  C_21
REMARK    7  A    between atoms: C_21  and  O_22
REMARK    8  A    between atoms: O_22  and  C_23
REMARK                            x       y       z     vdW  Elec       q    Type
REMARK                         _______ _______ _______ _____ _____    ______ ____
ROOT
ATOM      1  C   UNL     1       1.313   8.789  20.309  0.00  0.00    +0.000 A 
ATOM      2  C   UNL     1       1.851   7.631  20.888  0.00  0.00    +0.000 A 
ATOM      3  C   UNL     1       2.410   6.624  20.105  0.00  0.00    +0.000 A 
ATOM      4  C   UNL     1       2.441   6.740  18.710  0.00  0.00    +0.000 A 
ATOM      5  C   UNL     1       1.843   7.873  18.133  0.00  0.00    +0.000 A 
ATOM      6  C   UNL     1       1.318   8.930  18.914  0.00  0.00    +0.000 A 
ENDROOT
BRANCH   4   7
ATOM      7  C   UNL     1       3.159   5.738  17.817  0.00  0.00    +0.000 C 
ATOM      8  N   UNL     1       2.421   4.455  17.688  0.00  0.00    +0.000 NA
ATOM      9  CA  UNL     1       2.700   3.523  18.853  0.00  0.00    +0.000 C 
ATOM     10  C   UNL     1       4.187   3.121  19.020  0.00  0.00    +0.000 C 
ATOM     11  C   UNL     1       5.037   4.315  18.804  0.00  0.00    +0.000 A 
ATOM     12  N   UNL     1       6.344   4.451  19.164  0.00  0.00    +0.000 NA
ATOM     13  C   UNL     1       6.661   5.689  18.831  0.00  0.00    +0.000 A 
ATOM     14  N   UNL     1       5.608   6.346  18.251  0.00  0.00    +0.000 N 
ATOM     15  C   UNL     1       4.555   5.472  18.241  0.00  0.00    +0.000 A 
ATOM     16  H   UNL     1       2.824   3.997  16.864  0.00  0.00    +0.000 HD
ATOM     17  H   UNL     1       5.605   7.313  17.951  0.00  0.00    +0.000 HD
BRANCH   9  18
ATOM     18  C   UNL     1       1.834   2.274  18.659  0.00  0.00    +0.000 C 
ATOM     19  O   UNL     1       0.615   2.240  18.667  0.00  0.00    +0.000 OA
BRANCH  18  20
ATOM     20  OXT UNL     1       2.605   1.174  18.435  0.00  0.00    +0.000 OA
ATOM     21  HXT UNL     1       2.962   1.254  17.518  0.00  0.00    +0.000 HD
ENDBRANCH  18  20
ENDBRANCH   9  18
ENDBRANCH   4   7
BRANCH   1  23
ATOM     22  C   UNL     1       0.648   9.263  22.556  0.00  0.00    +0.000 C 
ATOM     23  O   UNL     1       0.942   9.717  21.243  0.00  0.00    +0.000 OA
ENDBRANCH   1  23
BRANCH   6  24
ATOM     24  C   UNL     1       0.887  10.169  18.164  0.00  0.00    +0.000 C 
BRANCH  24  25
ATOM     25  O   UNL     1      -0.345   9.904  17.496  0.00  0.00    +0.000 OA
BRANCH  25  26
ATOM     26  C   UNL     1      -1.460  10.552  17.959  0.00  0.00    +0.000 A 
ATOM     27  C   UNL     1      -1.199  11.506  18.949  0.00  0.00    +0.000 A 
ATOM     28  C   UNL     1      -2.239  12.249  19.518  0.00  0.00    +0.000 A 
ATOM     29  C   UNL     1      -3.553  12.040  19.105  0.00  0.00    +0.000 A 
ATOM     30  C   UNL     1      -3.824  11.094  18.119  0.00  0.00    +0.000 A 
ATOM     31  C   UNL     1      -2.781  10.360  17.551  0.00  0.00    +0.000 A 
ATOM     32  F   UNL     1      -3.102   9.465  16.606  0.00  0.00    +0.000 F 
ENDBRANCH  25  26
ENDBRANCH  24  25
ENDBRANCH   6  24
TORSDOF 7
ENDMDL
MODEL 7
REMARK VINA RESULT:      -8.0      2.650      4.066
REMARK  Name = 
REMARK  8 active torsions:
REMARK  status: ('A' for Active; 'I' for Inactive)
REMARK    1  A    between atoms: C_1  and  O_2
REMARK    2  A    between atoms: O_2  and  C_3
REMARK    3  A    between atoms: C_6  and  C_7
REMARK    4  A    between atoms: CA_9  and  C_10
REMARK    5  A    between atoms: C_10  and  OXT_12
REMARK    6  A    between atoms: C_20  and  C_21
REMARK    7  A    between atoms: C_21  and  O_22
REMARK    8  A    between atoms: O_22  and  C_23
REMARK                            x       y       z     vdW  Elec       q    Type
REMARK                         _______ _______ _______ _____ _____    ______ ____
ROOT
ATOM      1  C   UNL     1       1.398   8.898  19.992  0.00  0.00    +0.000 A 
ATOM      2  C   UNL     1       1.737   7.682  20.602  0.00  0.00    +0.000 A 
ATOM      3  C   UNL     1       2.305   6.640  19.872  0.00  0.00    +0.000 A 
ATOM      4  C   UNL     1       2.546   6.780  18.500  0.00  0.00    +0.000 A 
ATOM      5  C   UNL     1       2.145   7.977  17.882  0.00  0.00    +0.000 A 
ATOM      6  C   UNL     1       1.615   9.065  18.617  0.00  0.00    +0.000 A 
ENDROOT
BRANCH   4   7
ATOM      7  C   UNL     1       3.286   5.731  17.684  0.00  0.00    +0.000 C 
ATOM      8  N   UNL     1       2.550   4.442  17.604  0.00  0.00    +0.000 NA
ATOM      9  CA  UNL     1       2.794   3.576  18.826  0.00  0.00    +0.000 C 
ATOM     10  C   UNL     1       4.276   3.183  19.057  0.00  0.00    +0.000 C 
ATOM     11  C   UNL     1       5.133   4.363  18.799  0.00  0.00    +0.000 A 
ATOM     12  N   UNL     1       6.430   4.519  19.188  0.00  0.00    +0.000 NA
ATOM     13  C   UNL     1       6.758   5.736  18.797  0.00  0.00    +0.000 A 
ATOM     14  N   UNL     1       5.724   6.361  18.152  0.00  0.00    +0.000 N 
ATOM     15  C   UNL     1       4.670   5.488  18.160  0.00  0.00    +0.000 A 
ATOM     16  H   UNL     1       2.975   3.940  16.818  0.00  0.00    +0.000 HD
ATOM     17  H   UNL     1       5.731   7.310  17.800  0.00  0.00    +0.000 HD
BRANCH   9  18
ATOM     18  C   UNL     1       1.932   2.318  18.677  0.00  0.00    +0.000 C 
ATOM     19  O   UNL     1       0.714   2.277  18.714  0.00  0.00    +0.000 OA
BRANCH  18  20
ATOM     20  OXT UNL     1       2.705   1.219  18.455  0.00  0.00    +0.000 OA
ATOM     21  HXT UNL     1       3.610   1.543  18.228  0.00  0.00    +0.000 HD
ENDBRANCH  18  20
ENDBRANCH   9  18
ENDBRANCH   4   7
BRANCH   1  23
ATOM     22  C   UNL     1       0.739   9.423  22.229  0.00  0.00    +0.000 C 
ATOM     23  O   UNL     1       0.985   9.839  20.894  0.00  0.00    +0.000 OA
ENDBRANCH   1  23
BRANCH   6  24
ATOM     24  C   UNL     1       1.413  10.354  17.855  0.00  0.00    +0.000 C 
BRANCH  24  25
ATOM     25  O   UNL     1       2.396  11.300  18.270  0.00  0.00    +0.000 OA
BRANCH  25  26
ATOM     26  C   UNL     1       1.981  12.591  18.461  0.00  0.00    +0.000 A 
ATOM     27  C   UNL     1       0.632  12.714  18.811  0.00  0.00    +0.000 A 
ATOM     28  C   UNL     1       0.064  13.972  19.038  0.00  0.00    +0.000 A 
ATOM     29  C   UNL     1       0.840  15.122  18.913  0.00  0.00    +0.000 A 
ATOM     30  C   UNL     1       2.185  15.011  18.567  0.00  0.00    +0.000 A 
ATOM     31  C   UNL     1       2.748  13.752  18.347  0.00  0.00    +0.000 A 
ATOM     32  F   UNL     1       4.046  13.708  18.018  0.00  0.00    +0.000 F 
ENDBRANCH  25  26
ENDBRANCH  24  25
ENDBRANCH   6  24
TORSDOF 7
ENDMDL
MODEL 8
REMARK VINA RESULT:      -7.9      3.017      5.178
REMARK  Name = 
REMARK  8 active torsions:
REMARK  status: ('A' for Active; 'I' for Inactive)
REMARK    1  A    between atoms: C_1  and  O_2
REMARK    2  A    between atoms: O_2  and  C_3
REMARK    3  A    between atoms: C_6  and  C_7
REMARK    4  A    between atoms: CA_9  and  C_10
REMARK    5  A    between atoms: C_10  and  OXT_12
REMARK    6  A    between atoms: C_20  and  C_21
REMARK    7  A    between atoms: C_21  and  O_22
REMARK    8  A    between atoms: O_22  and  C_23
REMARK                            x       y       z     vdW  Elec       q    Type
REMARK                         _______ _______ _______ _____ _____    ______ ____
ROOT
ATOM      1  C   UNL     1       1.866   3.567  18.432  0.00  0.00    +0.000 A 
ATOM      2  C   UNL     1       2.577   2.362  18.523  0.00  0.00    +0.000 A 
ATOM      3  C   UNL     1       3.896   2.266  18.086  0.00  0.00    +0.000 A 
ATOM      4  C   UNL     1       4.546   3.377  17.534  0.00  0.00    +0.000 A 
ATOM      5  C   UNL     1       3.808   4.564  17.388  0.00  0.00    +0.000 A 
ATOM      6  C   UNL     1       2.485   4.694  17.874  0.00  0.00    +0.000 A 
ENDROOT
BRANCH   4   7
ATOM      7  C   UNL     1       6.023   3.368  17.168  0.00  0.00    +0.000 C 
ATOM      8  N   UNL     1       6.878   3.980  18.219  0.00  0.00    +0.000 NA
ATOM      9  CA  UNL     1       6.922   5.492  18.101  0.00  0.00    +0.000 C 
ATOM     10  C   UNL     1       7.487   6.022  16.759  0.00  0.00    +0.000 C 
ATOM     11  C   UNL     1       6.940   5.206  15.650  0.00  0.00    +0.000 A 
ATOM     12  N   UNL     1       6.940   5.538  14.327  0.00  0.00    +0.000 NA
ATOM     13  C   UNL     1       6.301   4.550  13.730  0.00  0.00    +0.000 A 
ATOM     14  N   UNL     1       5.908   3.584  14.619  0.00  0.00    +0.000 N 
ATOM     15  C   UNL     1       6.306   4.006  15.859  0.00  0.00    +0.000 A 
ATOM     16  H   UNL     1       7.829   3.657  18.010  0.00  0.00    +0.000 HD
ATOM     17  H   UNL     1       5.371   2.755  14.396  0.00  0.00    +0.000 HD
BRANCH   9  18
ATOM     18  C   UNL     1       7.760   6.019  19.271  0.00  0.00    +0.000 C 
ATOM     19  O   UNL     1       7.867   5.496  20.367  0.00  0.00    +0.000 OA
BRANCH  18  20
ATOM     20  OXT UNL     1       8.421   7.158  18.924  0.00  0.00    +0.000 OA
ATOM     21  HXT UNL     1       9.130   6.898  18.287  0.00  0.00    +0.000 HD
ENDBRANCH  18  20
ENDBRANCH   9  18
ENDBRANCH   4   7
BRANCH   1  23
ATOM     22  C   UNL     1       0.599   3.265  20.437  0.00  0.00    +0.000 C 
ATOM     23  O   UNL     1       0.641   3.498  19.037  0.00  0.00    +0.000 OA
ENDBRANCH   1  23
BRANCH   6  24
ATOM     24  C   UNL     1       1.886   6.080  17.824  0.00  0.00    +0.000 C 
BRANCH  24  25
ATOM     25  O   UNL     1       2.618   6.937  18.698  0.00  0.00    +0.000 OA
BRANCH  25  26
ATOM     26  C   UNL     1       1.993   8.078  19.126  0.00  0.00    +0.000 A 
ATOM     27  C   UNL     1       1.907   9.083  18.157  0.00  0.00    +0.000 A 
ATOM     28  C   UNL     1       1.295  10.307  18.447  0.00  0.00    +0.000 A 
ATOM     29  C   UNL     1       0.767  10.540  19.715  0.00  0.00    +0.000 A 
ATOM     30  C   UNL     1       0.846   9.545  20.687  0.00  0.00    +0.000 A 
ATOM     31  C   UNL     1       1.453   8.323  20.390  0.00  0.00    +0.000 A 
ATOM     32  F   UNL     1       1.497   7.405  21.365  0.00  0.00    +0.000 F 
ENDBRANCH  25  26
ENDBRANCH  24  25
ENDBRANCH   6  24
TORSDOF 7
ENDMDL
MODEL 9
REMARK VINA RESULT:      -7.9      3.863      8.460
REMARK  Name = 
REMARK  8 active torsions:
REMARK  status: ('A' for Active; 'I' for Inactive)
REMARK    1  A    between atoms: C_1  and  O_2
REMARK    2  A    between atoms: O_2  and  C_3
REMARK    3  A    between atoms: C_6  and  C_7
REMARK    4  A    between atoms: CA_9  and  C_10
REMARK    5  A    between atoms: C_10  and  OXT_12
REMARK    6  A    between atoms: C_20  and  C_21
REMARK    7  A    between atoms: C_21  and  O_22
REMARK    8  A    between atoms: O_22  and  C_23
REMARK                            x       y       z     vdW  Elec       q    Type
REMARK                         _______ _______ _______ _____ _____    ______ ____
ROOT
ATOM      1  C   UNL     1       2.857   7.256  18.539  0.00  0.00    +0.000 A 
ATOM      2  C   UNL     1       2.696   8.418  17.774  0.00  0.00    +0.000 A 
ATOM      3  C   UNL     1       1.825   9.431  18.171  0.00  0.00    +0.000 A 
ATOM      4  C   UNL     1       1.078   9.307  19.349  0.00  0.00    +0.000 A 
ATOM      5  C   UNL     1       1.197   8.112  20.078  0.00  0.00    +0.000 A 
ATOM      6  C   UNL     1       2.115   7.096  19.718  0.00  0.00    +0.000 A 
ENDROOT
BRANCH   4   7
ATOM      7  C   UNL     1       0.219  10.435  19.900  0.00  0.00    +0.000 C 
ATOM      8  N   UNL     1      -1.195  10.350  19.450  0.00  0.00    +0.000 NA
ATOM      9  CA  UNL     1      -1.387  10.959  18.073  0.00  0.00    +0.000 C 
ATOM     10  C   UNL     1      -1.018  12.462  17.971  0.00  0.00    +0.000 C 
ATOM     11  C   UNL     1       0.237  12.702  18.722  0.00  0.00    +0.000 A 
ATOM     12  N   UNL     1       1.044  13.795  18.615  0.00  0.00    +0.000 NA
ATOM     13  C   UNL     1       2.062  13.544  19.418  0.00  0.00    +0.000 A 
ATOM     14  N   UNL     1       1.926  12.337  20.052  0.00  0.00    +0.000 N 
ATOM     15  C   UNL     1       0.760  11.783  19.600  0.00  0.00    +0.000 A 
ATOM     16  H   UNL     1      -1.717  10.953  20.095  0.00  0.00    +0.000 HD
ATOM     17  H   UNL     1       2.600  11.919  20.682  0.00  0.00    +0.000 HD
BRANCH   9  18
ATOM     18  C   UNL     1      -2.852  10.749  17.677  0.00  0.00    +0.000 C 
ATOM     19  O   UNL     1      -3.471   9.701  17.759  0.00  0.00    +0.000 OA
BRANCH  18  20
ATOM     20  OXT UNL     1      -3.413  11.910  17.242  0.00  0.00    +0.000 OA
ATOM     21  HXT UNL     1      -3.700  11.761  16.309  0.00  0.00    +0.000 HD
ENDBRANCH  18  20
ENDBRANCH   9  18
ENDBRANCH   4   7
BRANCH   1  23
ATOM     22  C   UNL     1       4.608   6.906  16.950  0.00  0.00    +0.000 C 
ATOM     23  O   UNL     1       3.853   6.448  18.061  0.00  0.00    +0.000 OA
ENDBRANCH   1  23
BRANCH   6  24
ATOM     24  C   UNL     1       2.276   5.959  20.700  0.00  0.00    +0.000 C 
BRANCH  24  25
ATOM     25  O   UNL     1       1.458   4.866  20.286  0.00  0.00    +0.000 OA
BRANCH  25  26
ATOM     26  C   UNL     1       2.039   3.915  19.491  0.00  0.00    +0.000 A 
ATOM     27  C   UNL     1       2.939   3.079  20.161  0.00  0.00    +0.000 A 
ATOM     28  C   UNL     1       3.611   2.059  19.480  0.00  0.00    +0.000 A 
ATOM     29  C   UNL     1       3.393   1.868  18.117  0.00  0.00    +0.000 A 
ATOM     30  C   UNL     1       2.497   2.693  17.441  0.00  0.00    +0.000 A 
ATOM     31  C   UNL     1       1.825   3.706  18.128  0.00  0.00    +0.000 A 
ATOM     32  F   UNL     1       0.975   4.467  17.424  0.00  0.00    +0.000 F 
ENDBRANCH  25  26
ENDBRANCH  24  25
ENDBRANCH   6  24
TORSDOF 7
ENDMDL
