MODEL 1
REMARK VINA RESULT:      -7.4      0.000      0.000
REMARK  Name = 
REMARK  7 active torsions:
REMARK  status: ('A' for Active; 'I' for Inactive)
REMARK    1  A    between atoms: C_1  and  C_2
REMARK    2  A    between atoms: C_2  and  O_3
REMARK    3  A    between atoms: O_3  and  C_4
REMARK    4  A    between atoms: C_4  and  C_6
REMARK    5  A    between atoms: C_8  and  C_9
REMARK    6  A    between atoms: C_16  and  N_17
REMARK    7  A    between atoms: C_18  and  C_20
REMARK                            x       y       z     vdW  Elec       q    Type
REMARK                         _______ _______ _______ _____ _____    ______ ____
ROOT
ATOM      1  C   UNL     1       1.973   5.581  20.329  0.00  0.00    +0.000 A 
ATOM      2  C   UNL     1       1.169   6.497  21.098  0.00  0.00    +0.000 A 
ATOM      3  C   UNL     1       1.244   7.809  20.660  0.00  0.00    +0.000 A 
ATOM      4  S   UNL     1       2.299   7.918  19.308  0.00  0.00    +0.000 S 
ATOM      5  C   UNL     1       2.543   6.242  19.265  0.00  0.00    +0.000 A 
ENDROOT
BRANCH   3   6
ATOM      6  C   UNL     1       0.585   9.002  21.226  0.00  0.00    +0.000 A 
ATOM      7  C   UNL     1       0.085   9.024  22.537  0.00  0.00    +0.000 A 
ATOM      8  C   UNL     1      -0.589  10.140  23.032  0.00  0.00    +0.000 A 
ATOM      9  C   UNL     1      -0.779  11.259  22.228  0.00  0.00    +0.000 A 
ATOM     10  C   UNL     1      -0.279  11.267  20.929  0.00  0.00    +0.000 A 
ATOM     11  C   UNL     1       0.401  10.150  20.435  0.00  0.00    +0.000 A 
ENDBRANCH   3   6
BRANCH   5  12
ATOM     12  N   UNL     1       3.271   5.832  18.169  0.00  0.00    +0.000 N 
ATOM     13  C   UNL     1       4.617   5.522  18.284  0.00  0.00    +0.000 C 
ATOM     14  O   UNL     1       5.240   5.508  19.344  0.00  0.00    +0.000 OA
ATOM     15  H   UNL     1       2.737   5.464  17.400  0.00  0.00    +0.000 HD
BRANCH  13  16
ATOM     16  C   UNL     1       5.326   5.114  17.028  0.00  0.00    +0.000 A 
ATOM     17  C   UNL     1       6.693   5.413  16.930  0.00  0.00    +0.000 A 
ATOM     18  C   UNL     1       7.416   5.091  15.780  0.00  0.00    +0.000 A 
ATOM     19  C   UNL     1       6.779   4.452  14.718  0.00  0.00    +0.000 A 
ATOM     20  C   UNL     1       5.426   4.132  14.809  0.00  0.00    +0.000 A 
ATOM     21  C   UNL     1       4.699   4.457  15.959  0.00  0.00    +0.000 A 
ENDBRANCH  13  16
ENDBRANCH   5  12
BRANCH   1  22
ATOM     22  C   UNL     1       2.179   4.173  20.642  0.00  0.00    +0.000 C 
ATOM     23  O   UNL     1       2.314   3.731  21.779  0.00  0.00    +0.000 OA
BRANCH  22  24
ATOM     24  O   UNL     1       2.168   3.404  19.513  0.00  0.00    +0.000 OA
BRANCH  24  26
ATOM     25  C   UNL     1       3.300   1.863  18.081  0.00  0.00    +0.000 C 
ATOM     26  C   UNL     1       3.110   2.325  19.515  0.00  0.00    +0.000 C 
ENDBRANCH  24  26
ENDBRANCH  22  24
ENDBRANCH   1  22
TORSDOF 6
ENDMDL
MODEL 2
REMARK VINA RESULT:      -7.4      2.033      3.470
REMARK  Name = 
REMARK  7 active torsions:
REMARK  status: ('A' for Active; 'I' for Inactive)
REMARK    1  A    between atoms: C_1  and  C_2
REMARK    2  A    between atoms: C_2  and  O_3
REMARK    3  A    between atoms: O_3  and  C_4
REMARK    4  A    between atoms: C_4  and  C_6
REMARK    5  A    between atoms: C_8  and  C_9
REMARK    6  A    between atoms: C_16  and  N_17
REMARK    7  A    between atoms: C_18  and  C_20
REMARK                            x       y       z     vdW  Elec       q    Type
REMARK                         _______ _______ _______ _____ _____    ______ ____
ROOT
ATOM      1  C   UNL     1       4.626   5.474  18.680  0.00  0.00    +0.000 A 
ATOM      2  C   UNL     1       3.617   6.053  19.530  0.00  0.00    +0.000 A 
ATOM      3  C   UNL     1       2.943   7.116  18.953  0.00  0.00    +0.000 A 
ATOM      4  S   UNL     1       3.547   7.405  17.370  0.00  0.00    +0.000 S 
ATOM      5  C   UNL     1       4.591   6.072  17.442  0.00  0.00    +0.000 A 
ENDROOT
BRANCH   3   6
ATOM      6  C   UNL     1       1.883   7.957  19.542  0.00  0.00    +0.000 A 
ATOM      7  C   UNL     1       1.372   9.083  18.879  0.00  0.00    +0.000 A 
ATOM      8  C   UNL     1       0.415   9.900  19.481  0.00  0.00    +0.000 A 
ATOM      9  C   UNL     1      -0.054   9.610  20.757  0.00  0.00    +0.000 A 
ATOM     10  C   UNL     1       0.426   8.489  21.430  0.00  0.00    +0.000 A 
ATOM     11  C   UNL     1       1.382   7.668  20.824  0.00  0.00    +0.000 A 
ENDBRANCH   3   6
BRANCH   5  12
ATOM     12  N   UNL     1       5.224   5.819  16.244  0.00  0.00    +0.000 N 
ATOM     13  C   UNL     1       5.102   4.588  15.620  0.00  0.00    +0.000 C 
ATOM     14  O   UNL     1       4.384   3.673  16.019  0.00  0.00    +0.000 OA
ATOM     15  H   UNL     1       5.486   6.629  15.707  0.00  0.00    +0.000 HD
BRANCH  13  16
ATOM     16  C   UNL     1       5.854   4.404  14.337  0.00  0.00    +0.000 A 
ATOM     17  C   UNL     1       7.047   5.125  14.176  0.00  0.00    +0.000 A 
ATOM     18  C   UNL     1       7.789   5.028  12.998  0.00  0.00    +0.000 A 
ATOM     19  C   UNL     1       7.351   4.196  11.969  0.00  0.00    +0.000 A 
ATOM     20  C   UNL     1       6.179   3.459  12.123  0.00  0.00    +0.000 A 
ATOM     21  C   UNL     1       5.432   3.557  13.301  0.00  0.00    +0.000 A 
ENDBRANCH  13  16
ENDBRANCH   5  12
BRANCH   1  22
ATOM     22  C   UNL     1       5.565   4.431  19.076  0.00  0.00    +0.000 C 
ATOM     23  O   UNL     1       5.254   3.425  19.706  0.00  0.00    +0.000 OA
BRANCH  22  24
ATOM     24  O   UNL     1       6.827   4.699  18.626  0.00  0.00    +0.000 OA
BRANCH  24  26
ATOM     25  C   UNL     1       8.051   6.750  18.604  0.00  0.00    +0.000 C 
ATOM     26  C   UNL     1       7.583   5.586  19.459  0.00  0.00    +0.000 C 
ENDBRANCH  24  26
ENDBRANCH  22  24
ENDBRANCH   1  22
TORSDOF 6
ENDMDL
MODEL 3
REMARK VINA RESULT:      -7.4      1.994      3.408
REMARK  Name = 
REMARK  7 active torsions:
REMARK  status: ('A' for Active; 'I' for Inactive)
REMARK    1  A    between atoms: C_1  and  C_2
REMARK    2  A    between atoms: C_2  and  O_3
REMARK    3  A    between atoms: O_3  and  C_4
REMARK    4  A    between atoms: C_4  and  C_6
REMARK    5  A    between atoms: C_8  and  C_9
REMARK    6  A    between atoms: C_16  and  N_17
REMARK    7  A    between atoms: C_18  and  C_20
REMARK                            x       y       z     vdW  Elec       q    Type
REMARK                         _______ _______ _______ _____ _____    ______ ____
ROOT
ATOM      1  C   UNL     1       4.556   5.460  18.720  0.00  0.00    +0.000 A 
ATOM      2  C   UNL     1       3.555   6.041  19.578  0.00  0.00    +0.000 A 
ATOM      3  C   UNL     1       2.920   7.143  19.028  0.00  0.00    +0.000 A 
ATOM      4  S   UNL     1       3.553   7.464  17.463  0.00  0.00    +0.000 S 
ATOM      5  C   UNL     1       4.554   6.099  17.502  0.00  0.00    +0.000 A 
ENDROOT
BRANCH   3   6
ATOM      6  C   UNL     1       1.879   7.996  19.633  0.00  0.00    +0.000 A 
ATOM      7  C   UNL     1       1.338   7.726  20.899  0.00  0.00    +0.000 A 
ATOM      8  C   UNL     1       0.310   8.507  21.425  0.00  0.00    +0.000 A 
ATOM      9  C   UNL     1      -0.202   9.577  20.697  0.00  0.00    +0.000 A 
ATOM     10  C   UNL     1       0.328   9.874  19.445  0.00  0.00    +0.000 A 
ATOM     11  C   UNL     1       1.363   9.093  18.920  0.00  0.00    +0.000 A 
ENDBRANCH   3   6
BRANCH   5  12
ATOM     12  N   UNL     1       5.195   5.866  16.304  0.00  0.00    +0.000 N 
ATOM     13  C   UNL     1       5.101   4.636  15.674  0.00  0.00    +0.000 C 
ATOM     14  O   UNL     1       4.403   3.703  16.068  0.00  0.00    +0.000 OA
ATOM     15  H   UNL     1       5.439   6.684  15.771  0.00  0.00    +0.000 HD
BRANCH  13  16
ATOM     16  C   UNL     1       5.859   4.475  14.391  0.00  0.00    +0.000 A 
ATOM     17  C   UNL     1       5.305   3.635  13.413  0.00  0.00    +0.000 A 
ATOM     18  C   UNL     1       5.966   3.412  12.203  0.00  0.00    +0.000 A 
ATOM     19  C   UNL     1       7.184   4.040  11.953  0.00  0.00    +0.000 A 
ATOM     20  C   UNL     1       7.736   4.892  12.907  0.00  0.00    +0.000 A 
ATOM     21  C   UNL     1       7.078   5.115  14.121  0.00  0.00    +0.000 A 
ENDBRANCH  13  16
ENDBRANCH   5  12
BRANCH   1  22
ATOM     22  C   UNL     1       5.458   4.376  19.092  0.00  0.00    +0.000 C 
ATOM     23  O   UNL     1       5.105   3.348  19.660  0.00  0.00    +0.000 OA
BRANCH  22  24
ATOM     24  O   UNL     1       6.740   4.637  18.697  0.00  0.00    +0.000 OA
BRANCH  24  26
ATOM     25  C   UNL     1       8.019   6.652  18.615  0.00  0.00    +0.000 C 
ATOM     26  C   UNL     1       7.440   5.578  19.518  0.00  0.00    +0.000 C 
ENDBRANCH  24  26
ENDBRANCH  22  24
ENDBRANCH   1  22
TORSDOF 6
ENDMDL
MODEL 4
REMARK VINA RESULT:      -7.4      0.402      1.037
REMARK  Name = 
REMARK  7 active torsions:
REMARK  status: ('A' for Active; 'I' for Inactive)
REMARK    1  A    between atoms: C_1  and  C_2
REMARK    2  A    between atoms: C_2  and  O_3
REMARK    3  A    between atoms: O_3  and  C_4
REMARK    4  A    between atoms: C_4  and  C_6
REMARK    5  A    between atoms: C_8  and  C_9
REMARK    6  A    between atoms: C_16  and  N_17
REMARK    7  A    between atoms: C_18  and  C_20
REMARK                            x       y       z     vdW  Elec       q    Type
REMARK                         _______ _______ _______ _____ _____    ______ ____
ROOT
ATOM      1  C   UNL     1       1.823   5.606  20.412  0.00  0.00    +0.000 A 
ATOM      2  C   UNL     1       0.993   6.521  21.154  0.00  0.00    +0.000 A 
ATOM      3  C   UNL     1       1.122   7.841  20.755  0.00  0.00    +0.000 A 
ATOM      4  S   UNL     1       2.260   7.959  19.472  0.00  0.00    +0.000 S 
ATOM      5  C   UNL     1       2.470   6.279  19.401  0.00  0.00    +0.000 A 
ENDROOT
BRANCH   3   6
ATOM      6  C   UNL     1       0.455   9.035  21.310  0.00  0.00    +0.000 A 
ATOM      7  C   UNL     1       0.452  10.266  20.636  0.00  0.00    +0.000 A 
ATOM      8  C   UNL     1      -0.129  11.397  21.208  0.00  0.00    +0.000 A 
ATOM      9  C   UNL     1      -0.720  11.325  22.465  0.00  0.00    +0.000 A 
ATOM     10  C   UNL     1      -0.742  10.111  23.147  0.00  0.00    +0.000 A 
ATOM     11  C   UNL     1      -0.164   8.976  22.571  0.00  0.00    +0.000 A 
ENDBRANCH   3   6
BRANCH   5  12
ATOM     12  N   UNL     1       3.256   5.879  18.342  0.00  0.00    +0.000 N 
ATOM     13  C   UNL     1       4.589   5.550  18.528  0.00  0.00    +0.000 C 
ATOM     14  O   UNL     1       5.150   5.510  19.621  0.00  0.00    +0.000 OA
ATOM     15  H   UNL     1       2.762   5.531  17.537  0.00  0.00    +0.000 HD
BRANCH  13  16
ATOM     16  C   UNL     1       5.363   5.155  17.307  0.00  0.00    +0.000 A 
ATOM     17  C   UNL     1       6.703   4.777  17.484  0.00  0.00    +0.000 A 
ATOM     18  C   UNL     1       7.498   4.424  16.392  0.00  0.00    +0.000 A 
ATOM     19  C   UNL     1       6.955   4.432  15.108  0.00  0.00    +0.000 A 
ATOM     20  C   UNL     1       5.621   4.787  14.920  0.00  0.00    +0.000 A 
ATOM     21  C   UNL     1       4.823   5.144  16.012  0.00  0.00    +0.000 A 
ENDBRANCH  13  16
ENDBRANCH   5  12
BRANCH   1  22
ATOM     22  C   UNL     1       1.980   4.186  20.702  0.00  0.00    +0.000 C 
ATOM     23  O   UNL     1       2.222   3.731  21.816  0.00  0.00    +0.000 OA
BRANCH  22  24
ATOM     24  O   UNL     1       1.790   3.425  19.583  0.00  0.00    +0.000 OA
BRANCH  24  26
ATOM     25  C   UNL     1       3.037   2.227  17.935  0.00  0.00    +0.000 C 
ATOM     26  C   UNL     1       2.733   2.360  19.417  0.00  0.00    +0.000 C 
ENDBRANCH  24  26
ENDBRANCH  22  24
ENDBRANCH   1  22
TORSDOF 6
ENDMDL
MODEL 5
REMARK VINA RESULT:      -7.4      1.633      2.703
REMARK  Name = 
REMARK  7 active torsions:
REMARK  status: ('A' for Active; 'I' for Inactive)
REMARK    1  A    between atoms: C_1  and  C_2
REMARK    2  A    between atoms: C_2  and  O_3
REMARK    3  A    between atoms: O_3  and  C_4
REMARK    4  A    between atoms: C_4  and  C_6
REMARK    5  A    between atoms: C_8  and  C_9
REMARK    6  A    between atoms: C_16  and  N_17
REMARK    7  A    between atoms: C_18  and  C_20
REMARK                            x       y       z     vdW  Elec       q    Type
REMARK                         _______ _______ _______ _____ _____    ______ ____
ROOT
ATOM      1  C   UNL     1       4.021   5.074  18.844  0.00  0.00    +0.000 A 
ATOM      2  C   UNL     1       3.180   5.891  19.682  0.00  0.00    +0.000 A 
ATOM      3  C   UNL     1       2.688   7.020  19.048  0.00  0.00    +0.000 A 
ATOM      4  S   UNL     1       3.259   7.079  17.428  0.00  0.00    +0.000 S 
ATOM      5  C   UNL     1       4.038   5.582  17.566  0.00  0.00    +0.000 A 
ENDROOT
BRANCH   3   6
ATOM      6  C   UNL     1       1.832   8.085  19.607  0.00  0.00    +0.000 A 
ATOM      7  C   UNL     1       1.377   8.053  20.933  0.00  0.00    +0.000 A 
ATOM      8  C   UNL     1       0.517   9.036  21.423  0.00  0.00    +0.000 A 
ATOM      9  C   UNL     1       0.094  10.073  20.598  0.00  0.00    +0.000 A 
ATOM     10  C   UNL     1       0.545  10.135  19.283  0.00  0.00    +0.000 A 
ATOM     11  C   UNL     1       1.411   9.151  18.794  0.00  0.00    +0.000 A 
ENDBRANCH   3   6
BRANCH   5  12
ATOM     12  N   UNL     1       4.555   5.132  16.370  0.00  0.00    +0.000 N 
ATOM     13  C   UNL     1       5.800   5.552  15.929  0.00  0.00    +0.000 C 
ATOM     14  O   UNL     1       6.559   6.273  16.573  0.00  0.00    +0.000 OA
ATOM     15  H   UNL     1       4.162   4.275  16.017  0.00  0.00    +0.000 HD
BRANCH  13  16
ATOM     16  C   UNL     1       6.258   5.028  14.602  0.00  0.00    +0.000 A 
ATOM     17  C   UNL     1       5.454   4.066  13.973  0.00  0.00    +0.000 A 
ATOM     18  C   UNL     1       5.829   3.508  12.749  0.00  0.00    +0.000 A 
ATOM     19  C   UNL     1       7.009   3.920  12.133  0.00  0.00    +0.000 A 
ATOM     20  C   UNL     1       7.808   4.888  12.736  0.00  0.00    +0.000 A 
ATOM     21  C   UNL     1       7.436   5.446  13.964  0.00  0.00    +0.000 A 
ENDBRANCH  13  16
ENDBRANCH   5  12
BRANCH   1  22
ATOM     22  C   UNL     1       4.767   3.902  19.287  0.00  0.00    +0.000 C 
ATOM     23  O   UNL     1       5.967   3.733  19.090  0.00  0.00    +0.000 OA
BRANCH  22  24
ATOM     24  O   UNL     1       3.969   3.035  19.977  0.00  0.00    +0.000 OA
BRANCH  24  26
ATOM     25  C   UNL     1       1.701   2.299  19.835  0.00  0.00    +0.000 C 
ATOM     26  C   UNL     1       3.063   2.280  19.165  0.00  0.00    +0.000 C 
ENDBRANCH  24  26
ENDBRANCH  22  24
ENDBRANCH   1  22
TORSDOF 6
ENDMDL
MODEL 6
REMARK VINA RESULT:      -7.4      1.445      2.480
REMARK  Name = 
REMARK  7 active torsions:
REMARK  status: ('A' for Active; 'I' for Inactive)
REMARK    1  A    between atoms: C_1  and  C_2
REMARK    2  A    between atoms: C_2  and  O_3
REMARK    3  A    between atoms: O_3  and  C_4
REMARK    4  A    between atoms: C_4  and  C_6
REMARK    5  A    between atoms: C_8  and  C_9
REMARK    6  A    between atoms: C_16  and  N_17
REMARK    7  A    between atoms: C_18  and  C_20
REMARK                            x       y       z     vdW  Elec       q    Type
REMARK                         _______ _______ _______ _____ _____    ______ ____
ROOT
ATOM      1  C   UNL     1       3.504   4.982  19.080  0.00  0.00    +0.000 A 
ATOM      2  C   UNL     1       2.708   5.819  19.941  0.00  0.00    +0.000 A 
ATOM      3  C   UNL     1       2.414   7.059  19.397  0.00  0.00    +0.000 A 
ATOM      4  S   UNL     1       3.113   7.196  17.833  0.00  0.00    +0.000 S 
ATOM      5  C   UNL     1       3.685   5.601  17.865  0.00  0.00    +0.000 A 
ENDROOT
BRANCH   3   6
ATOM      6  C   UNL     1       1.657   8.170  20.007  0.00  0.00    +0.000 A 
ATOM      7  C   UNL     1       1.257   9.292  19.265  0.00  0.00    +0.000 A 
ATOM      8  C   UNL     1       0.597  10.359  19.874  0.00  0.00    +0.000 A 
ATOM      9  C   UNL     1       0.323  10.330  21.237  0.00  0.00    +0.000 A 
ATOM     10  C   UNL     1       0.696   9.221  21.991  0.00  0.00    +0.000 A 
ATOM     11  C   UNL     1       1.353   8.149  21.379  0.00  0.00    +0.000 A 
ENDBRANCH   3   6
BRANCH   5  12
ATOM     12  N   UNL     1       4.234   5.202  16.666  0.00  0.00    +0.000 N 
ATOM     13  C   UNL     1       5.577   5.409  16.394  0.00  0.00    +0.000 C 
ATOM     14  O   UNL     1       6.386   5.875  17.194  0.00  0.00    +0.000 OA
ATOM     15  H   UNL     1       3.725   4.493  16.165  0.00  0.00    +0.000 HD
BRANCH  13  16
ATOM     16  C   UNL     1       6.070   4.965  15.050  0.00  0.00    +0.000 A 
ATOM     17  C   UNL     1       5.260   4.079  14.323  0.00  0.00    +0.000 A 
ATOM     18  C   UNL     1       5.663   3.598  13.076  0.00  0.00    +0.000 A 
ATOM     19  C   UNL     1       6.879   4.011  12.535  0.00  0.00    +0.000 A 
ATOM     20  C   UNL     1       7.685   4.906  13.236  0.00  0.00    +0.000 A 
ATOM     21  C   UNL     1       7.284   5.386  14.487  0.00  0.00    +0.000 A 
ENDBRANCH  13  16
ENDBRANCH   5  12
BRANCH   1  22
ATOM     22  C   UNL     1       4.060   3.684  19.446  0.00  0.00    +0.000 C 
ATOM     23  O   UNL     1       5.250   3.397  19.368  0.00  0.00    +0.000 OA
BRANCH  22  24
ATOM     24  O   UNL     1       3.093   2.843  19.918  0.00  0.00    +0.000 OA
BRANCH  24  26
ATOM     25  C   UNL     1       1.012   2.384  18.838  0.00  0.00    +0.000 C 
ATOM     26  C   UNL     1       2.482   2.015  18.922  0.00  0.00    +0.000 C 
ENDBRANCH  24  26
ENDBRANCH  22  24
ENDBRANCH   1  22
TORSDOF 6
ENDMDL
MODEL 7
REMARK VINA RESULT:      -7.3      2.035      3.508
REMARK  Name = 
REMARK  7 active torsions:
REMARK  status: ('A' for Active; 'I' for Inactive)
REMARK    1  A    between atoms: C_1  and  C_2
REMARK    2  A    between atoms: C_2  and  O_3
REMARK    3  A    between atoms: O_3  and  C_4
REMARK    4  A    between atoms: C_4  and  C_6
REMARK    5  A    between atoms: C_8  and  C_9
REMARK    6  A    between atoms: C_16  and  N_17
REMARK    7  A    between atoms: C_18  and  C_20
REMARK                            x       y       z     vdW  Elec       q    Type
REMARK                         _______ _______ _______ _____ _____    ______ ____
ROOT
ATOM      1  C   UNL     1       4.539   5.687  18.835  0.00  0.00    +0.000 A 
ATOM      2  C   UNL     1       3.506   6.259  19.659  0.00  0.00    +0.000 A 
ATOM      3  C   UNL     1       2.802   7.282  19.044  0.00  0.00    +0.000 A 
ATOM      4  S   UNL     1       3.409   7.540  17.457  0.00  0.00    +0.000 S 
ATOM      5  C   UNL     1       4.494   6.245  17.578  0.00  0.00    +0.000 A 
ENDROOT
BRANCH   3   6
ATOM      6  C   UNL     1       1.710   8.106  19.599  0.00  0.00    +0.000 A 
ATOM      7  C   UNL     1       1.159   9.185  18.891  0.00  0.00    +0.000 A 
ATOM      8  C   UNL     1       0.172   9.989  19.460  0.00  0.00    +0.000 A 
ATOM      9  C   UNL     1      -0.287   9.734  20.747  0.00  0.00    +0.000 A 
ATOM     10  C   UNL     1       0.234   8.660  21.464  0.00  0.00    +0.000 A 
ATOM     11  C   UNL     1       1.220   7.851  20.892  0.00  0.00    +0.000 A 
ENDBRANCH   3   6
BRANCH   5  12
ATOM     12  N   UNL     1       5.145   5.975  16.393  0.00  0.00    +0.000 N 
ATOM     13  C   UNL     1       5.018   4.741  15.776  0.00  0.00    +0.000 C 
ATOM     14  O   UNL     1       4.282   3.838  16.170  0.00  0.00    +0.000 OA
ATOM     15  H   UNL     1       5.425   6.778  15.854  0.00  0.00    +0.000 HD
BRANCH  13  16
ATOM     16  C   UNL     1       5.790   4.538  14.508  0.00  0.00    +0.000 A 
ATOM     17  C   UNL     1       5.232   3.690  13.539  0.00  0.00    +0.000 A 
ATOM     18  C   UNL     1       5.904   3.428  12.343  0.00  0.00    +0.000 A 
ATOM     19  C   UNL     1       7.139   4.026  12.098  0.00  0.00    +0.000 A 
ATOM     20  C   UNL     1       7.696   4.886  13.042  0.00  0.00    +0.000 A 
ATOM     21  C   UNL     1       7.026   5.147  14.242  0.00  0.00    +0.000 A 
ENDBRANCH  13  16
ENDBRANCH   5  12
BRANCH   1  22
ATOM     22  C   UNL     1       5.508   4.688  19.270  0.00  0.00    +0.000 C 
ATOM     23  O   UNL     1       5.321   3.477  19.216  0.00  0.00    +0.000 OA
BRANCH  22  24
ATOM     24  O   UNL     1       6.661   5.272  19.712  0.00  0.00    +0.000 OA
BRANCH  24  26
ATOM     25  C   UNL     1       8.022   6.843  18.534  0.00  0.00    +0.000 C 
ATOM     26  C   UNL     1       7.696   5.373  18.727  0.00  0.00    +0.000 C 
ENDBRANCH  24  26
ENDBRANCH  22  24
ENDBRANCH   1  22
TORSDOF 6
ENDMDL
MODEL 8
REMARK VINA RESULT:      -7.3      1.681      2.514
REMARK  Name = 
REMARK  7 active torsions:
REMARK  status: ('A' for Active; 'I' for Inactive)
REMARK    1  A    between atoms: C_1  and  C_2
REMARK    2  A    between atoms: C_2  and  O_3
REMARK    3  A    between atoms: O_3  and  C_4
REMARK    4  A    between atoms: C_4  and  C_6
REMARK    5  A    between atoms: C_8  and  C_9
REMARK    6  A    between atoms: C_16  and  N_17
REMARK    7  A    between atoms: C_18  and  C_20
REMARK                            x       y       z     vdW  Elec       q    Type
REMARK                         _______ _______ _______ _____ _____    ______ ____
ROOT
ATOM      1  C   UNL     1       3.774   4.738  18.681  0.00  0.00    +0.000 A 
ATOM      2  C   UNL     1       2.993   5.556  19.572  0.00  0.00    +0.000 A 
ATOM      3  C   UNL     1       2.672   6.799  19.053  0.00  0.00    +0.000 A 
ATOM      4  S   UNL     1       3.330   6.963  17.473  0.00  0.00    +0.000 S 
ATOM      5  C   UNL     1       3.918   5.375  17.470  0.00  0.00    +0.000 A 
ENDROOT
BRANCH   3   6
ATOM      6  C   UNL     1       1.920   7.895  19.696  0.00  0.00    +0.000 A 
ATOM      7  C   UNL     1       1.440   7.795  21.010  0.00  0.00    +0.000 A 
ATOM      8  C   UNL     1       0.677   8.816  21.577  0.00  0.00    +0.000 A 
ATOM      9  C   UNL     1       0.378   9.959  20.844  0.00  0.00    +0.000 A 
ATOM     10  C   UNL     1       0.856  10.088  19.543  0.00  0.00    +0.000 A 
ATOM     11  C   UNL     1       1.625   9.066  18.977  0.00  0.00    +0.000 A 
ENDBRANCH   3   6
BRANCH   5  12
ATOM     12  N   UNL     1       4.440   4.997  16.251  0.00  0.00    +0.000 N 
ATOM     13  C   UNL     1       5.786   5.167  15.969  0.00  0.00    +0.000 C 
ATOM     14  O   UNL     1       6.619   5.580  16.774  0.00  0.00    +0.000 OA
ATOM     15  H   UNL     1       3.902   4.322  15.734  0.00  0.00    +0.000 HD
BRANCH  13  16
ATOM     16  C   UNL     1       6.248   4.751  14.606  0.00  0.00    +0.000 A 
ATOM     17  C   UNL     1       7.389   5.382  14.088  0.00  0.00    +0.000 A 
ATOM     18  C   UNL     1       7.864   5.070  12.813  0.00  0.00    +0.000 A 
ATOM     19  C   UNL     1       7.209   4.109  12.046  0.00  0.00    +0.000 A 
ATOM     20  C   UNL     1       6.086   3.460  12.555  0.00  0.00    +0.000 A 
ATOM     21  C   UNL     1       5.606   3.774  13.830  0.00  0.00    +0.000 A 
ENDBRANCH  13  16
ENDBRANCH   5  12
BRANCH   1  22
ATOM     22  C   UNL     1       4.353   3.442  19.015  0.00  0.00    +0.000 C 
ATOM     23  O   UNL     1       5.453   3.291  19.536  0.00  0.00    +0.000 OA
BRANCH  22  24
ATOM     24  O   UNL     1       3.499   2.420  18.706  0.00  0.00    +0.000 OA
BRANCH  24  26
ATOM     25  C   UNL     1       1.111   2.379  18.697  0.00  0.00    +0.000 C 
ATOM     26  C   UNL     1       2.356   2.317  19.563  0.00  0.00    +0.000 C 
ENDBRANCH  24  26
ENDBRANCH  22  24
ENDBRANCH   1  22
TORSDOF 6
ENDMDL
MODEL 9
REMARK VINA RESULT:      -7.3      1.831      7.846
REMARK  Name = 
REMARK  7 active torsions:
REMARK  status: ('A' for Active; 'I' for Inactive)
REMARK    1  A    between atoms: C_1  and  C_2
REMARK    2  A    between atoms: C_2  and  O_3
REMARK    3  A    between atoms: O_3  and  C_4
REMARK    4  A    between atoms: C_4  and  C_6
REMARK    5  A    between atoms: C_8  and  C_9
REMARK    6  A    between atoms: C_16  and  N_17
REMARK    7  A    between atoms: C_18  and  C_20
REMARK                            x       y       z     vdW  Elec       q    Type
REMARK                         _______ _______ _______ _____ _____    ______ ____
ROOT
ATOM      1  C   UNL     1       4.754   4.245  17.893  0.00  0.00    +0.000 A 
ATOM      2  C   UNL     1       5.517   3.779  16.763  0.00  0.00    +0.000 A 
ATOM      3  C   UNL     1       5.622   4.706  15.739  0.00  0.00    +0.000 A 
ATOM      4  S   UNL     1       4.784   6.146  16.163  0.00  0.00    +0.000 S 
ATOM      5  C   UNL     1       4.403   5.563  17.706  0.00  0.00    +0.000 A 
ENDROOT
BRANCH   3   6
ATOM      6  C   UNL     1       6.294   4.557  14.434  0.00  0.00    +0.000 A 
ATOM      7  C   UNL     1       7.402   5.340  14.074  0.00  0.00    +0.000 A 
ATOM      8  C   UNL     1       7.983   5.228  12.812  0.00  0.00    +0.000 A 
ATOM      9  C   UNL     1       7.472   4.330  11.880  0.00  0.00    +0.000 A 
ATOM     10  C   UNL     1       6.383   3.531  12.219  0.00  0.00    +0.000 A 
ATOM     11  C   UNL     1       5.804   3.641  13.487  0.00  0.00    +0.000 A 
ENDBRANCH   3   6
BRANCH   5  12
ATOM     12  N   UNL     1       3.806   6.511  18.508  0.00  0.00    +0.000 N 
ATOM     13  C   UNL     1       2.433   6.698  18.489  0.00  0.00    +0.000 C 
ATOM     14  O   UNL     1       1.646   6.011  17.841  0.00  0.00    +0.000 OA
ATOM     15  H   UNL     1       4.340   6.809  19.307  0.00  0.00    +0.000 HD
BRANCH  13  16
ATOM     16  C   UNL     1       1.885   7.774  19.376  0.00  0.00    +0.000 A 
ATOM     17  C   UNL     1       1.529   8.991  18.775  0.00  0.00    +0.000 A 
ATOM     18  C   UNL     1       1.039  10.052  19.539  0.00  0.00    +0.000 A 
ATOM     19  C   UNL     1       0.886   9.901  20.916  0.00  0.00    +0.000 A 
ATOM     20  C   UNL     1       1.217   8.692  21.524  0.00  0.00    +0.000 A 
ATOM     21  C   UNL     1       1.712   7.629  20.761  0.00  0.00    +0.000 A 
ENDBRANCH  13  16
ENDBRANCH   5  12
BRANCH   1  22
ATOM     22  C   UNL     1       4.382   3.439  19.049  0.00  0.00    +0.000 C 
ATOM     23  O   UNL     1       5.184   2.854  19.770  0.00  0.00    +0.000 OA
BRANCH  22  24
ATOM     24  O   UNL     1       3.030   3.445  19.247  0.00  0.00    +0.000 OA
BRANCH  24  26
ATOM     25  C   UNL     1       1.115   3.606  20.666  0.00  0.00    +0.000 C 
ATOM     26  C   UNL     1       2.623   3.758  20.584  0.00  0.00    +0.000 C 
ENDBRANCH  24  26
ENDBRANCH  22  24
ENDBRANCH   1  22
TORSDOF 6
ENDMDL
