MODEL 1
REMARK VINA RESULT:      -8.2      0.000      0.000
REMARK  Name = 
REMARK  3 active torsions:
REMARK  status: ('A' for Active; 'I' for Inactive)
REMARK    1  A    between atoms: O_1  and  C_2
REMARK    2  A    between atoms: C_4  and  C_5
REMARK    3  A    between atoms: C_14  and  C_15
REMARK                            x       y       z     vdW  Elec       q    Type
REMARK                         _______ _______ _______ _____ _____    ______ ____
ROOT
ATOM      1  C   UNL     1       2.671   5.512  20.225  0.00  0.00    +0.000 A 
ATOM      2  C   UNL     1       3.391   5.028  19.202  0.00  0.00    +0.000 A 
ATOM      3  C   UNL     1       3.603   5.945  18.040  0.00  0.00    +0.000 A 
ATOM      4  N   UNL     1       3.098   7.144  17.935  0.00  0.00    +0.000 NA
ATOM      5  C   UNL     1       2.355   7.584  18.992  0.00  0.00    +0.000 A 
ATOM      6  C   UNL     1       1.680   8.762  19.192  0.00  0.00    +0.000 A 
ATOM      7  C   UNL     1       1.092   8.660  20.476  0.00  0.00    +0.000 A 
ATOM      8  N   UNL     1       1.377   7.482  21.046  0.00  0.00    +0.000 NA
ATOM      9  N   UNL     1       2.141   6.815  20.139  0.00  0.00    +0.000 N 
ENDROOT
BRANCH   7  10
ATOM     10  C   UNL     1       0.252   9.661  21.139  0.00  0.00    +0.000 A 
ATOM     11  C   UNL     1      -0.076   9.528  22.496  0.00  0.00    +0.000 A 
ATOM     12  C   UNL     1      -0.924  10.456  23.115  0.00  0.00    +0.000 A 
ATOM     13  C   UNL     1      -1.445  11.515  22.376  0.00  0.00    +0.000 A 
ATOM     14 BR   UNL     1      -2.611  12.752  23.201  0.00  0.00    +0.000 Br
ATOM     15  C   UNL     1      -1.117  11.667  21.030  0.00  0.00    +0.000 A 
ATOM     16  C   UNL     1      -0.267  10.742  20.417  0.00  0.00    +0.000 A 
ENDBRANCH   7  10
BRANCH   3  17
ATOM     17  C   UNL     1       4.460   5.417  16.942  0.00  0.00    +0.000 A 
ATOM     18  C   UNL     1       5.022   6.307  16.022  0.00  0.00    +0.000 A 
ATOM     19  C   UNL     1       5.863   5.827  15.016  0.00  0.00    +0.000 A 
ATOM     20  C   UNL     1       6.135   4.462  14.923  0.00  0.00    +0.000 A 
ATOM     21  C   UNL     1       5.567   3.570  15.830  0.00  0.00    +0.000 A 
ATOM     22  C   UNL     1       4.738   4.046  16.843  0.00  0.00    +0.000 A 
ENDBRANCH   3  17
BRANCH   1  23
ATOM     23  O   UNL     1       2.423   4.746  21.356  0.00  0.00    +0.000 OA
ATOM     24  H   UNL     1       3.152   4.860  21.987  0.00  0.00    +0.000 HD
ENDBRANCH   1  23
TORSDOF 3
ENDMDL
MODEL 2
REMARK VINA RESULT:      -8.1      0.043      1.010
REMARK  Name = 
REMARK  3 active torsions:
REMARK  status: ('A' for Active; 'I' for Inactive)
REMARK    1  A    between atoms: O_1  and  C_2
REMARK    2  A    between atoms: C_4  and  C_5
REMARK    3  A    between atoms: C_14  and  C_15
REMARK                            x       y       z     vdW  Elec       q    Type
REMARK                         _______ _______ _______ _____ _____    ______ ____
ROOT
ATOM      1  C   UNL     1       2.667   5.517  20.247  0.00  0.00    +0.000 A 
ATOM      2  C   UNL     1       3.395   5.036  19.228  0.00  0.00    +0.000 A 
ATOM      3  C   UNL     1       3.619   5.959  18.072  0.00  0.00    +0.000 A 
ATOM      4  N   UNL     1       3.116   7.158  17.968  0.00  0.00    +0.000 NA
ATOM      5  C   UNL     1       2.365   7.595  19.020  0.00  0.00    +0.000 A 
ATOM      6  C   UNL     1       1.690   8.773  19.221  0.00  0.00    +0.000 A 
ATOM      7  C   UNL     1       1.092   8.666  20.499  0.00  0.00    +0.000 A 
ATOM      8  N   UNL     1       1.369   7.485  21.066  0.00  0.00    +0.000 NA
ATOM      9  N   UNL     1       2.140   6.821  20.163  0.00  0.00    +0.000 N 
ENDROOT
BRANCH   7  10
ATOM     10  C   UNL     1       0.247   9.665  21.159  0.00  0.00    +0.000 A 
ATOM     11  C   UNL     1      -0.082   9.533  22.517  0.00  0.00    +0.000 A 
ATOM     12  C   UNL     1      -0.933  10.459  23.133  0.00  0.00    +0.000 A 
ATOM     13  C   UNL     1      -1.458  11.516  22.392  0.00  0.00    +0.000 A 
ATOM     14 BR   UNL     1      -2.629  12.750  23.214  0.00  0.00    +0.000 Br
ATOM     15  C   UNL     1      -1.129  11.666  21.046  0.00  0.00    +0.000 A 
ATOM     16  C   UNL     1      -0.275  10.743  20.435  0.00  0.00    +0.000 A 
ENDBRANCH   7  10
BRANCH   3  17
ATOM     17  C   UNL     1       4.485   5.434  16.979  0.00  0.00    +0.000 A 
ATOM     18  C   UNL     1       4.740   4.062  16.905  0.00  0.00    +0.000 A 
ATOM     19  C   UNL     1       5.513   3.555  15.858  0.00  0.00    +0.000 A 
ATOM     20  C   UNL     1       6.036   4.416  14.893  0.00  0.00    +0.000 A 
ATOM     21  C   UNL     1       5.795   5.786  14.971  0.00  0.00    +0.000 A 
ATOM     22  C   UNL     1       5.014   6.294  16.006  0.00  0.00    +0.000 A 
ENDBRANCH   3  17
BRANCH   1  23
ATOM     23  O   UNL     1       2.409   4.746  21.372  0.00  0.00    +0.000 OA
ATOM     24  H   UNL     1       2.224   5.330  22.125  0.00  0.00    +0.000 HD
ENDBRANCH   1  23
TORSDOF 3
ENDMDL
MODEL 3
REMARK VINA RESULT:      -8.1      0.078      1.428
REMARK  Name = 
REMARK  3 active torsions:
REMARK  status: ('A' for Active; 'I' for Inactive)
REMARK    1  A    between atoms: O_1  and  C_2
REMARK    2  A    between atoms: C_4  and  C_5
REMARK    3  A    between atoms: C_14  and  C_15
REMARK                            x       y       z     vdW  Elec       q    Type
REMARK                         _______ _______ _______ _____ _____    ______ ____
ROOT
ATOM      1  C   UNL     1       2.685   5.525  20.217  0.00  0.00    +0.000 A 
ATOM      2  C   UNL     1       3.430   5.054  19.206  0.00  0.00    +0.000 A 
ATOM      3  C   UNL     1       3.653   5.979  18.052  0.00  0.00    +0.000 A 
ATOM      4  N   UNL     1       3.134   7.171  17.942  0.00  0.00    +0.000 NA
ATOM      5  C   UNL     1       2.365   7.598  18.986  0.00  0.00    +0.000 A 
ATOM      6  C   UNL     1       1.672   8.766  19.179  0.00  0.00    +0.000 A 
ATOM      7  C   UNL     1       1.062   8.651  20.450  0.00  0.00    +0.000 A 
ATOM      8  N   UNL     1       1.351   7.474  21.021  0.00  0.00    +0.000 NA
ATOM      9  N   UNL     1       2.140   6.821  20.127  0.00  0.00    +0.000 N 
ENDROOT
BRANCH   7  10
ATOM     10  C   UNL     1       0.196   9.638  21.101  0.00  0.00    +0.000 A 
ATOM     11  C   UNL     1      -0.266  10.757  20.392  0.00  0.00    +0.000 A 
ATOM     12  C   UNL     1      -1.049  11.727  21.030  0.00  0.00    +0.000 A 
ATOM     13  C   UNL     1      -1.369  11.580  22.378  0.00  0.00    +0.000 A 
ATOM     14 BR   UNL     1      -2.401  12.902  23.248  0.00  0.00    +0.000 Br
ATOM     15  C   UNL     1      -0.927  10.467  23.091  0.00  0.00    +0.000 A 
ATOM     16  C   UNL     1      -0.150   9.498  22.450  0.00  0.00    +0.000 A 
ENDBRANCH   7  10
BRANCH   3  17
ATOM     17  C   UNL     1       4.537   5.466  16.968  0.00  0.00    +0.000 A 
ATOM     18  C   UNL     1       4.795   4.094  16.885  0.00  0.00    +0.000 A 
ATOM     19  C   UNL     1       5.585   3.599  15.846  0.00  0.00    +0.000 A 
ATOM     20  C   UNL     1       6.124   4.470  14.898  0.00  0.00    +0.000 A 
ATOM     21  C   UNL     1       5.881   5.838  14.986  0.00  0.00    +0.000 A 
ATOM     22  C   UNL     1       5.082   6.336  16.013  0.00  0.00    +0.000 A 
ENDBRANCH   3  17
BRANCH   1  23
ATOM     23  O   UNL     1       2.426   4.751  21.340  0.00  0.00    +0.000 OA
ATOM     24  H   UNL     1       2.289   5.333  22.106  0.00  0.00    +0.000 HD
ENDBRANCH   1  23
TORSDOF 3
ENDMDL
MODEL 4
REMARK VINA RESULT:      -8.1      0.093      1.012
REMARK  Name = 
REMARK  3 active torsions:
REMARK  status: ('A' for Active; 'I' for Inactive)
REMARK    1  A    between atoms: O_1  and  C_2
REMARK    2  A    between atoms: C_4  and  C_5
REMARK    3  A    between atoms: C_14  and  C_15
REMARK                            x       y       z     vdW  Elec       q    Type
REMARK                         _______ _______ _______ _____ _____    ______ ____
ROOT
ATOM      1  C   UNL     1       2.697   5.528  20.227  0.00  0.00    +0.000 A 
ATOM      2  C   UNL     1       3.425   5.039  19.212  0.00  0.00    +0.000 A 
ATOM      3  C   UNL     1       3.627   5.943  18.038  0.00  0.00    +0.000 A 
ATOM      4  N   UNL     1       3.104   7.132  17.914  0.00  0.00    +0.000 NA
ATOM      5  C   UNL     1       2.353   7.577  18.964  0.00  0.00    +0.000 A 
ATOM      6  C   UNL     1       1.661   8.748  19.147  0.00  0.00    +0.000 A 
ATOM      7  C   UNL     1       1.073   8.656  20.430  0.00  0.00    +0.000 A 
ATOM      8  N   UNL     1       1.373   7.490  21.018  0.00  0.00    +0.000 NA
ATOM      9  N   UNL     1       2.148   6.822  20.122  0.00  0.00    +0.000 N 
ENDROOT
BRANCH   7  10
ATOM     10  C   UNL     1       0.217   9.654  21.078  0.00  0.00    +0.000 A 
ATOM     11  C   UNL     1      -0.248  10.766  20.360  0.00  0.00    +0.000 A 
ATOM     12  C   UNL     1      -1.021  11.747  20.994  0.00  0.00    +0.000 A 
ATOM     13  C   UNL     1      -1.329  11.617  22.346  0.00  0.00    +0.000 A 
ATOM     14 BR   UNL     1      -2.348  12.952  23.211  0.00  0.00    +0.000 Br
ATOM     15  C   UNL     1      -0.885  10.510  23.068  0.00  0.00    +0.000 A 
ATOM     16  C   UNL     1      -0.118   9.531  22.431  0.00  0.00    +0.000 A 
ENDBRANCH   7  10
BRANCH   3  17
ATOM     17  C   UNL     1       4.493   5.412  16.949  0.00  0.00    +0.000 A 
ATOM     18  C   UNL     1       5.048   6.297  16.020  0.00  0.00    +0.000 A 
ATOM     19  C   UNL     1       5.897   5.814  15.022  0.00  0.00    +0.000 A 
ATOM     20  C   UNL     1       6.185   4.451  14.946  0.00  0.00    +0.000 A 
ATOM     21  C   UNL     1       5.623   3.564  15.861  0.00  0.00    +0.000 A 
ATOM     22  C   UNL     1       4.786   4.043  16.866  0.00  0.00    +0.000 A 
ENDBRANCH   3  17
BRANCH   1  23
ATOM     23  O   UNL     1       2.458   4.775  21.368  0.00  0.00    +0.000 OA
ATOM     24  H   UNL     1       3.186   4.144  21.495  0.00  0.00    +0.000 HD
ENDBRANCH   1  23
TORSDOF 3
ENDMDL
MODEL 5
REMARK VINA RESULT:      -7.9      2.479      3.220
REMARK  Name = 
REMARK  3 active torsions:
REMARK  status: ('A' for Active; 'I' for Inactive)
REMARK    1  A    between atoms: O_1  and  C_2
REMARK    2  A    between atoms: C_4  and  C_5
REMARK    3  A    between atoms: C_14  and  C_15
REMARK                            x       y       z     vdW  Elec       q    Type
REMARK                         _______ _______ _______ _____ _____    ______ ____
ROOT
ATOM      1  C   UNL     1       1.966   9.248  18.229  0.00  0.00    +0.000 A 
ATOM      2  C   UNL     1       2.520   8.043  18.027  0.00  0.00    +0.000 A 
ATOM      3  C   UNL     1       2.381   7.049  19.135  0.00  0.00    +0.000 A 
ATOM      4  N   UNL     1       1.816   7.290  20.286  0.00  0.00    +0.000 NA
ATOM      5  C   UNL     1       1.285   8.537  20.453  0.00  0.00    +0.000 A 
ATOM      6  C   UNL     1       0.651   9.112  21.525  0.00  0.00    +0.000 A 
ATOM      7  C   UNL     1       0.316  10.426  21.119  0.00  0.00    +0.000 A 
ATOM      8  N   UNL     1       0.724  10.664  19.866  0.00  0.00    +0.000 NA
ATOM      9  N   UNL     1       1.326   9.516  19.456  0.00  0.00    +0.000 N 
ENDROOT
BRANCH   7  10
ATOM     10  C   UNL     1      -0.360  11.448  21.923  0.00  0.00    +0.000 A 
ATOM     11  C   UNL     1      -1.379  11.089  22.820  0.00  0.00    +0.000 A 
ATOM     12  C   UNL     1      -2.061  12.072  23.548  0.00  0.00    +0.000 A 
ATOM     13  C   UNL     1      -1.727  13.414  23.379  0.00  0.00    +0.000 A 
ATOM     14 BR   UNL     1      -2.665  14.744  24.339  0.00  0.00    +0.000 Br
ATOM     15  C   UNL     1      -0.708  13.783  22.502  0.00  0.00    +0.000 A 
ATOM     16  C   UNL     1      -0.026  12.799  21.780  0.00  0.00    +0.000 A 
ENDBRANCH   7  10
BRANCH   3  17
ATOM     17  C   UNL     1       2.943   5.695  18.869  0.00  0.00    +0.000 A 
ATOM     18  C   UNL     1       2.251   4.818  18.029  0.00  0.00    +0.000 A 
ATOM     19  C   UNL     1       2.791   3.564  17.738  0.00  0.00    +0.000 A 
ATOM     20  C   UNL     1       4.015   3.183  18.289  0.00  0.00    +0.000 A 
ATOM     21  C   UNL     1       4.701   4.049  19.137  0.00  0.00    +0.000 A 
ATOM     22  C   UNL     1       4.172   5.306  19.421  0.00  0.00    +0.000 A 
ENDBRANCH   3  17
BRANCH   1  23
ATOM     23  O   UNL     1       2.029  10.240  17.260  0.00  0.00    +0.000 OA
ATOM     24  H   UNL     1       2.700  10.894  17.514  0.00  0.00    +0.000 HD
ENDBRANCH   1  23
TORSDOF 3
ENDMDL
MODEL 6
REMARK VINA RESULT:      -7.8      1.290      1.686
REMARK  Name = 
REMARK  3 active torsions:
REMARK  status: ('A' for Active; 'I' for Inactive)
REMARK    1  A    between atoms: O_1  and  C_2
REMARK    2  A    between atoms: C_4  and  C_5
REMARK    3  A    between atoms: C_14  and  C_15
REMARK                            x       y       z     vdW  Elec       q    Type
REMARK                         _______ _______ _______ _____ _____    ______ ____
ROOT
ATOM      1  C   UNL     1       2.793   6.242  19.866  0.00  0.00    +0.000 A 
ATOM      2  C   UNL     1       3.716   5.662  19.084  0.00  0.00    +0.000 A 
ATOM      3  C   UNL     1       4.104   6.402  17.844  0.00  0.00    +0.000 A 
ATOM      4  N   UNL     1       3.572   7.527  17.451  0.00  0.00    +0.000 NA
ATOM      5  C   UNL     1       2.622   8.068  18.268  0.00  0.00    +0.000 A 
ATOM      6  C   UNL     1       1.867   9.207  18.144  0.00  0.00    +0.000 A 
ATOM      7  C   UNL     1       1.051   9.260  19.299  0.00  0.00    +0.000 A 
ATOM      8  N   UNL     1       1.276   8.210  20.100  0.00  0.00    +0.000 NA
ATOM      9  N   UNL     1       2.229   7.472  19.470  0.00  0.00    +0.000 N 
ENDROOT
BRANCH   7  10
ATOM     10  C   UNL     1       0.054  10.284  19.624  0.00  0.00    +0.000 A 
ATOM     11  C   UNL     1       0.037  10.885  20.891  0.00  0.00    +0.000 A 
ATOM     12  C   UNL     1      -0.949  11.824  21.218  0.00  0.00    +0.000 A 
ATOM     13  C   UNL     1      -1.920  12.161  20.278  0.00  0.00    +0.000 A 
ATOM     14 BR   UNL     1      -3.269  13.407  20.726  0.00  0.00    +0.000 Br
ATOM     15  C   UNL     1      -1.908  11.582  19.011  0.00  0.00    +0.000 A 
ATOM     16  C   UNL     1      -0.919  10.649  18.686  0.00  0.00    +0.000 A 
ENDBRANCH   7  10
BRANCH   3  17
ATOM     17  C   UNL     1       5.177   5.777  17.022  0.00  0.00    +0.000 A 
ATOM     18  C   UNL     1       6.252   5.150  17.659  0.00  0.00    +0.000 A 
ATOM     19  C   UNL     1       7.240   4.522  16.898  0.00  0.00    +0.000 A 
ATOM     20  C   UNL     1       7.161   4.528  15.506  0.00  0.00    +0.000 A 
ATOM     21  C   UNL     1       6.100   5.164  14.866  0.00  0.00    +0.000 A 
ATOM     22  C   UNL     1       5.105   5.780  15.622  0.00  0.00    +0.000 A 
ENDBRANCH   3  17
BRANCH   1  23
ATOM     23  O   UNL     1       2.370   5.644  21.044  0.00  0.00    +0.000 OA
ATOM     24  H   UNL     1       2.565   6.233  21.791  0.00  0.00    +0.000 HD
ENDBRANCH   1  23
TORSDOF 3
ENDMDL
MODEL 7
REMARK VINA RESULT:      -7.8      2.490      3.189
REMARK  Name = 
REMARK  3 active torsions:
REMARK  status: ('A' for Active; 'I' for Inactive)
REMARK    1  A    between atoms: O_1  and  C_2
REMARK    2  A    between atoms: C_4  and  C_5
REMARK    3  A    between atoms: C_14  and  C_15
REMARK                            x       y       z     vdW  Elec       q    Type
REMARK                         _______ _______ _______ _____ _____    ______ ____
ROOT
ATOM      1  C   UNL     1       2.022   9.248  18.191  0.00  0.00    +0.000 A 
ATOM      2  C   UNL     1       2.576   8.044  17.984  0.00  0.00    +0.000 A 
ATOM      3  C   UNL     1       2.430   7.043  19.086  0.00  0.00    +0.000 A 
ATOM      4  N   UNL     1       1.859   7.278  20.235  0.00  0.00    +0.000 NA
ATOM      5  C   UNL     1       1.329   8.524  20.407  0.00  0.00    +0.000 A 
ATOM      6  C   UNL     1       0.689   9.093  21.479  0.00  0.00    +0.000 A 
ATOM      7  C   UNL     1       0.358  10.410  21.080  0.00  0.00    +0.000 A 
ATOM      8  N   UNL     1       0.773  10.656  19.830  0.00  0.00    +0.000 NA
ATOM      9  N   UNL     1       1.376   9.509  19.416  0.00  0.00    +0.000 N 
ENDROOT
BRANCH   7  10
ATOM     10  C   UNL     1      -0.321  11.427  21.887  0.00  0.00    +0.000 A 
ATOM     11  C   UNL     1      -1.312  11.059  22.809  0.00  0.00    +0.000 A 
ATOM     12  C   UNL     1      -1.999  12.037  23.540  0.00  0.00    +0.000 A 
ATOM     13  C   UNL     1      -1.696  13.383  23.348  0.00  0.00    +0.000 A 
ATOM     14 BR   UNL     1      -2.640  14.705  24.313  0.00  0.00    +0.000 Br
ATOM     15  C   UNL     1      -0.704  13.762  22.446  0.00  0.00    +0.000 A 
ATOM     16  C   UNL     1      -0.018  12.784  21.721  0.00  0.00    +0.000 A 
ENDBRANCH   7  10
BRANCH   3  17
ATOM     17  C   UNL     1       2.992   5.691  18.814  0.00  0.00    +0.000 A 
ATOM     18  C   UNL     1       4.224   5.335  19.372  0.00  0.00    +0.000 A 
ATOM     19  C   UNL     1       4.738   4.054  19.160  0.00  0.00    +0.000 A 
ATOM     20  C   UNL     1       4.029   3.133  18.388  0.00  0.00    +0.000 A 
ATOM     21  C   UNL     1       2.808   3.488  17.820  0.00  0.00    +0.000 A 
ATOM     22  C   UNL     1       2.286   4.760  18.038  0.00  0.00    +0.000 A 
ENDBRANCH   3  17
BRANCH   1  23
ATOM     23  O   UNL     1       2.091  10.246  17.229  0.00  0.00    +0.000 OA
ATOM     24  H   UNL     1       1.682   9.929  16.407  0.00  0.00    +0.000 HD
ENDBRANCH   1  23
TORSDOF 3
ENDMDL
MODEL 8
REMARK VINA RESULT:      -7.8      1.265      1.493
REMARK  Name = 
REMARK  3 active torsions:
REMARK  status: ('A' for Active; 'I' for Inactive)
REMARK    1  A    between atoms: O_1  and  C_2
REMARK    2  A    between atoms: C_4  and  C_5
REMARK    3  A    between atoms: C_14  and  C_15
REMARK                            x       y       z     vdW  Elec       q    Type
REMARK                         _______ _______ _______ _____ _____    ______ ____
ROOT
ATOM      1  C   UNL     1       2.800   6.201  19.913  0.00  0.00    +0.000 A 
ATOM      2  C   UNL     1       3.714   5.609  19.129  0.00  0.00    +0.000 A 
ATOM      3  C   UNL     1       4.094   6.336  17.878  0.00  0.00    +0.000 A 
ATOM      4  N   UNL     1       3.564   7.459  17.479  0.00  0.00    +0.000 NA
ATOM      5  C   UNL     1       2.623   8.012  18.299  0.00  0.00    +0.000 A 
ATOM      6  C   UNL     1       1.872   9.154  18.172  0.00  0.00    +0.000 A 
ATOM      7  C   UNL     1       1.067   9.222  19.333  0.00  0.00    +0.000 A 
ATOM      8  N   UNL     1       1.294   8.178  20.141  0.00  0.00    +0.000 NA
ATOM      9  N   UNL     1       2.238   7.429  19.510  0.00  0.00    +0.000 N 
ENDROOT
BRANCH   7  10
ATOM     10  C   UNL     1       0.077  10.253  19.657  0.00  0.00    +0.000 A 
ATOM     11  C   UNL     1      -0.071  10.709  20.975  0.00  0.00    +0.000 A 
ATOM     12  C   UNL     1      -1.054  11.655  21.292  0.00  0.00    +0.000 A 
ATOM     13  C   UNL     1      -1.890  12.145  20.291  0.00  0.00    +0.000 A 
ATOM     14 BR   UNL     1      -3.235  13.400  20.721  0.00  0.00    +0.000 Br
ATOM     15  C   UNL     1      -1.744  11.711  18.975  0.00  0.00    +0.000 A 
ATOM     16  C   UNL     1      -0.759  10.770  18.661  0.00  0.00    +0.000 A 
ENDBRANCH   7  10
BRANCH   3  17
ATOM     17  C   UNL     1       5.157   5.699  17.053  0.00  0.00    +0.000 A 
ATOM     18  C   UNL     1       5.064   5.744  15.659  0.00  0.00    +0.000 A 
ATOM     19  C   UNL     1       6.078   5.189  14.876  0.00  0.00    +0.000 A 
ATOM     20  C   UNL     1       7.179   4.583  15.482  0.00  0.00    +0.000 A 
ATOM     21  C   UNL     1       7.270   4.524  16.871  0.00  0.00    +0.000 A 
ATOM     22  C   UNL     1       6.266   5.088  17.656  0.00  0.00    +0.000 A 
ENDBRANCH   3  17
BRANCH   1  23
ATOM     23  O   UNL     1       2.385   5.616  21.101  0.00  0.00    +0.000 OA
ATOM     24  H   UNL     1       1.415   5.634  21.146  0.00  0.00    +0.000 HD
ENDBRANCH   1  23
TORSDOF 3
ENDMDL
MODEL 9
REMARK VINA RESULT:      -7.8      1.232      1.682
REMARK  Name = 
REMARK  3 active torsions:
REMARK  status: ('A' for Active; 'I' for Inactive)
REMARK    1  A    between atoms: O_1  and  C_2
REMARK    2  A    between atoms: C_4  and  C_5
REMARK    3  A    between atoms: C_14  and  C_15
REMARK                            x       y       z     vdW  Elec       q    Type
REMARK                         _______ _______ _______ _____ _____    ______ ____
ROOT
ATOM      1  C   UNL     1       2.813   6.115  19.947  0.00  0.00    +0.000 A 
ATOM      2  C   UNL     1       3.723   5.538  19.148  0.00  0.00    +0.000 A 
ATOM      3  C   UNL     1       4.099   6.288  17.910  0.00  0.00    +0.000 A 
ATOM      4  N   UNL     1       3.569   7.420  17.535  0.00  0.00    +0.000 NA
ATOM      5  C   UNL     1       2.632   7.958  18.370  0.00  0.00    +0.000 A 
ATOM      6  C   UNL     1       1.882   9.102  18.267  0.00  0.00    +0.000 A 
ATOM      7  C   UNL     1       1.081   9.148  19.433  0.00  0.00    +0.000 A 
ATOM      8  N   UNL     1       1.310   8.089  20.220  0.00  0.00    +0.000 NA
ATOM      9  N   UNL     1       2.251   7.351  19.571  0.00  0.00    +0.000 N 
ENDROOT
BRANCH   7  10
ATOM     10  C   UNL     1       0.094  10.174  19.780  0.00  0.00    +0.000 A 
ATOM     11  C   UNL     1      -0.919  10.523  18.874  0.00  0.00    +0.000 A 
ATOM     12  C   UNL     1      -1.829  11.541  19.185  0.00  0.00    +0.000 A 
ATOM     13  C   UNL     1      -1.726  12.212  20.401  0.00  0.00    +0.000 A 
ATOM     14 BR   UNL     1      -2.936  13.605  20.811  0.00  0.00    +0.000 Br
ATOM     15  C   UNL     1      -0.734  11.866  21.316  0.00  0.00    +0.000 A 
ATOM     16  C   UNL     1       0.170  10.847  21.005  0.00  0.00    +0.000 A 
ENDBRANCH   7  10
BRANCH   3  17
ATOM     17  C   UNL     1       5.159   5.666  17.069  0.00  0.00    +0.000 A 
ATOM     18  C   UNL     1       5.046   5.715  15.676  0.00  0.00    +0.000 A 
ATOM     19  C   UNL     1       6.056   5.175  14.878  0.00  0.00    +0.000 A 
ATOM     20  C   UNL     1       7.172   4.580  15.467  0.00  0.00    +0.000 A 
ATOM     21  C   UNL     1       7.283   4.517  16.855  0.00  0.00    +0.000 A 
ATOM     22  C   UNL     1       6.283   5.067  17.655  0.00  0.00    +0.000 A 
ENDBRANCH   3  17
BRANCH   1  23
ATOM     23  O   UNL     1       2.402   5.507  21.124  0.00  0.00    +0.000 OA
ATOM     24  H   UNL     1       1.434   5.558  21.191  0.00  0.00    +0.000 HD
ENDBRANCH   1  23
TORSDOF 3
ENDMDL
