MODEL 1
REMARK VINA RESULT:      -7.8      0.000      0.000
REMARK  Name = 
REMARK  7 active torsions:
REMARK  status: ('A' for Active; 'I' for Inactive)
REMARK    1  A    between atoms: C_1  and  O_2
REMARK    2  A    between atoms: O_2  and  C_3
REMARK    3  A    between atoms: C_8  and  N_9
REMARK    4  A    between atoms: N_12  and  C_13
REMARK    5  A    between atoms: C_13  and  C_14
REMARK    6  A    between atoms: N_26  and  C_27
REMARK    7  A    between atoms: C_27  and  C_28
REMARK                            x       y       z     vdW  Elec       q    Type
REMARK                         _______ _______ _______ _____ _____    ______ ____
ROOT
ATOM      1  N   UNL     1      -0.541  10.842  19.213  0.00  0.00    +0.000 N 
ATOM      2  C   UNL     1      -0.227  12.015  19.914  0.00  0.00    +0.000 A 
ATOM      3  O   UNL     1       0.905  12.245  20.360  0.00  0.00    +0.000 OA
ATOM      4  N   UNL     1      -1.262  12.962  20.075  0.00  0.00    +0.000 N 
ATOM      5  C   UNL     1      -2.599  12.730  19.753  0.00  0.00    +0.000 A 
ATOM      6  O   UNL     1      -3.539  13.381  20.202  0.00  0.00    +0.000 OA
ATOM      7  C   UNL     1      -2.775  11.616  18.883  0.00  0.00    +0.000 A 
ATOM      8  C   UNL     1      -1.786  10.705  18.629  0.00  0.00    +0.000 A 
ATOM      9  N   UNL     1      -2.246   9.694  17.831  0.00  0.00    +0.000 NA
ATOM     10  C   UNL     1      -3.498  10.009  17.569  0.00  0.00    +0.000 A 
ATOM     11  N   UNL     1      -3.866  11.183  18.176  0.00  0.00    +0.000 N 
ENDROOT
BRANCH   1  17
ATOM     12  C   UNL     1       0.716   8.948  20.181  0.00  0.00    +0.000 A 
ATOM     13  C   UNL     1       1.726   7.982  20.060  0.00  0.00    +0.000 A 
ATOM     14  C   UNL     1       2.460   7.872  18.882  0.00  0.00    +0.000 A 
ATOM     15  C   UNL     1       2.160   8.691  17.797  0.00  0.00    +0.000 A 
ATOM     16  C   UNL     1       1.125   9.627  17.888  0.00  0.00    +0.000 A 
ATOM     17  C   UNL     1       0.409   9.787  19.084  0.00  0.00    +0.000 A 
BRANCH  12  19
ATOM     18  C   UNL     1       0.601   9.331  22.511  0.00  0.00    +0.000 C 
ATOM     19  O   UNL     1      -0.086   9.033  21.297  0.00  0.00    +0.000 OA
ENDBRANCH  12  19
ENDBRANCH   1  17
BRANCH   4  20
ATOM     20  C   UNL     1      -0.969  14.143  20.874  0.00  0.00    +0.000 C 
BRANCH  20  21
ATOM     21  C   UNL     1      -0.984  15.455  20.111  0.00  0.00    +0.000 A 
ATOM     22  C   UNL     1      -0.103  15.644  19.035  0.00  0.00    +0.000 A 
ATOM     23  C   UNL     1      -0.201  16.771  18.217  0.00  0.00    +0.000 A 
ATOM     24  C   UNL     1      -1.175  17.732  18.471  0.00  0.00    +0.000 A 
ATOM     25  C   UNL     1      -2.031  17.580  19.563  0.00  0.00    +0.000 A 
ATOM     26  C   UNL     1      -1.937  16.449  20.381  0.00  0.00    +0.000 A 
ENDBRANCH  20  21
ENDBRANCH   4  20
BRANCH  11  27
ATOM     27  C   UNL     1      -5.175  11.807  18.081  0.00  0.00    +0.000 C 
BRANCH  27  28
ATOM     28  C   UNL     1      -6.137  11.227  19.088  0.00  0.00    +0.000 A 
ATOM     29  C   UNL     1      -6.557   9.889  18.989  0.00  0.00    +0.000 A 
ATOM     30  C   UNL     1      -7.422   9.337  19.941  0.00  0.00    +0.000 A 
ATOM     31  C   UNL     1      -7.881  10.118  20.999  0.00  0.00    +0.000 A 
ATOM     32  C   UNL     1      -7.474  11.442  21.097  0.00  0.00    +0.000 A 
ATOM     33  F   UNL     1      -7.917  12.195  22.111  0.00  0.00    +0.000 F 
ATOM     34  C   UNL     1      -6.611  12.002  20.156  0.00  0.00    +0.000 A 
ENDBRANCH  27  28
ENDBRANCH  11  27
TORSDOF 6
ENDMDL
MODEL 2
REMARK VINA RESULT:      -7.7      1.062      1.635
REMARK  Name = 
REMARK  7 active torsions:
REMARK  status: ('A' for Active; 'I' for Inactive)
REMARK    1  A    between atoms: C_1  and  O_2
REMARK    2  A    between atoms: O_2  and  C_3
REMARK    3  A    between atoms: C_8  and  N_9
REMARK    4  A    between atoms: N_12  and  C_13
REMARK    5  A    between atoms: C_13  and  C_14
REMARK    6  A    between atoms: N_26  and  C_27
REMARK    7  A    between atoms: C_27  and  C_28
REMARK                            x       y       z     vdW  Elec       q    Type
REMARK                         _______ _______ _______ _____ _____    ______ ____
ROOT
ATOM      1  N   UNL     1      -0.118  10.785  19.116  0.00  0.00    +0.000 N 
ATOM      2  C   UNL     1       0.343  11.982  19.681  0.00  0.00    +0.000 A 
ATOM      3  O   UNL     1       1.518  12.142  20.041  0.00  0.00    +0.000 OA
ATOM      4  N   UNL     1      -0.589  13.034  19.806  0.00  0.00    +0.000 N 
ATOM      5  C   UNL     1      -1.959  12.903  19.581  0.00  0.00    +0.000 A 
ATOM      6  O   UNL     1      -2.806  13.679  20.013  0.00  0.00    +0.000 OA
ATOM      7  C   UNL     1      -2.289  11.736  18.833  0.00  0.00    +0.000 A 
ATOM      8  C   UNL     1      -1.405  10.715  18.616  0.00  0.00    +0.000 A 
ATOM      9  N   UNL     1      -2.004   9.683  17.946  0.00  0.00    +0.000 NA
ATOM     10  C   UNL     1      -3.236  10.092  17.723  0.00  0.00    +0.000 A 
ATOM     11  N   UNL     1      -3.457  11.346  18.231  0.00  0.00    +0.000 N 
ENDROOT
BRANCH   1  17
ATOM     12  C   UNL     1       0.909   8.796  20.162  0.00  0.00    +0.000 A 
ATOM     13  C   UNL     1       1.818   7.731  20.093  0.00  0.00    +0.000 A 
ATOM     14  C   UNL     1       2.573   7.519  18.942  0.00  0.00    +0.000 A 
ATOM     15  C   UNL     1       2.392   8.339  17.832  0.00  0.00    +0.000 A 
ATOM     16  C   UNL     1       1.455   9.377  17.870  0.00  0.00    +0.000 A 
ATOM     17  C   UNL     1       0.723   9.636  19.039  0.00  0.00    +0.000 A 
BRANCH  12  19
ATOM     18  C   UNL     1       0.752   9.393  22.444  0.00  0.00    +0.000 C 
ATOM     19  O   UNL     1       0.086   8.988  21.249  0.00  0.00    +0.000 OA
ENDBRANCH  12  19
ENDBRANCH   1  17
BRANCH   4  20
ATOM     20  C   UNL     1      -0.141  14.250  20.468  0.00  0.00    +0.000 C 
BRANCH  20  21
ATOM     21  C   UNL     1       0.349  15.346  19.539  0.00  0.00    +0.000 A 
ATOM     22  C   UNL     1      -0.581  16.168  18.884  0.00  0.00    +0.000 A 
ATOM     23  C   UNL     1      -0.163  17.281  18.151  0.00  0.00    +0.000 A 
ATOM     24  C   UNL     1       1.193  17.580  18.054  0.00  0.00    +0.000 A 
ATOM     25  C   UNL     1       2.133  16.747  18.664  0.00  0.00    +0.000 A 
ATOM     26  C   UNL     1       1.715  15.635  19.402  0.00  0.00    +0.000 A 
ENDBRANCH  20  21
ENDBRANCH   4  20
BRANCH  11  27
ATOM     27  C   UNL     1      -4.709  12.082  18.148  0.00  0.00    +0.000 C 
BRANCH  27  28
ATOM     28  C   UNL     1      -5.709  11.586  19.162  0.00  0.00    +0.000 A 
ATOM     29  C   UNL     1      -6.109  12.404  20.233  0.00  0.00    +0.000 A 
ATOM     30  C   UNL     1      -7.062  11.960  21.156  0.00  0.00    +0.000 A 
ATOM     31  C   UNL     1      -7.623  10.693  21.022  0.00  0.00    +0.000 A 
ATOM     32  C   UNL     1      -7.226   9.879  19.969  0.00  0.00    +0.000 A 
ATOM     33  F   UNL     1      -7.762   8.658  19.841  0.00  0.00    +0.000 F 
ATOM     34  C   UNL     1      -6.279  10.310  19.042  0.00  0.00    +0.000 A 
ENDBRANCH  27  28
ENDBRANCH  11  27
TORSDOF 6
ENDMDL
MODEL 3
REMARK VINA RESULT:      -7.6      0.789      1.130
REMARK  Name = 
REMARK  7 active torsions:
REMARK  status: ('A' for Active; 'I' for Inactive)
REMARK    1  A    between atoms: C_1  and  O_2
REMARK    2  A    between atoms: O_2  and  C_3
REMARK    3  A    between atoms: C_8  and  N_9
REMARK    4  A    between atoms: N_12  and  C_13
REMARK    5  A    between atoms: C_13  and  C_14
REMARK    6  A    between atoms: N_26  and  C_27
REMARK    7  A    between atoms: C_27  and  C_28
REMARK                            x       y       z     vdW  Elec       q    Type
REMARK                         _______ _______ _______ _____ _____    ______ ____
ROOT
ATOM      1  N   UNL     1      -0.167  10.813  19.246  0.00  0.00    +0.000 N 
ATOM      2  C   UNL     1       0.266  11.975  19.901  0.00  0.00    +0.000 A 
ATOM      3  O   UNL     1       1.428  12.119  20.305  0.00  0.00    +0.000 OA
ATOM      4  N   UNL     1      -0.679  13.011  20.063  0.00  0.00    +0.000 N 
ATOM      5  C   UNL     1      -2.040  12.886  19.788  0.00  0.00    +0.000 A 
ATOM      6  O   UNL     1      -2.906  13.626  20.244  0.00  0.00    +0.000 OA
ATOM      7  C   UNL     1      -2.338  11.767  18.958  0.00  0.00    +0.000 A 
ATOM      8  C   UNL     1      -1.438  10.767  18.703  0.00  0.00    +0.000 A 
ATOM      9  N   UNL     1      -2.008   9.777  17.951  0.00  0.00    +0.000 NA
ATOM     10  C   UNL     1      -3.236  10.191  17.717  0.00  0.00    +0.000 A 
ATOM     11  N   UNL     1      -3.483  11.408  18.297  0.00  0.00    +0.000 N 
ENDROOT
BRANCH   1  17
ATOM     12  C   UNL     1       0.892   8.802  20.213  0.00  0.00    +0.000 A 
ATOM     13  C   UNL     1       1.811   7.750  20.099  0.00  0.00    +0.000 A 
ATOM     14  C   UNL     1       2.557   7.586  18.934  0.00  0.00    +0.000 A 
ATOM     15  C   UNL     1       2.355   8.441  17.854  0.00  0.00    +0.000 A 
ATOM     16  C   UNL     1       1.408   9.466  17.938  0.00  0.00    +0.000 A 
ATOM     17  C   UNL     1       0.684   9.677  19.121  0.00  0.00    +0.000 A 
BRANCH  12  19
ATOM     18  C   UNL     1       0.755   9.287  22.523  0.00  0.00    +0.000 C 
ATOM     19  O   UNL     1       0.078   8.947  21.315  0.00  0.00    +0.000 OA
ENDBRANCH  12  19
ENDBRANCH   1  17
BRANCH   4  20
ATOM     20  C   UNL     1      -0.261  14.184  20.816  0.00  0.00    +0.000 C 
BRANCH  20  21
ATOM     21  C   UNL     1       0.337  15.303  19.982  0.00  0.00    +0.000 A 
ATOM     22  C   UNL     1      -0.421  15.884  18.953  0.00  0.00    +0.000 A 
ATOM     23  C   UNL     1       0.039  17.016  18.277  0.00  0.00    +0.000 A 
ATOM     24  C   UNL     1       1.268  17.576  18.612  0.00  0.00    +0.000 A 
ATOM     25  C   UNL     1       2.052  16.984  19.603  0.00  0.00    +0.000 A 
ATOM     26  C   UNL     1       1.592  15.853  20.285  0.00  0.00    +0.000 A 
ENDBRANCH  20  21
ENDBRANCH   4  20
BRANCH  11  27
ATOM     27  C   UNL     1      -4.738  12.140  18.222  0.00  0.00    +0.000 C 
BRANCH  27  28
ATOM     28  C   UNL     1      -5.784  11.535  19.126  0.00  0.00    +0.000 A 
ATOM     29  C   UNL     1      -6.385  10.306  18.804  0.00  0.00    +0.000 A 
ATOM     30  C   UNL     1      -7.330   9.726  19.657  0.00  0.00    +0.000 A 
ATOM     31  C   UNL     1      -7.688  10.370  20.839  0.00  0.00    +0.000 A 
ATOM     32  C   UNL     1      -7.101  11.587  21.157  0.00  0.00    +0.000 A 
ATOM     33  F   UNL     1      -7.447  12.209  22.292  0.00  0.00    +0.000 F 
ATOM     34  C   UNL     1      -6.158  12.174  20.317  0.00  0.00    +0.000 A 
ENDBRANCH  27  28
ENDBRANCH  11  27
TORSDOF 6
ENDMDL
MODEL 4
REMARK VINA RESULT:      -7.1      1.582      2.584
REMARK  Name = 
REMARK  7 active torsions:
REMARK  status: ('A' for Active; 'I' for Inactive)
REMARK    1  A    between atoms: C_1  and  O_2
REMARK    2  A    between atoms: O_2  and  C_3
REMARK    3  A    between atoms: C_8  and  N_9
REMARK    4  A    between atoms: N_12  and  C_13
REMARK    5  A    between atoms: C_13  and  C_14
REMARK    6  A    between atoms: N_26  and  C_27
REMARK    7  A    between atoms: C_27  and  C_28
REMARK                            x       y       z     vdW  Elec       q    Type
REMARK                         _______ _______ _______ _____ _____    ______ ____
ROOT
ATOM      1  N   UNL     1      -0.573  10.793  19.192  0.00  0.00    +0.000 N 
ATOM      2  C   UNL     1      -0.297  11.963  19.915  0.00  0.00    +0.000 A 
ATOM      3  O   UNL     1       0.815  12.198  20.406  0.00  0.00    +0.000 OA
ATOM      4  N   UNL     1      -1.346  12.899  20.044  0.00  0.00    +0.000 N 
ATOM      5  C   UNL     1      -2.667  12.659  19.669  0.00  0.00    +0.000 A 
ATOM      6  O   UNL     1      -3.629  13.298  20.086  0.00  0.00    +0.000 OA
ATOM      7  C   UNL     1      -2.800  11.552  18.782  0.00  0.00    +0.000 A 
ATOM      8  C   UNL     1      -1.794  10.651  18.559  0.00  0.00    +0.000 A 
ATOM      9  N   UNL     1      -2.214   9.643  17.735  0.00  0.00    +0.000 NA
ATOM     10  C   UNL     1      -3.458   9.951  17.428  0.00  0.00    +0.000 A 
ATOM     11  N   UNL     1      -3.858  11.116  18.030  0.00  0.00    +0.000 N 
ENDROOT
BRANCH   1  17
ATOM     12  C   UNL     1       0.647   8.888  20.185  0.00  0.00    +0.000 A 
ATOM     13  C   UNL     1       1.669   7.932  20.097  0.00  0.00    +0.000 A 
ATOM     14  C   UNL     1       2.464   7.851  18.956  0.00  0.00    +0.000 A 
ATOM     15  C   UNL     1       2.214   8.690  17.874  0.00  0.00    +0.000 A 
ATOM     16  C   UNL     1       1.168   9.617  17.930  0.00  0.00    +0.000 A 
ATOM     17  C   UNL     1       0.390   9.747  19.091  0.00  0.00    +0.000 A 
BRANCH  12  19
ATOM     18  C   UNL     1       0.385   9.362  22.486  0.00  0.00    +0.000 C 
ATOM     19  O   UNL     1      -0.212   8.944  21.260  0.00  0.00    +0.000 OA
ENDBRANCH  12  19
ENDBRANCH   1  17
BRANCH   4  20
ATOM     20  C   UNL     1      -1.094  14.075  20.864  0.00  0.00    +0.000 C 
BRANCH  20  21
ATOM     21  C   UNL     1      -1.826  14.102  22.193  0.00  0.00    +0.000 A 
ATOM     22  C   UNL     1      -2.505  15.266  22.589  0.00  0.00    +0.000 A 
ATOM     23  C   UNL     1      -3.316  15.271  23.725  0.00  0.00    +0.000 A 
ATOM     24  C   UNL     1      -3.451  14.115  24.488  0.00  0.00    +0.000 A 
ATOM     25  C   UNL     1      -2.749  12.962  24.132  0.00  0.00    +0.000 A 
ATOM     26  C   UNL     1      -1.939  12.954  22.992  0.00  0.00    +0.000 A 
ENDBRANCH  20  21
ENDBRANCH   4  20
BRANCH  11  27
ATOM     27  C   UNL     1      -5.169  11.730  17.890  0.00  0.00    +0.000 C 
BRANCH  27  28
ATOM     28  C   UNL     1      -6.110  11.276  18.978  0.00  0.00    +0.000 A 
ATOM     29  C   UNL     1      -6.636  12.197  19.900  0.00  0.00    +0.000 A 
ATOM     30  C   UNL     1      -7.536  11.786  20.889  0.00  0.00    +0.000 A 
ATOM     31  C   UNL     1      -7.916  10.449  20.971  0.00  0.00    +0.000 A 
ATOM     32  C   UNL     1      -7.393   9.535  20.067  0.00  0.00    +0.000 A 
ATOM     33  F   UNL     1      -7.755   8.247  20.146  0.00  0.00    +0.000 F 
ATOM     34  C   UNL     1      -6.498   9.932  19.076  0.00  0.00    +0.000 A 
ENDBRANCH  27  28
ENDBRANCH  11  27
TORSDOF 6
ENDMDL
MODEL 5
REMARK VINA RESULT:      -7.1      2.767      6.545
REMARK  Name = 
REMARK  7 active torsions:
REMARK  status: ('A' for Active; 'I' for Inactive)
REMARK    1  A    between atoms: C_1  and  O_2
REMARK    2  A    between atoms: O_2  and  C_3
REMARK    3  A    between atoms: C_8  and  N_9
REMARK    4  A    between atoms: N_12  and  C_13
REMARK    5  A    between atoms: C_13  and  C_14
REMARK    6  A    between atoms: N_26  and  C_27
REMARK    7  A    between atoms: C_27  and  C_28
REMARK                            x       y       z     vdW  Elec       q    Type
REMARK                         _______ _______ _______ _____ _____    ______ ____
ROOT
ATOM      1  N   UNL     1       1.666  13.335  19.963  0.00  0.00    +0.000 N 
ATOM      2  C   UNL     1       1.740  12.266  19.058  0.00  0.00    +0.000 A 
ATOM      3  O   UNL     1       2.571  12.224  18.141  0.00  0.00    +0.000 OA
ATOM      4  N   UNL     1       0.833  11.201  19.247  0.00  0.00    +0.000 N 
ATOM      5  C   UNL     1      -0.236  11.226  20.143  0.00  0.00    +0.000 A 
ATOM      6  O   UNL     1      -1.213  10.487  20.071  0.00  0.00    +0.000 OA
ATOM      7  C   UNL     1      -0.107  12.243  21.132  0.00  0.00    +0.000 A 
ATOM      8  C   UNL     1       0.804  13.260  21.042  0.00  0.00    +0.000 A 
ATOM      9  N   UNL     1       0.658  14.142  22.077  0.00  0.00    +0.000 NA
ATOM     10  C   UNL     1      -0.312  13.642  22.815  0.00  0.00    +0.000 A 
ATOM     11  N   UNL     1      -0.802  12.474  22.290  0.00  0.00    +0.000 N 
ENDROOT
BRANCH   1  17
ATOM     12  C   UNL     1       2.030  15.580  19.000  0.00  0.00    +0.000 A 
ATOM     13  C   UNL     1       2.881  16.670  18.767  0.00  0.00    +0.000 A 
ATOM     14  C   UNL     1       4.178  16.675  19.276  0.00  0.00    +0.000 A 
ATOM     15  C   UNL     1       4.619  15.614  20.063  0.00  0.00    +0.000 A 
ATOM     16  C   UNL     1       3.765  14.543  20.342  0.00  0.00    +0.000 A 
ATOM     17  C   UNL     1       2.473  14.498  19.795  0.00  0.00    +0.000 A 
BRANCH  12  19
ATOM     18  C   UNL     1      -0.129  16.509  19.256  0.00  0.00    +0.000 C 
ATOM     19  O   UNL     1       0.717  15.576  18.585  0.00  0.00    +0.000 OA
ENDBRANCH  12  19
ENDBRANCH   1  17
BRANCH   4  20
ATOM     20  C   UNL     1       0.846  10.130  18.263  0.00  0.00    +0.000 C 
BRANCH  20  21
ATOM     21  C   UNL     1       1.664   8.911  18.650  0.00  0.00    +0.000 A 
ATOM     22  C   UNL     1       1.476   8.320  19.910  0.00  0.00    +0.000 A 
ATOM     23  C   UNL     1       2.094   7.110  20.234  0.00  0.00    +0.000 A 
ATOM     24  C   UNL     1       2.918   6.480  19.306  0.00  0.00    +0.000 A 
ATOM     25  C   UNL     1       3.149   7.077  18.065  0.00  0.00    +0.000 A 
ATOM     26  C   UNL     1       2.528   8.286  17.738  0.00  0.00    +0.000 A 
ENDBRANCH  20  21
ENDBRANCH   4  20
BRANCH  11  27
ATOM     27  C   UNL     1      -1.870  11.673  22.866  0.00  0.00    +0.000 C 
BRANCH  27  28
ATOM     28  C   UNL     1      -3.199  12.382  22.784  0.00  0.00    +0.000 A 
ATOM     29  C   UNL     1      -3.878  12.768  23.953  0.00  0.00    +0.000 A 
ATOM     30  C   UNL     1      -5.094  13.457  23.881  0.00  0.00    +0.000 A 
ATOM     31  C   UNL     1      -5.646  13.764  22.639  0.00  0.00    +0.000 A 
ATOM     32  C   UNL     1      -4.982  13.379  21.483  0.00  0.00    +0.000 A 
ATOM     33  F   UNL     1      -5.513  13.670  20.289  0.00  0.00    +0.000 F 
ATOM     34  C   UNL     1      -3.770  12.694  21.542  0.00  0.00    +0.000 A 
ENDBRANCH  27  28
ENDBRANCH  11  27
TORSDOF 6
ENDMDL
MODEL 6
REMARK VINA RESULT:      -7.0      1.323      2.195
REMARK  Name = 
REMARK  7 active torsions:
REMARK  status: ('A' for Active; 'I' for Inactive)
REMARK    1  A    between atoms: C_1  and  O_2
REMARK    2  A    between atoms: O_2  and  C_3
REMARK    3  A    between atoms: C_8  and  N_9
REMARK    4  A    between atoms: N_12  and  C_13
REMARK    5  A    between atoms: C_13  and  C_14
REMARK    6  A    between atoms: N_26  and  C_27
REMARK    7  A    between atoms: C_27  and  C_28
REMARK                            x       y       z     vdW  Elec       q    Type
REMARK                         _______ _______ _______ _____ _____    ______ ____
ROOT
ATOM      1  N   UNL     1      -0.314  10.766  19.185  0.00  0.00    +0.000 N 
ATOM      2  C   UNL     1       0.059  11.947  19.844  0.00  0.00    +0.000 A 
ATOM      3  O   UNL     1       1.198  12.129  20.294  0.00  0.00    +0.000 OA
ATOM      4  N   UNL     1      -0.921  12.957  19.955  0.00  0.00    +0.000 N 
ATOM      5  C   UNL     1      -2.266  12.789  19.626  0.00  0.00    +0.000 A 
ATOM      6  O   UNL     1      -3.171  13.509  20.036  0.00  0.00    +0.000 OA
ATOM      7  C   UNL     1      -2.497  11.653  18.797  0.00  0.00    +0.000 A 
ATOM      8  C   UNL     1      -1.560  10.678  18.591  0.00  0.00    +0.000 A 
ATOM      9  N   UNL     1      -2.069   9.663  17.828  0.00  0.00    +0.000 NA
ATOM     10  C   UNL     1      -3.298  10.039  17.539  0.00  0.00    +0.000 A 
ATOM     11  N   UNL     1      -3.603  11.255  18.094  0.00  0.00    +0.000 N 
ENDROOT
BRANCH   1  17
ATOM     12  C   UNL     1       0.801   8.828  20.235  0.00  0.00    +0.000 A 
ATOM     13  C   UNL     1       1.754   7.802  20.167  0.00  0.00    +0.000 A 
ATOM     14  C   UNL     1       2.513   7.618  19.013  0.00  0.00    +0.000 A 
ATOM     15  C   UNL     1       2.292   8.425  17.900  0.00  0.00    +0.000 A 
ATOM     16  C   UNL     1       1.312   9.421  17.939  0.00  0.00    +0.000 A 
ATOM     17  C   UNL     1       0.574   9.654  19.109  0.00  0.00    +0.000 A 
BRANCH  12  19
ATOM     18  C   UNL     1       0.634   9.394  22.524  0.00  0.00    +0.000 C 
ATOM     19  O   UNL     1      -0.025   8.988  21.325  0.00  0.00    +0.000 OA
ENDBRANCH  12  19
ENDBRANCH   1  17
BRANCH   4  20
ATOM     20  C   UNL     1      -0.568  14.149  20.710  0.00  0.00    +0.000 C 
BRANCH  20  21
ATOM     21  C   UNL     1      -1.243  14.277  22.064  0.00  0.00    +0.000 A 
ATOM     22  C   UNL     1      -1.844  15.492  22.429  0.00  0.00    +0.000 A 
ATOM     23  C   UNL     1      -2.606  15.592  23.595  0.00  0.00    +0.000 A 
ATOM     24  C   UNL     1      -2.768  14.481  24.418  0.00  0.00    +0.000 A 
ATOM     25  C   UNL     1      -2.141  13.278  24.090  0.00  0.00    +0.000 A 
ATOM     26  C   UNL     1      -1.381  13.175  22.921  0.00  0.00    +0.000 A 
ENDBRANCH  20  21
ENDBRANCH   4  20
BRANCH  11  27
ATOM     27  C   UNL     1      -4.874  11.949  17.959  0.00  0.00    +0.000 C 
BRANCH  27  28
ATOM     28  C   UNL     1      -5.885  11.450  18.961  0.00  0.00    +0.000 A 
ATOM     29  C   UNL     1      -6.407  10.148  18.865  0.00  0.00    +0.000 A 
ATOM     30  C   UNL     1      -7.318   9.669  19.812  0.00  0.00    +0.000 A 
ATOM     31  C   UNL     1      -7.722  10.488  20.864  0.00  0.00    +0.000 A 
ATOM     32  C   UNL     1      -7.215  11.777  20.959  0.00  0.00    +0.000 A 
ATOM     33  F   UNL     1      -7.605  12.567  21.967  0.00  0.00    +0.000 F 
ATOM     34  C   UNL     1      -6.305  12.264  20.023  0.00  0.00    +0.000 A 
ENDBRANCH  27  28
ENDBRANCH  11  27
TORSDOF 6
ENDMDL
MODEL 7
REMARK VINA RESULT:      -6.9      8.080     10.933
REMARK  Name = 
REMARK  7 active torsions:
REMARK  status: ('A' for Active; 'I' for Inactive)
REMARK    1  A    between atoms: C_1  and  O_2
REMARK    2  A    between atoms: O_2  and  C_3
REMARK    3  A    between atoms: C_8  and  N_9
REMARK    4  A    between atoms: N_12  and  C_13
REMARK    5  A    between atoms: C_13  and  C_14
REMARK    6  A    between atoms: N_26  and  C_27
REMARK    7  A    between atoms: C_27  and  C_28
REMARK                            x       y       z     vdW  Elec       q    Type
REMARK                         _______ _______ _______ _____ _____    ______ ____
ROOT
ATOM      1  N   UNL     1       8.299  14.373  19.229  0.00  0.00    +0.000 N 
ATOM      2  C   UNL     1       7.038  14.737  18.737  0.00  0.00    +0.000 A 
ATOM      3  O   UNL     1       6.751  14.688  17.533  0.00  0.00    +0.000 OA
ATOM      4  N   UNL     1       6.073  15.145  19.683  0.00  0.00    +0.000 N 
ATOM      5  C   UNL     1       6.342  15.384  21.030  0.00  0.00    +0.000 A 
ATOM      6  O   UNL     1       5.629  16.059  21.766  0.00  0.00    +0.000 OA
ATOM      7  C   UNL     1       7.570  14.805  21.461  0.00  0.00    +0.000 A 
ATOM      8  C   UNL     1       8.514  14.325  20.594  0.00  0.00    +0.000 A 
ATOM      9  N   UNL     1       9.628  13.905  21.267  0.00  0.00    +0.000 NA
ATOM     10  C   UNL     1       9.348  14.093  22.541  0.00  0.00    +0.000 A 
ATOM     11  N   UNL     1       8.096  14.626  22.714  0.00  0.00    +0.000 N 
ENDROOT
BRANCH   1  17
ATOM     12  C   UNL     1       9.702  12.692  18.085  0.00  0.00    +0.000 A 
ATOM     13  C   UNL     1      10.818  12.390  17.292  0.00  0.00    +0.000 A 
ATOM     14  C   UNL     1      11.628  13.409  16.794  0.00  0.00    +0.000 A 
ATOM     15  C   UNL     1      11.302  14.740  17.043  0.00  0.00    +0.000 A 
ATOM     16  C   UNL     1      10.165  15.056  17.793  0.00  0.00    +0.000 A 
ATOM     17  C   UNL     1       9.367  14.042  18.345  0.00  0.00    +0.000 A 
BRANCH  12  19
ATOM     18  C   UNL     1       9.418  10.717  19.353  0.00  0.00    +0.000 C 
ATOM     19  O   UNL     1       8.831  11.720  18.524  0.00  0.00    +0.000 OA
ENDBRANCH  12  19
ENDBRANCH   1  17
BRANCH   4  20
ATOM     20  C   UNL     1       4.790  15.605  19.173  0.00  0.00    +0.000 C 
BRANCH  20  21
ATOM     21  C   UNL     1       3.668  14.585  19.240  0.00  0.00    +0.000 A 
ATOM     22  C   UNL     1       3.351  13.824  18.103  0.00  0.00    +0.000 A 
ATOM     23  C   UNL     1       2.437  12.771  18.177  0.00  0.00    +0.000 A 
ATOM     24  C   UNL     1       1.816  12.473  19.387  0.00  0.00    +0.000 A 
ATOM     25  C   UNL     1       2.088  13.247  20.516  0.00  0.00    +0.000 A 
ATOM     26  C   UNL     1       3.007  14.299  20.445  0.00  0.00    +0.000 A 
ENDBRANCH  20  21
ENDBRANCH   4  20
BRANCH  11  27
ATOM     27  C   UNL     1       7.486  14.947  23.994  0.00  0.00    +0.000 C 
BRANCH  27  28
ATOM     28  C   UNL     1       7.200  13.701  24.796  0.00  0.00    +0.000 A 
ATOM     29  C   UNL     1       7.733  13.542  26.087  0.00  0.00    +0.000 A 
ATOM     30  C   UNL     1       7.441  12.405  26.847  0.00  0.00    +0.000 A 
ATOM     31  C   UNL     1       6.617  11.411  26.324  0.00  0.00    +0.000 A 
ATOM     32  C   UNL     1       6.094  11.561  25.047  0.00  0.00    +0.000 A 
ATOM     33  F   UNL     1       5.305  10.605  24.541  0.00  0.00    +0.000 F 
ATOM     34  C   UNL     1       6.376  12.690  24.281  0.00  0.00    +0.000 A 
ENDBRANCH  27  28
ENDBRANCH  11  27
TORSDOF 6
ENDMDL
MODEL 8
REMARK VINA RESULT:      -6.9      7.478     11.320
REMARK  Name = 
REMARK  7 active torsions:
REMARK  status: ('A' for Active; 'I' for Inactive)
REMARK    1  A    between atoms: C_1  and  O_2
REMARK    2  A    between atoms: O_2  and  C_3
REMARK    3  A    between atoms: C_8  and  N_9
REMARK    4  A    between atoms: N_12  and  C_13
REMARK    5  A    between atoms: C_13  and  C_14
REMARK    6  A    between atoms: N_26  and  C_27
REMARK    7  A    between atoms: C_27  and  C_28
REMARK                            x       y       z     vdW  Elec       q    Type
REMARK                         _______ _______ _______ _____ _____    ______ ____
ROOT
ATOM      1  N   UNL     1       3.998  14.682  20.163  0.00  0.00    +0.000 N 
ATOM      2  C   UNL     1       4.185  14.722  21.552  0.00  0.00    +0.000 A 
ATOM      3  O   UNL     1       3.258  14.550  22.356  0.00  0.00    +0.000 OA
ATOM      4  N   UNL     1       5.500  14.943  22.017  0.00  0.00    +0.000 N 
ATOM      5  C   UNL     1       6.573  15.303  21.202  0.00  0.00    +0.000 A 
ATOM      6  O   UNL     1       7.602  15.831  21.612  0.00  0.00    +0.000 OA
ATOM      7  C   UNL     1       6.334  15.043  19.822  0.00  0.00    +0.000 A 
ATOM      8  C   UNL     1       5.094  14.750  19.322  0.00  0.00    +0.000 A 
ATOM      9  N   UNL     1       5.131  14.631  17.960  0.00  0.00    +0.000 NA
ATOM     10  C   UNL     1       6.395  14.812  17.637  0.00  0.00    +0.000 A 
ATOM     11  N   UNL     1       7.174  15.051  18.740  0.00  0.00    +0.000 N 
ENDROOT
BRANCH   1  17
ATOM     12  C   UNL     1       1.894  15.706  19.371  0.00  0.00    +0.000 A 
ATOM     13  C   UNL     1       0.578  15.557  18.911  0.00  0.00    +0.000 A 
ATOM     14  C   UNL     1       0.036  14.288  18.719  0.00  0.00    +0.000 A 
ATOM     15  C   UNL     1       0.819  13.158  18.939  0.00  0.00    +0.000 A 
ATOM     16  C   UNL     1       2.148  13.293  19.353  0.00  0.00    +0.000 A 
ATOM     17  C   UNL     1       2.694  14.562  19.600  0.00  0.00    +0.000 A 
BRANCH  12  19
ATOM     18  C   UNL     1       1.766  17.886  20.278  0.00  0.00    +0.000 C 
ATOM     19  O   UNL     1       2.492  16.941  19.493  0.00  0.00    +0.000 OA
ENDBRANCH  12  19
ENDBRANCH   1  17
BRANCH   4  20
ATOM     20  C   UNL     1       5.688  15.070  23.454  0.00  0.00    +0.000 C 
BRANCH  20  21
ATOM     21  C   UNL     1       6.533  13.982  24.091  0.00  0.00    +0.000 A 
ATOM     22  C   UNL     1       6.347  12.644  23.709  0.00  0.00    +0.000 A 
ATOM     23  C   UNL     1       7.212  11.643  24.156  0.00  0.00    +0.000 A 
ATOM     24  C   UNL     1       8.270  11.966  25.002  0.00  0.00    +0.000 A 
ATOM     25  C   UNL     1       8.443  13.284  25.425  0.00  0.00    +0.000 A 
ATOM     26  C   UNL     1       7.580  14.288  24.975  0.00  0.00    +0.000 A 
ENDBRANCH  20  21
ENDBRANCH   4  20
BRANCH  11  27
ATOM     27  C   UNL     1       8.609  15.285  18.724  0.00  0.00    +0.000 C 
BRANCH  27  28
ATOM     28  C   UNL     1       9.380  13.988  18.775  0.00  0.00    +0.000 A 
ATOM     29  C   UNL     1       9.830  13.376  17.592  0.00  0.00    +0.000 A 
ATOM     30  C   UNL     1      10.575  12.193  17.637  0.00  0.00    +0.000 A 
ATOM     31  C   UNL     1      10.874  11.605  18.864  0.00  0.00    +0.000 A 
ATOM     32  C   UNL     1      10.425  12.204  20.034  0.00  0.00    +0.000 A 
ATOM     33  F   UNL     1      10.708  11.638  21.215  0.00  0.00    +0.000 F 
ATOM     34  C   UNL     1       9.684  13.383  20.003  0.00  0.00    +0.000 A 
ENDBRANCH  27  28
ENDBRANCH  11  27
TORSDOF 6
ENDMDL
MODEL 9
REMARK VINA RESULT:      -6.9      7.440     11.276
REMARK  Name = 
REMARK  7 active torsions:
REMARK  status: ('A' for Active; 'I' for Inactive)
REMARK    1  A    between atoms: C_1  and  O_2
REMARK    2  A    between atoms: O_2  and  C_3
REMARK    3  A    between atoms: C_8  and  N_9
REMARK    4  A    between atoms: N_12  and  C_13
REMARK    5  A    between atoms: C_13  and  C_14
REMARK    6  A    between atoms: N_26  and  C_27
REMARK    7  A    between atoms: C_27  and  C_28
REMARK                            x       y       z     vdW  Elec       q    Type
REMARK                         _______ _______ _______ _____ _____    ______ ____
ROOT
ATOM      1  N   UNL     1       3.876  14.653  20.191  0.00  0.00    +0.000 N 
ATOM      2  C   UNL     1       4.023  14.659  21.586  0.00  0.00    +0.000 A 
ATOM      3  O   UNL     1       3.073  14.468  22.358  0.00  0.00    +0.000 OA
ATOM      4  N   UNL     1       5.323  14.866  22.093  0.00  0.00    +0.000 N 
ATOM      5  C   UNL     1       6.420  15.245  21.319  0.00  0.00    +0.000 A 
ATOM      6  O   UNL     1       7.437  15.762  21.771  0.00  0.00    +0.000 OA
ATOM      7  C   UNL     1       6.221  15.019  19.927  0.00  0.00    +0.000 A 
ATOM      8  C   UNL     1       4.996  14.741  19.384  0.00  0.00    +0.000 A 
ATOM      9  N   UNL     1       5.072  14.655  18.021  0.00  0.00    +0.000 NA
ATOM     10  C   UNL     1       6.345  14.842  17.739  0.00  0.00    +0.000 A 
ATOM     11  N   UNL     1       7.092  15.053  18.870  0.00  0.00    +0.000 N 
ENDROOT
BRANCH   1  17
ATOM     12  C   UNL     1       1.791  15.697  19.377  0.00  0.00    +0.000 A 
ATOM     13  C   UNL     1       0.489  15.560  18.875  0.00  0.00    +0.000 A 
ATOM     14  C   UNL     1      -0.042  14.296  18.623  0.00  0.00    +0.000 A 
ATOM     15  C   UNL     1       0.740  13.162  18.825  0.00  0.00    +0.000 A 
ATOM     16  C   UNL     1       2.055  13.288  19.281  0.00  0.00    +0.000 A 
ATOM     17  C   UNL     1       2.589  14.549  19.587  0.00  0.00    +0.000 A 
BRANCH  12  19
ATOM     18  C   UNL     1       1.485  18.039  19.484  0.00  0.00    +0.000 C 
ATOM     19  O   UNL     1       2.379  16.929  19.558  0.00  0.00    +0.000 OA
ENDBRANCH  12  19
ENDBRANCH   1  17
BRANCH   4  20
ATOM     20  C   UNL     1       5.470  14.958  23.538  0.00  0.00    +0.000 C 
BRANCH  20  21
ATOM     21  C   UNL     1       6.401  13.932  24.157  0.00  0.00    +0.000 A 
ATOM     22  C   UNL     1       6.298  12.583  23.780  0.00  0.00    +0.000 A 
ATOM     23  C   UNL     1       7.239  11.645  24.209  0.00  0.00    +0.000 A 
ATOM     24  C   UNL     1       8.291  12.040  25.030  0.00  0.00    +0.000 A 
ATOM     25  C   UNL     1       8.383  13.369  25.448  0.00  0.00    +0.000 A 
ATOM     26  C   UNL     1       7.444  14.310  25.016  0.00  0.00    +0.000 A 
ENDBRANCH  20  21
ENDBRANCH   4  20
BRANCH  11  27
ATOM     27  C   UNL     1       8.527  15.285  18.902  0.00  0.00    +0.000 C 
BRANCH  27  28
ATOM     28  C   UNL     1       9.287  14.009  19.167  0.00  0.00    +0.000 A 
ATOM     29  C   UNL     1       9.696  13.677  20.470  0.00  0.00    +0.000 A 
ATOM     30  C   UNL     1      10.370  12.478  20.726  0.00  0.00    +0.000 A 
ATOM     31  C   UNL     1      10.648  11.600  19.680  0.00  0.00    +0.000 A 
ATOM     32  C   UNL     1      10.252  11.928  18.391  0.00  0.00    +0.000 A 
ATOM     33  F   UNL     1      10.522  11.087  17.384  0.00  0.00    +0.000 F 
ATOM     34  C   UNL     1       9.578  13.118  18.124  0.00  0.00    +0.000 A 
ENDBRANCH  27  28
ENDBRANCH  11  27
TORSDOF 6
ENDMDL
