MODEL 1
REMARK VINA RESULT:      -6.5      0.000      0.000
REMARK  Name = 
REMARK  9 active torsions:
REMARK  status: ('A' for Active; 'I' for Inactive)
REMARK    1  A    between atoms: C_1  and  C_2
REMARK    2  A    between atoms: C_2  and  O_3
REMARK    3  A    between atoms: O_3  and  C_4
REMARK    4  A    between atoms: C_4  and  C_6
REMARK    5  A    between atoms: C_6  and  C_7
REMARK    6  A    between atoms: C_15  and  C_16
REMARK    7  A    between atoms: C_16  and  N_17
REMARK    8  A    between atoms: N_17  and  C_18
REMARK    9  A    between atoms: N_17  and  C_19
REMARK                            x       y       z     vdW  Elec       q    Type
REMARK                         _______ _______ _______ _____ _____    ______ ____
ROOT
ATOM      1  C   UNL     1       4.834   5.139  18.037  0.00  0.00    +0.000 C 
ATOM      2  C   UNL     1       4.835   4.714  16.560  0.00  0.00    +0.000 C 
ATOM      3  C   UNL     1       4.340   3.738  17.619  0.00  0.00    +0.000 C 
ENDROOT
BRANCH   1   4
ATOM      4  C   UNL     1       3.814   6.191  18.384  0.00  0.00    +0.000 A 
ATOM      5  C   UNL     1       3.579   7.279  17.528  0.00  0.00    +0.000 A 
ATOM      6  C   UNL     1       2.619   8.238  17.859  0.00  0.00    +0.000 A 
ATOM      7  C   UNL     1       1.896   8.125  19.053  0.00  0.00    +0.000 A 
ATOM      8  F   UNL     1       0.960   9.053  19.370  0.00  0.00    +0.000 F 
ATOM      9  C   UNL     1       2.138   7.054  19.917  0.00  0.00    +0.000 A 
ATOM     10  C   UNL     1       3.095   6.093  19.588  0.00  0.00    +0.000 A 
ENDBRANCH   1   4
BRANCH   1  11
ATOM     11  C   UNL     1       6.241   5.361  18.525  0.00  0.00    +0.000 C 
ATOM     12  O   UNL     1       6.535   5.045  19.671  0.00  0.00    +0.000 OA
BRANCH  11  13
ATOM     13  O   UNL     1       7.209   5.743  17.646  0.00  0.00    +0.000 OA
BRANCH  13  15
ATOM     14  C   UNL     1       8.146   7.898  18.173  0.00  0.00    +0.000 C 
ATOM     15  C   UNL     1       7.367   7.039  17.182  0.00  0.00    +0.000 C 
ENDBRANCH  13  15
ENDBRANCH  11  13
ENDBRANCH   1  11
BRANCH   3  16
ATOM     16  C   UNL     1       2.831   3.428  17.411  0.00  0.00    +0.000 C 
BRANCH  16  17
ATOM     17  N   UNL     1       2.351   2.342  18.295  0.00  0.00    +0.000 NA
ATOM     18  C   UNL     1       3.165   2.207  19.512  0.00  0.00    +0.000 C 
ATOM     19  C   UNL     1       0.943   2.576  18.663  0.00  0.00    +0.000 C 
ENDBRANCH  16  17
ENDBRANCH   3  16
TORSDOF 6
ENDMDL
MODEL 2
REMARK VINA RESULT:      -6.5      0.227      1.135
REMARK  Name = 
REMARK  9 active torsions:
REMARK  status: ('A' for Active; 'I' for Inactive)
REMARK    1  A    between atoms: C_1  and  C_2
REMARK    2  A    between atoms: C_2  and  O_3
REMARK    3  A    between atoms: O_3  and  C_4
REMARK    4  A    between atoms: C_4  and  C_6
REMARK    5  A    between atoms: C_6  and  C_7
REMARK    6  A    between atoms: C_15  and  C_16
REMARK    7  A    between atoms: C_16  and  N_17
REMARK    8  A    between atoms: N_17  and  C_18
REMARK    9  A    between atoms: N_17  and  C_19
REMARK                            x       y       z     vdW  Elec       q    Type
REMARK                         _______ _______ _______ _____ _____    ______ ____
ROOT
ATOM      1  C   UNL     1       4.883   5.114  17.882  0.00  0.00    +0.000 C 
ATOM      2  C   UNL     1       4.882   4.802  16.378  0.00  0.00    +0.000 C 
ATOM      3  C   UNL     1       4.393   3.747  17.361  0.00  0.00    +0.000 C 
ENDROOT
BRANCH   1   4
ATOM      4  C   UNL     1       3.860   6.134  18.311  0.00  0.00    +0.000 A 
ATOM      5  C   UNL     1       3.173   5.997  19.527  0.00  0.00    +0.000 A 
ATOM      6  C   UNL     1       2.238   6.960  19.916  0.00  0.00    +0.000 A 
ATOM      7  C   UNL     1       1.974   8.057  19.088  0.00  0.00    +0.000 A 
ATOM      8  F   UNL     1       1.071   8.994  19.469  0.00  0.00    +0.000 F 
ATOM      9  C   UNL     1       2.643   8.189  17.868  0.00  0.00    +0.000 A 
ATOM     10  C   UNL     1       3.579   7.230  17.478  0.00  0.00    +0.000 A 
ENDBRANCH   1   4
BRANCH   1  11
ATOM     11  C   UNL     1       6.291   5.303  18.383  0.00  0.00    +0.000 C 
ATOM     12  O   UNL     1       6.614   4.820  19.460  0.00  0.00    +0.000 OA
BRANCH  11  13
ATOM     13  O   UNL     1       7.231   5.852  17.564  0.00  0.00    +0.000 OA
BRANCH  13  15
ATOM     14  C   UNL     1       8.250   7.897  18.326  0.00  0.00    +0.000 C 
ATOM     15  C   UNL     1       7.341   7.211  17.312  0.00  0.00    +0.000 C 
ENDBRANCH  13  15
ENDBRANCH  11  13
ENDBRANCH   1  11
BRANCH   3  16
ATOM     16  C   UNL     1       2.884   3.449  17.134  0.00  0.00    +0.000 C 
BRANCH  16  17
ATOM     17  N   UNL     1       2.394   2.339  17.982  0.00  0.00    +0.000 NA
ATOM     18  C   UNL     1       3.343   1.986  19.049  0.00  0.00    +0.000 C 
ATOM     19  C   UNL     1       1.091   2.694  18.575  0.00  0.00    +0.000 C 
ENDBRANCH  16  17
ENDBRANCH   3  16
TORSDOF 6
ENDMDL
MODEL 3
REMARK VINA RESULT:      -6.5      2.735      4.286
REMARK  Name = 
REMARK  9 active torsions:
REMARK  status: ('A' for Active; 'I' for Inactive)
REMARK    1  A    between atoms: C_1  and  C_2
REMARK    2  A    between atoms: C_2  and  O_3
REMARK    3  A    between atoms: O_3  and  C_4
REMARK    4  A    between atoms: C_4  and  C_6
REMARK    5  A    between atoms: C_6  and  C_7
REMARK    6  A    between atoms: C_15  and  C_16
REMARK    7  A    between atoms: C_16  and  N_17
REMARK    8  A    between atoms: N_17  and  C_18
REMARK    9  A    between atoms: N_17  and  C_19
REMARK                            x       y       z     vdW  Elec       q    Type
REMARK                         _______ _______ _______ _____ _____    ______ ____
ROOT
ATOM      1  C   UNL     1       5.493   4.873  17.156  0.00  0.00    +0.000 C 
ATOM      2  C   UNL     1       5.395   6.052  16.176  0.00  0.00    +0.000 C 
ATOM      3  C   UNL     1       6.050   4.754  15.722  0.00  0.00    +0.000 C 
ENDROOT
BRANCH   1   4
ATOM      4  C   UNL     1       4.176   4.215  17.477  0.00  0.00    +0.000 A 
ATOM      5  C   UNL     1       4.081   2.820  17.609  0.00  0.00    +0.000 A 
ATOM      6  C   UNL     1       2.854   2.228  17.922  0.00  0.00    +0.000 A 
ATOM      7  C   UNL     1       1.714   3.022  18.092  0.00  0.00    +0.000 A 
ATOM      8  F   UNL     1       0.526   2.446  18.401  0.00  0.00    +0.000 F 
ATOM      9  C   UNL     1       1.801   4.409  17.945  0.00  0.00    +0.000 A 
ATOM     10  C   UNL     1       3.024   5.004  17.635  0.00  0.00    +0.000 A 
ENDBRANCH   1   4
BRANCH   1  11
ATOM     11  C   UNL     1       6.386   5.222  18.317  0.00  0.00    +0.000 C 
ATOM     12  O   UNL     1       6.057   4.889  19.448  0.00  0.00    +0.000 OA
BRANCH  11  13
ATOM     13  O   UNL     1       7.622   5.745  18.085  0.00  0.00    +0.000 OA
BRANCH  13  15
ATOM     14  C   UNL     1       7.870   8.109  17.700  0.00  0.00    +0.000 C 
ATOM     15  C   UNL     1       8.080   6.929  18.642  0.00  0.00    +0.000 C 
ENDBRANCH  13  15
ENDBRANCH  11  13
ENDBRANCH   1  11
BRANCH   3  16
ATOM     16  C   UNL     1       5.228   4.102  14.574  0.00  0.00    +0.000 C 
BRANCH  16  17
ATOM     17  N   UNL     1       6.084   3.650  13.454  0.00  0.00    +0.000 NA
ATOM     18  C   UNL     1       5.319   3.410  12.222  0.00  0.00    +0.000 C 
ATOM     19  C   UNL     1       7.143   4.643  13.195  0.00  0.00    +0.000 C 
ENDBRANCH  16  17
ENDBRANCH   3  16
TORSDOF 6
ENDMDL
MODEL 4
REMARK VINA RESULT:      -6.4      3.064      5.460
REMARK  Name = 
REMARK  9 active torsions:
REMARK  status: ('A' for Active; 'I' for Inactive)
REMARK    1  A    between atoms: C_1  and  C_2
REMARK    2  A    between atoms: C_2  and  O_3
REMARK    3  A    between atoms: O_3  and  C_4
REMARK    4  A    between atoms: C_4  and  C_6
REMARK    5  A    between atoms: C_6  and  C_7
REMARK    6  A    between atoms: C_15  and  C_16
REMARK    7  A    between atoms: C_16  and  N_17
REMARK    8  A    between atoms: N_17  and  C_18
REMARK    9  A    between atoms: N_17  and  C_19
REMARK                            x       y       z     vdW  Elec       q    Type
REMARK                         _______ _______ _______ _____ _____    ______ ____
ROOT
ATOM      1  C   UNL     1       3.964   4.527  18.292  0.00  0.00    +0.000 C 
ATOM      2  C   UNL     1       2.497   4.571  17.837  0.00  0.00    +0.000 C 
ATOM      3  C   UNL     1       3.056   5.714  18.674  0.00  0.00    +0.000 C 
ENDROOT
BRANCH   1   4
ATOM      4  C   UNL     1       4.969   4.711  17.185  0.00  0.00    +0.000 A 
ATOM      5  C   UNL     1       6.141   5.455  17.392  0.00  0.00    +0.000 A 
ATOM      6  C   UNL     1       7.069   5.604  16.358  0.00  0.00    +0.000 A 
ATOM      7  C   UNL     1       6.827   5.021  15.109  0.00  0.00    +0.000 A 
ATOM      8  F   UNL     1       7.731   5.161  14.108  0.00  0.00    +0.000 F 
ATOM      9  C   UNL     1       5.654   4.294  14.892  0.00  0.00    +0.000 A 
ATOM     10  C   UNL     1       4.726   4.142  15.924  0.00  0.00    +0.000 A 
ENDBRANCH   1   4
BRANCH   1  11
ATOM     11  C   UNL     1       4.190   3.377  19.239  0.00  0.00    +0.000 C 
ATOM     12  O   UNL     1       5.306   3.199  19.710  0.00  0.00    +0.000 OA
BRANCH  11  13
ATOM     13  O   UNL     1       3.127   2.659  19.696  0.00  0.00    +0.000 OA
BRANCH  13  15
ATOM     14  C   UNL     1       1.284   3.251  21.130  0.00  0.00    +0.000 C 
ATOM     15  C   UNL     1       2.690   2.672  21.012  0.00  0.00    +0.000 C 
ENDBRANCH  13  15
ENDBRANCH  11  13
ENDBRANCH   1  11
BRANCH   3  16
ATOM     16  C   UNL     1       3.051   7.038  17.859  0.00  0.00    +0.000 C 
BRANCH  16  17
ATOM     17  N   UNL     1       2.532   8.182  18.643  0.00  0.00    +0.000 NA
ATOM     18  C   UNL     1       1.555   8.983  17.890  0.00  0.00    +0.000 C 
ATOM     19  C   UNL     1       1.918   7.699  19.893  0.00  0.00    +0.000 C 
ENDBRANCH  16  17
ENDBRANCH   3  16
TORSDOF 6
ENDMDL
MODEL 5
REMARK VINA RESULT:      -6.4      2.772      4.239
REMARK  Name = 
REMARK  9 active torsions:
REMARK  status: ('A' for Active; 'I' for Inactive)
REMARK    1  A    between atoms: C_1  and  C_2
REMARK    2  A    between atoms: C_2  and  O_3
REMARK    3  A    between atoms: O_3  and  C_4
REMARK    4  A    between atoms: C_4  and  C_6
REMARK    5  A    between atoms: C_6  and  C_7
REMARK    6  A    between atoms: C_15  and  C_16
REMARK    7  A    between atoms: C_16  and  N_17
REMARK    8  A    between atoms: N_17  and  C_18
REMARK    9  A    between atoms: N_17  and  C_19
REMARK                            x       y       z     vdW  Elec       q    Type
REMARK                         _______ _______ _______ _____ _____    ______ ____
ROOT
ATOM      1  C   UNL     1       5.315   4.945  17.302  0.00  0.00    +0.000 C 
ATOM      2  C   UNL     1       5.173   6.096  16.295  0.00  0.00    +0.000 C 
ATOM      3  C   UNL     1       5.921   4.833  15.888  0.00  0.00    +0.000 C 
ENDROOT
BRANCH   1   4
ATOM      4  C   UNL     1       4.033   4.211  17.600  0.00  0.00    +0.000 A 
ATOM      5  C   UNL     1       2.813   4.900  17.690  0.00  0.00    +0.000 A 
ATOM      6  C   UNL     1       1.632   4.202  17.953  0.00  0.00    +0.000 A 
ATOM      7  C   UNL     1       1.662   2.815  18.139  0.00  0.00    +0.000 A 
ATOM      8  F   UNL     1       0.514   2.138  18.388  0.00  0.00    +0.000 F 
ATOM      9  C   UNL     1       2.877   2.127  18.068  0.00  0.00    +0.000 A 
ATOM     10  C   UNL     1       4.058   2.822  17.804  0.00  0.00    +0.000 A 
ENDBRANCH   1   4
BRANCH   1  11
ATOM     11  C   UNL     1       6.150   5.372  18.481  0.00  0.00    +0.000 C 
ATOM     12  O   UNL     1       6.528   4.529  19.285  0.00  0.00    +0.000 OA
BRANCH  11  13
ATOM     13  O   UNL     1       6.620   6.648  18.548  0.00  0.00    +0.000 OA
BRANCH  13  15
ATOM     14  C   UNL     1       8.050   8.407  17.734  0.00  0.00    +0.000 C 
ATOM     15  C   UNL     1       7.941   7.002  18.316  0.00  0.00    +0.000 C 
ENDBRANCH  13  15
ENDBRANCH  11  13
ENDBRANCH   1  11
BRANCH   3  16
ATOM     16  C   UNL     1       5.176   4.109  14.731  0.00  0.00    +0.000 C 
BRANCH  16  17
ATOM     17  N   UNL     1       6.091   3.695  13.643  0.00  0.00    +0.000 NA
ATOM     18  C   UNL     1       5.385   3.453  12.376  0.00  0.00    +0.000 C 
ATOM     19  C   UNL     1       7.133   4.718  13.443  0.00  0.00    +0.000 C 
ENDBRANCH  16  17
ENDBRANCH   3  16
TORSDOF 6
ENDMDL
MODEL 6
REMARK VINA RESULT:      -6.3      2.517      4.695
REMARK  Name = 
REMARK  9 active torsions:
REMARK  status: ('A' for Active; 'I' for Inactive)
REMARK    1  A    between atoms: C_1  and  C_2
REMARK    2  A    between atoms: C_2  and  O_3
REMARK    3  A    between atoms: O_3  and  C_4
REMARK    4  A    between atoms: C_4  and  C_6
REMARK    5  A    between atoms: C_6  and  C_7
REMARK    6  A    between atoms: C_15  and  C_16
REMARK    7  A    between atoms: C_16  and  N_17
REMARK    8  A    between atoms: N_17  and  C_18
REMARK    9  A    between atoms: N_17  and  C_19
REMARK                            x       y       z     vdW  Elec       q    Type
REMARK                         _______ _______ _______ _____ _____    ______ ____
ROOT
ATOM      1  C   UNL     1       2.989   5.136  18.364  0.00  0.00    +0.000 C 
ATOM      2  C   UNL     1       4.199   4.675  19.191  0.00  0.00    +0.000 C 
ATOM      3  C   UNL     1       4.387   5.024  17.721  0.00  0.00    +0.000 C 
ENDROOT
BRANCH   1   4
ATOM      4  C   UNL     1       2.467   6.501  18.725  0.00  0.00    +0.000 A 
ATOM      5  C   UNL     1       2.161   6.827  20.056  0.00  0.00    +0.000 A 
ATOM      6  C   UNL     1       1.690   8.104  20.375  0.00  0.00    +0.000 A 
ATOM      7  C   UNL     1       1.511   9.058  19.367  0.00  0.00    +0.000 A 
ATOM      8  F   UNL     1       1.060  10.298  19.679  0.00  0.00    +0.000 F 
ATOM      9  C   UNL     1       1.797   8.733  18.039  0.00  0.00    +0.000 A 
ATOM     10  C   UNL     1       2.269   7.460  17.717  0.00  0.00    +0.000 A 
ENDBRANCH   1   4
BRANCH   1  11
ATOM     11  C   UNL     1       1.979   4.025  18.241  0.00  0.00    +0.000 C 
ATOM     12  O   UNL     1       1.278   3.961  17.239  0.00  0.00    +0.000 OA
BRANCH  11  13
ATOM     13  O   UNL     1       1.973   3.013  19.152  0.00  0.00    +0.000 OA
BRANCH  13  15
ATOM     14  C   UNL     1       1.815   3.061  21.555  0.00  0.00    +0.000 C 
ATOM     15  C   UNL     1       1.091   2.935  20.219  0.00  0.00    +0.000 C 
ENDBRANCH  13  15
ENDBRANCH  11  13
ENDBRANCH   1  11
BRANCH   3  16
ATOM     16  C   UNL     1       5.321   6.257  17.569  0.00  0.00    +0.000 C 
BRANCH  16  17
ATOM     17  N   UNL     1       6.718   5.958  17.958  0.00  0.00    +0.000 NA
ATOM     18  C   UNL     1       7.273   4.811  17.224  0.00  0.00    +0.000 C 
ATOM     19  C   UNL     1       7.567   7.144  17.741  0.00  0.00    +0.000 C 
ENDBRANCH  16  17
ENDBRANCH   3  16
TORSDOF 6
ENDMDL
MODEL 7
REMARK VINA RESULT:      -6.3      2.465      4.561
REMARK  Name = 
REMARK  9 active torsions:
REMARK  status: ('A' for Active; 'I' for Inactive)
REMARK    1  A    between atoms: C_1  and  C_2
REMARK    2  A    between atoms: C_2  and  O_3
REMARK    3  A    between atoms: O_3  and  C_4
REMARK    4  A    between atoms: C_4  and  C_6
REMARK    5  A    between atoms: C_6  and  C_7
REMARK    6  A    between atoms: C_15  and  C_16
REMARK    7  A    between atoms: C_16  and  N_17
REMARK    8  A    between atoms: N_17  and  C_18
REMARK    9  A    between atoms: N_17  and  C_19
REMARK                            x       y       z     vdW  Elec       q    Type
REMARK                         _______ _______ _______ _____ _____    ______ ____
ROOT
ATOM      1  C   UNL     1       3.070   5.093  18.274  0.00  0.00    +0.000 C 
ATOM      2  C   UNL     1       4.206   4.577  19.171  0.00  0.00    +0.000 C 
ATOM      3  C   UNL     1       4.512   4.985  17.736  0.00  0.00    +0.000 C 
ENDROOT
BRANCH   1   4
ATOM      4  C   UNL     1       2.539   6.450  18.653  0.00  0.00    +0.000 A 
ATOM      5  C   UNL     1       2.364   7.452  17.684  0.00  0.00    +0.000 A 
ATOM      6  C   UNL     1       1.857   8.701  18.052  0.00  0.00    +0.000 A 
ATOM      7  C   UNL     1       1.533   8.962  19.388  0.00  0.00    +0.000 A 
ATOM      8  F   UNL     1       1.035  10.173  19.742  0.00  0.00    +0.000 F 
ATOM      9  C   UNL     1       1.721   7.974  20.358  0.00  0.00    +0.000 A 
ATOM     10  C   UNL     1       2.226   6.725  19.995  0.00  0.00    +0.000 A 
ENDBRANCH   1   4
BRANCH   1  11
ATOM     11  C   UNL     1       2.058   4.005  18.024  0.00  0.00    +0.000 C 
ATOM     12  O   UNL     1       1.145   4.206  17.233  0.00  0.00    +0.000 OA
BRANCH  11  13
ATOM     13  O   UNL     1       2.261   2.762  18.541  0.00  0.00    +0.000 OA
BRANCH  13  15
ATOM     14  C   UNL     1       1.072   3.155  20.597  0.00  0.00    +0.000 C 
ATOM     15  C   UNL     1       1.442   2.173  19.491  0.00  0.00    +0.000 C 
ENDBRANCH  13  15
ENDBRANCH  11  13
ENDBRANCH   1  11
BRANCH   3  16
ATOM     16  C   UNL     1       5.472   6.208  17.711  0.00  0.00    +0.000 C 
BRANCH  16  17
ATOM     17  N   UNL     1       6.845   5.856  18.139  0.00  0.00    +0.000 NA
ATOM     18  C   UNL     1       7.386   4.705  17.401  0.00  0.00    +0.000 C 
ATOM     19  C   UNL     1       7.738   7.017  17.972  0.00  0.00    +0.000 C 
ENDBRANCH  16  17
ENDBRANCH   3  16
TORSDOF 6
ENDMDL
MODEL 8
REMARK VINA RESULT:      -6.3      2.652      4.618
REMARK  Name = 
REMARK  9 active torsions:
REMARK  status: ('A' for Active; 'I' for Inactive)
REMARK    1  A    between atoms: C_1  and  C_2
REMARK    2  A    between atoms: C_2  and  O_3
REMARK    3  A    between atoms: O_3  and  C_4
REMARK    4  A    between atoms: C_4  and  C_6
REMARK    5  A    between atoms: C_6  and  C_7
REMARK    6  A    between atoms: C_15  and  C_16
REMARK    7  A    between atoms: C_16  and  N_17
REMARK    8  A    between atoms: N_17  and  C_18
REMARK    9  A    between atoms: N_17  and  C_19
REMARK                            x       y       z     vdW  Elec       q    Type
REMARK                         _______ _______ _______ _____ _____    ______ ____
ROOT
ATOM      1  C   UNL     1       2.839   5.687  18.286  0.00  0.00    +0.000 C 
ATOM      2  C   UNL     1       4.157   5.324  18.988  0.00  0.00    +0.000 C 
ATOM      3  C   UNL     1       4.166   5.654  17.501  0.00  0.00    +0.000 C 
ENDROOT
BRANCH   1   4
ATOM      4  C   UNL     1       2.266   7.023  18.682  0.00  0.00    +0.000 A 
ATOM      5  C   UNL     1       1.981   8.000  17.715  0.00  0.00    +0.000 A 
ATOM      6  C   UNL     1       1.436   9.228  18.099  0.00  0.00    +0.000 A 
ATOM      7  C   UNL     1       1.185   9.493  19.451  0.00  0.00    +0.000 A 
ATOM      8  F   UNL     1       0.651  10.683  19.821  0.00  0.00    +0.000 F 
ATOM      9  C   UNL     1       1.483   8.531  20.419  0.00  0.00    +0.000 A 
ATOM     10  C   UNL     1       2.026   7.302  20.038  0.00  0.00    +0.000 A 
ENDBRANCH   1   4
BRANCH   1  11
ATOM     11  C   UNL     1       1.898   4.511  18.285  0.00  0.00    +0.000 C 
ATOM     12  O   UNL     1       1.217   4.288  17.292  0.00  0.00    +0.000 OA
BRANCH  11  13
ATOM     13  O   UNL     1       1.939   3.612  19.308  0.00  0.00    +0.000 OA
BRANCH  13  15
ATOM     14  C   UNL     1       1.616   2.796  21.550  0.00  0.00    +0.000 C 
ATOM     15  C   UNL     1       1.081   3.638  20.397  0.00  0.00    +0.000 C 
ENDBRANCH  13  15
ENDBRANCH  11  13
ENDBRANCH   1  11
BRANCH   3  16
ATOM     16  C   UNL     1       4.995   6.942  17.235  0.00  0.00    +0.000 C 
BRANCH  16  17
ATOM     17  N   UNL     1       6.272   6.659  16.542  0.00  0.00    +0.000 NA
ATOM     18  C   UNL     1       7.424   6.685  17.455  0.00  0.00    +0.000 C 
ATOM     19  C   UNL     1       6.201   5.348  15.870  0.00  0.00    +0.000 C 
ENDBRANCH  16  17
ENDBRANCH   3  16
TORSDOF 6
ENDMDL
MODEL 9
REMARK VINA RESULT:      -6.2      3.073      5.402
REMARK  Name = 
REMARK  9 active torsions:
REMARK  status: ('A' for Active; 'I' for Inactive)
REMARK    1  A    between atoms: C_1  and  C_2
REMARK    2  A    between atoms: C_2  and  O_3
REMARK    3  A    between atoms: O_3  and  C_4
REMARK    4  A    between atoms: C_4  and  C_6
REMARK    5  A    between atoms: C_6  and  C_7
REMARK    6  A    between atoms: C_15  and  C_16
REMARK    7  A    between atoms: C_16  and  N_17
REMARK    8  A    between atoms: N_17  and  C_18
REMARK    9  A    between atoms: N_17  and  C_19
REMARK                            x       y       z     vdW  Elec       q    Type
REMARK                         _______ _______ _______ _____ _____    ______ ____
ROOT
ATOM      1  C   UNL     1       3.830   4.474  18.244  0.00  0.00    +0.000 C 
ATOM      2  C   UNL     1       2.377   4.530  17.748  0.00  0.00    +0.000 C 
ATOM      3  C   UNL     1       2.920   5.667  18.604  0.00  0.00    +0.000 C 
ENDROOT
BRANCH   1   4
ATOM      4  C   UNL     1       4.867   4.655  17.166  0.00  0.00    +0.000 A 
ATOM      5  C   UNL     1       4.690   4.089  15.894  0.00  0.00    +0.000 A 
ATOM      6  C   UNL     1       5.656   4.278  14.902  0.00  0.00    +0.000 A 
ATOM      7  C   UNL     1       6.808   5.024  15.177  0.00  0.00    +0.000 A 
ATOM      8  F   UNL     1       7.741   5.213  14.211  0.00  0.00    +0.000 F 
ATOM      9  C   UNL     1       6.996   5.576  16.447  0.00  0.00    +0.000 A 
ATOM     10  C   UNL     1       6.033   5.390  17.440  0.00  0.00    +0.000 A 
ENDBRANCH   1   4
BRANCH   1  11
ATOM     11  C   UNL     1       4.021   3.321  19.193  0.00  0.00    +0.000 C 
ATOM     12  O   UNL     1       5.121   3.135  19.698  0.00  0.00    +0.000 OA
BRANCH  11  13
ATOM     13  O   UNL     1       2.941   2.605  19.613  0.00  0.00    +0.000 OA
BRANCH  13  15
ATOM     14  C   UNL     1       2.062   3.728  21.554  0.00  0.00    +0.000 C 
ATOM     15  C   UNL     1       2.594   2.436  20.945  0.00  0.00    +0.000 C 
ENDBRANCH  13  15
ENDBRANCH  11  13
ENDBRANCH   1  11
BRANCH   3  16
ATOM     16  C   UNL     1       2.947   6.994  17.794  0.00  0.00    +0.000 C 
BRANCH  16  17
ATOM     17  N   UNL     1       2.543   8.161  18.609  0.00  0.00    +0.000 NA
ATOM     18  C   UNL     1       1.593   9.037  17.907  0.00  0.00    +0.000 C 
ATOM     19  C   UNL     1       1.952   7.708  19.882  0.00  0.00    +0.000 C 
ENDBRANCH  16  17
ENDBRANCH   3  16
TORSDOF 6
ENDMDL
