MODEL 1
REMARK VINA RESULT:      -8.9      0.000      0.000
REMARK  Name = 
REMARK  7 active torsions:
REMARK  status: ('A' for Active; 'I' for Inactive)
REMARK    1  A    between atoms: C_1  and  O_2
REMARK    2  A    between atoms: O_2  and  C_3
REMARK    3  A    between atoms: C_3  and  C_5
REMARK    4  A    between atoms: C_9  and  C_10
REMARK    5  A    between atoms: C_10  and  C_12
REMARK    6  A    between atoms: C_19  and  C_20
REMARK    7  A    between atoms: C_20  and  C_22
REMARK                            x       y       z     vdW  Elec       q    Type
REMARK                         _______ _______ _______ _____ _____    ______ ____
ROOT
ATOM      1  C   UNL     1       2.675   7.943  18.082  0.00  0.00    +0.000 A 
ATOM      2  C   UNL     1       3.756   8.116  17.124  0.00  0.00    +0.000 A 
ATOM      3  C   UNL     1       4.616   7.220  16.620  0.00  0.00    +0.000 A 
ATOM      4  C   UNL     1       4.689   5.808  16.898  0.00  0.00    +0.000 A 
ATOM      5  C   UNL     1       5.618   4.943  16.400  0.00  0.00    +0.000 A 
ATOM      6  C   UNL     1       5.302   3.592  16.840  0.00  0.00    +0.000 A 
ATOM      7  C   UNL     1       4.210   3.590  17.621  0.00  0.00    +0.000 A 
ATOM      8  C   UNL     1       3.804   4.995  17.755  0.00  0.00    +0.000 A 
ATOM      9  C   UNL     1       2.812   5.450  18.539  0.00  0.00    +0.000 A 
ATOM     10  C   UNL     1       2.311   6.798  18.692  0.00  0.00    +0.000 A 
ENDROOT
BRANCH   1  11
ATOM     11  C   UNL     1       1.823   9.139  18.457  0.00  0.00    +0.000 C 
ATOM     12  O   UNL     1       1.038   9.175  19.393  0.00  0.00    +0.000 OA
BRANCH  11  14
ATOM     13  C   UNL     1       2.211  11.439  18.160  0.00  0.00    +0.000 C 
ATOM     14  O   UNL     1       2.025  10.152  17.570  0.00  0.00    +0.000 OA
ENDBRANCH  11  14
ENDBRANCH   1  11
BRANCH   5  15
ATOM     15  C   UNL     1       6.752   5.238  15.474  0.00  0.00    +0.000 C 
ATOM     16  O   UNL     1       7.698   5.947  15.810  0.00  0.00    +0.000 OA
BRANCH  15  17
ATOM     17  C   UNL     1       6.711   4.709  14.080  0.00  0.00    +0.000 A 
ATOM     18  C   UNL     1       7.654   5.190  13.162  0.00  0.00    +0.000 A 
ATOM     19  C   UNL     1       7.674   4.705  11.851  0.00  0.00    +0.000 A 
ATOM     20  C   UNL     1       6.749   3.743  11.448  0.00  0.00    +0.000 A 
ATOM     21  C   UNL     1       5.807   3.260  12.354  0.00  0.00    +0.000 A 
ATOM     22  C   UNL     1       5.797   3.726  13.670  0.00  0.00    +0.000 A 
ENDBRANCH  15  17
ENDBRANCH   5  15
BRANCH   7  23
ATOM     23  C   UNL     1       3.586   2.377  18.205  0.00  0.00    +0.000 C 
ATOM     24  O   UNL     1       3.742   1.267  17.703  0.00  0.00    +0.000 OA
BRANCH  23  25
ATOM     25  C   UNL     1       2.703   2.513  19.406  0.00  0.00    +0.000 A 
ATOM     26  C   UNL     1       3.303   2.536  20.671  0.00  0.00    +0.000 A 
ATOM     27  C   UNL     1       2.521   2.672  21.821  0.00  0.00    +0.000 A 
ATOM     28  C   UNL     1       1.134   2.782  21.715  0.00  0.00    +0.000 A 
ATOM     29  C   UNL     1       0.529   2.768  20.460  0.00  0.00    +0.000 A 
ATOM     30  C   UNL     1       1.311   2.654  19.308  0.00  0.00    +0.000 A 
ENDBRANCH  23  25
ENDBRANCH   7  23
TORSDOF 6
ENDMDL
MODEL 2
REMARK VINA RESULT:      -8.9      0.469      1.194
REMARK  Name = 
REMARK  7 active torsions:
REMARK  status: ('A' for Active; 'I' for Inactive)
REMARK    1  A    between atoms: C_1  and  O_2
REMARK    2  A    between atoms: O_2  and  C_3
REMARK    3  A    between atoms: C_3  and  C_5
REMARK    4  A    between atoms: C_9  and  C_10
REMARK    5  A    between atoms: C_10  and  C_12
REMARK    6  A    between atoms: C_19  and  C_20
REMARK    7  A    between atoms: C_20  and  C_22
REMARK                            x       y       z     vdW  Elec       q    Type
REMARK                         _______ _______ _______ _____ _____    ______ ____
ROOT
ATOM      1  C   UNL     1       2.681   7.897  18.048  0.00  0.00    +0.000 A 
ATOM      2  C   UNL     1       3.755   8.066  17.081  0.00  0.00    +0.000 A 
ATOM      3  C   UNL     1       4.610   7.168  16.573  0.00  0.00    +0.000 A 
ATOM      4  C   UNL     1       4.684   5.756  16.855  0.00  0.00    +0.000 A 
ATOM      5  C   UNL     1       5.608   4.889  16.352  0.00  0.00    +0.000 A 
ATOM      6  C   UNL     1       5.294   3.540  16.799  0.00  0.00    +0.000 A 
ATOM      7  C   UNL     1       4.208   3.541  17.588  0.00  0.00    +0.000 A 
ATOM      8  C   UNL     1       3.804   4.947  17.722  0.00  0.00    +0.000 A 
ATOM      9  C   UNL     1       2.819   5.406  18.511  0.00  0.00    +0.000 A 
ATOM     10  C   UNL     1       2.320   6.755  18.664  0.00  0.00    +0.000 A 
ENDROOT
BRANCH   1  11
ATOM     11  C   UNL     1       1.833   9.096  18.425  0.00  0.00    +0.000 C 
ATOM     12  O   UNL     1       1.628  10.063  17.705  0.00  0.00    +0.000 OA
BRANCH  11  14
ATOM     13  C   UNL     1       0.524  10.017  20.146  0.00  0.00    +0.000 C 
ATOM     14  O   UNL     1       1.370   8.958  19.697  0.00  0.00    +0.000 OA
ENDBRANCH  11  14
ENDBRANCH   1  11
BRANCH   5  15
ATOM     15  C   UNL     1       6.736   5.180  15.417  0.00  0.00    +0.000 C 
ATOM     16  O   UNL     1       7.674   5.905  15.737  0.00  0.00    +0.000 OA
BRANCH  15  17
ATOM     17  C   UNL     1       6.695   4.626  14.032  0.00  0.00    +0.000 A 
ATOM     18  C   UNL     1       5.628   3.786  13.687  0.00  0.00    +0.000 A 
ATOM     19  C   UNL     1       5.531   3.263  12.394  0.00  0.00    +0.000 A 
ATOM     20  C   UNL     1       6.501   3.572  11.441  0.00  0.00    +0.000 A 
ATOM     21  C   UNL     1       7.565   4.406  11.776  0.00  0.00    +0.000 A 
ATOM     22  C   UNL     1       7.655   4.947  13.060  0.00  0.00    +0.000 A 
ENDBRANCH  15  17
ENDBRANCH   5  15
BRANCH   7  23
ATOM     23  C   UNL     1       3.587   2.331  18.182  0.00  0.00    +0.000 C 
ATOM     24  O   UNL     1       3.731   1.220  17.676  0.00  0.00    +0.000 OA
BRANCH  23  25
ATOM     25  C   UNL     1       2.724   2.471  19.396  0.00  0.00    +0.000 A 
ATOM     26  C   UNL     1       3.344   2.497  20.651  0.00  0.00    +0.000 A 
ATOM     27  C   UNL     1       2.580   2.636  21.813  0.00  0.00    +0.000 A 
ATOM     28  C   UNL     1       1.192   2.746  21.728  0.00  0.00    +0.000 A 
ATOM     29  C   UNL     1       0.567   2.728  20.484  0.00  0.00    +0.000 A 
ATOM     30  C   UNL     1       1.330   2.611  19.319  0.00  0.00    +0.000 A 
ENDBRANCH  23  25
ENDBRANCH   7  23
TORSDOF 6
ENDMDL
MODEL 3
REMARK VINA RESULT:      -8.9      0.443      1.181
REMARK  Name = 
REMARK  7 active torsions:
REMARK  status: ('A' for Active; 'I' for Inactive)
REMARK    1  A    between atoms: C_1  and  O_2
REMARK    2  A    between atoms: O_2  and  C_3
REMARK    3  A    between atoms: C_3  and  C_5
REMARK    4  A    between atoms: C_9  and  C_10
REMARK    5  A    between atoms: C_10  and  C_12
REMARK    6  A    between atoms: C_19  and  C_20
REMARK    7  A    between atoms: C_20  and  C_22
REMARK                            x       y       z     vdW  Elec       q    Type
REMARK                         _______ _______ _______ _____ _____    ______ ____
ROOT
ATOM      1  C   UNL     1       2.675   7.933  18.001  0.00  0.00    +0.000 A 
ATOM      2  C   UNL     1       3.752   8.095  17.036  0.00  0.00    +0.000 A 
ATOM      3  C   UNL     1       4.614   7.196  16.544  0.00  0.00    +0.000 A 
ATOM      4  C   UNL     1       4.696   5.789  16.845  0.00  0.00    +0.000 A 
ATOM      5  C   UNL     1       5.627   4.921  16.357  0.00  0.00    +0.000 A 
ATOM      6  C   UNL     1       5.321   3.576  16.821  0.00  0.00    +0.000 A 
ATOM      7  C   UNL     1       4.232   3.581  17.606  0.00  0.00    +0.000 A 
ATOM      8  C   UNL     1       3.818   4.986  17.719  0.00  0.00    +0.000 A 
ATOM      9  C   UNL     1       2.827   5.449  18.498  0.00  0.00    +0.000 A 
ATOM     10  C   UNL     1       2.319   6.796  18.632  0.00  0.00    +0.000 A 
ENDROOT
BRANCH   1  11
ATOM     11  C   UNL     1       1.817   9.130  18.359  0.00  0.00    +0.000 C 
ATOM     12  O   UNL     1       1.686  10.130  17.667  0.00  0.00    +0.000 OA
BRANCH  11  14
ATOM     13  C   UNL     1       0.740  10.138  20.189  0.00  0.00    +0.000 C 
ATOM     14  O   UNL     1       1.251   8.950  19.584  0.00  0.00    +0.000 OA
ENDBRANCH  11  14
ENDBRANCH   1  11
BRANCH   5  15
ATOM     15  C   UNL     1       6.757   5.207  15.423  0.00  0.00    +0.000 C 
ATOM     16  O   UNL     1       7.707   5.915  15.748  0.00  0.00    +0.000 OA
BRANCH  15  17
ATOM     17  C   UNL     1       6.706   4.669  14.032  0.00  0.00    +0.000 A 
ATOM     18  C   UNL     1       7.656   5.128  13.110  0.00  0.00    +0.000 A 
ATOM     19  C   UNL     1       7.666   4.635  11.803  0.00  0.00    +0.000 A 
ATOM     20  C   UNL     1       6.725   3.685  11.407  0.00  0.00    +0.000 A 
ATOM     21  C   UNL     1       5.775   3.224  12.317  0.00  0.00    +0.000 A 
ATOM     22  C   UNL     1       5.775   3.699  13.630  0.00  0.00    +0.000 A 
ENDBRANCH  15  17
ENDBRANCH   5  15
BRANCH   7  23
ATOM     23  C   UNL     1       3.616   2.375  18.213  0.00  0.00    +0.000 C 
ATOM     24  O   UNL     1       3.749   1.262  17.709  0.00  0.00    +0.000 OA
BRANCH  23  25
ATOM     25  C   UNL     1       2.771   2.521  19.439  0.00  0.00    +0.000 A 
ATOM     26  C   UNL     1       1.382   2.599  19.282  0.00  0.00    +0.000 A 
ATOM     27  C   UNL     1       0.551   2.726  20.398  0.00  0.00    +0.000 A 
ATOM     28  C   UNL     1       1.103   2.780  21.678  0.00  0.00    +0.000 A 
ATOM     29  C   UNL     1       2.484   2.696  21.845  0.00  0.00    +0.000 A 
ATOM     30  C   UNL     1       3.315   2.547  20.732  0.00  0.00    +0.000 A 
ENDBRANCH  23  25
ENDBRANCH   7  23
TORSDOF 6
ENDMDL
MODEL 4
REMARK VINA RESULT:      -8.9      0.479      6.606
REMARK  Name = 
REMARK  7 active torsions:
REMARK  status: ('A' for Active; 'I' for Inactive)
REMARK    1  A    between atoms: C_1  and  O_2
REMARK    2  A    between atoms: O_2  and  C_3
REMARK    3  A    between atoms: C_3  and  C_5
REMARK    4  A    between atoms: C_9  and  C_10
REMARK    5  A    between atoms: C_10  and  C_12
REMARK    6  A    between atoms: C_19  and  C_20
REMARK    7  A    between atoms: C_20  and  C_22
REMARK                            x       y       z     vdW  Elec       q    Type
REMARK                         _______ _______ _______ _____ _____    ______ ____
ROOT
ATOM      1  C   UNL     1       2.564   7.887  18.187  0.00  0.00    +0.000 A 
ATOM      2  C   UNL     1       2.157   6.635  18.808  0.00  0.00    +0.000 A 
ATOM      3  C   UNL     1       2.627   5.393  18.635  0.00  0.00    +0.000 A 
ATOM      4  C   UNL     1       3.696   4.961  17.770  0.00  0.00    +0.000 A 
ATOM      5  C   UNL     1       4.105   3.673  17.588  0.00  0.00    +0.000 A 
ATOM      6  C   UNL     1       5.266   3.657  16.710  0.00  0.00    +0.000 A 
ATOM      7  C   UNL     1       5.583   4.902  16.319  0.00  0.00    +0.000 A 
ATOM      8  C   UNL     1       4.570   5.784  16.912  0.00  0.00    +0.000 A 
ATOM      9  C   UNL     1       4.456   7.104  16.688  0.00  0.00    +0.000 A 
ATOM     10  C   UNL     1       3.531   8.055  17.264  0.00  0.00    +0.000 A 
ENDROOT
BRANCH   1  11
ATOM     11  C   UNL     1       1.875   9.173  18.599  0.00  0.00    +0.000 C 
ATOM     12  O   UNL     1       1.971  10.239  18.010  0.00  0.00    +0.000 OA
BRANCH  11  14
ATOM     13  C   UNL     1       0.395  10.098  20.174  0.00  0.00    +0.000 C 
ATOM     14  O   UNL     1       1.170   8.977  19.748  0.00  0.00    +0.000 OA
ENDBRANCH  11  14
ENDBRANCH   1  11
BRANCH   5  15
ATOM     15  C   UNL     1       3.562   2.433  18.218  0.00  0.00    +0.000 C 
ATOM     16  O   UNL     1       3.775   1.318  17.748  0.00  0.00    +0.000 OA
BRANCH  15  17
ATOM     17  C   UNL     1       2.683   2.551  19.418  0.00  0.00    +0.000 A 
ATOM     18  C   UNL     1       3.289   2.599  20.680  0.00  0.00    +0.000 A 
ATOM     19  C   UNL     1       2.511   2.736  21.833  0.00  0.00    +0.000 A 
ATOM     20  C   UNL     1       1.123   2.820  21.732  0.00  0.00    +0.000 A 
ATOM     21  C   UNL     1       0.511   2.772  20.481  0.00  0.00    +0.000 A 
ATOM     22  C   UNL     1       1.286   2.655  19.326  0.00  0.00    +0.000 A 
ENDBRANCH  15  17
ENDBRANCH   5  15
BRANCH   7  23
ATOM     23  C   UNL     1       6.739   5.253  15.457  0.00  0.00    +0.000 C 
ATOM     24  O   UNL     1       7.648   5.974  15.861  0.00  0.00    +0.000 OA
BRANCH  23  25
ATOM     25  C   UNL     1       6.776   4.758  14.046  0.00  0.00    +0.000 A 
ATOM     26  C   UNL     1       7.723   5.310  13.174  0.00  0.00    +0.000 A 
ATOM     27  C   UNL     1       7.803   4.873  11.849  0.00  0.00    +0.000 A 
ATOM     28  C   UNL     1       6.935   3.885  11.385  0.00  0.00    +0.000 A 
ATOM     29  C   UNL     1       5.994   3.324  12.246  0.00  0.00    +0.000 A 
ATOM     30  C   UNL     1       5.927   3.744  13.578  0.00  0.00    +0.000 A 
ENDBRANCH  23  25
ENDBRANCH   7  23
TORSDOF 6
ENDMDL
MODEL 5
REMARK VINA RESULT:      -8.8      0.153      6.605
REMARK  Name = 
REMARK  7 active torsions:
REMARK  status: ('A' for Active; 'I' for Inactive)
REMARK    1  A    between atoms: C_1  and  O_2
REMARK    2  A    between atoms: O_2  and  C_3
REMARK    3  A    between atoms: C_3  and  C_5
REMARK    4  A    between atoms: C_9  and  C_10
REMARK    5  A    between atoms: C_10  and  C_12
REMARK    6  A    between atoms: C_19  and  C_20
REMARK    7  A    between atoms: C_20  and  C_22
REMARK                            x       y       z     vdW  Elec       q    Type
REMARK                         _______ _______ _______ _____ _____    ______ ____
ROOT
ATOM      1  C   UNL     1       2.537   7.922  18.073  0.00  0.00    +0.000 A 
ATOM      2  C   UNL     1       2.107   6.677  18.692  0.00  0.00    +0.000 A 
ATOM      3  C   UNL     1       2.577   5.432  18.545  0.00  0.00    +0.000 A 
ATOM      4  C   UNL     1       3.671   4.988  17.717  0.00  0.00    +0.000 A 
ATOM      5  C   UNL     1       4.081   3.698  17.560  0.00  0.00    +0.000 A 
ATOM      6  C   UNL     1       5.269   3.670  16.719  0.00  0.00    +0.000 A 
ATOM      7  C   UNL     1       5.602   4.910  16.327  0.00  0.00    +0.000 A 
ATOM      8  C   UNL     1       4.574   5.801  16.879  0.00  0.00    +0.000 A 
ATOM      9  C   UNL     1       4.472   7.119  16.641  0.00  0.00    +0.000 A 
ATOM     10  C   UNL     1       3.533   8.078  17.179  0.00  0.00    +0.000 A 
ENDROOT
BRANCH   1  11
ATOM     11  C   UNL     1       1.840   9.214  18.452  0.00  0.00    +0.000 C 
ATOM     12  O   UNL     1       0.955   9.312  19.290  0.00  0.00    +0.000 OA
BRANCH  11  14
ATOM     13  C   UNL     1       2.076  11.542  18.226  0.00  0.00    +0.000 C 
ATOM     14  O   UNL     1       2.312  10.239  17.691  0.00  0.00    +0.000 OA
ENDBRANCH  11  14
ENDBRANCH   1  11
BRANCH   5  15
ATOM     15  C   UNL     1       3.514   2.465  18.184  0.00  0.00    +0.000 C 
ATOM     16  O   UNL     1       3.639   1.358  17.667  0.00  0.00    +0.000 OA
BRANCH  15  17
ATOM     17  C   UNL     1       2.720   2.585  19.442  0.00  0.00    +0.000 A 
ATOM     18  C   UNL     1       1.324   2.652  19.339  0.00  0.00    +0.000 A 
ATOM     19  C   UNL     1       0.535   2.738  20.489  0.00  0.00    +0.000 A 
ATOM     20  C   UNL     1       1.135   2.763  21.747  0.00  0.00    +0.000 A 
ATOM     21  C   UNL     1       2.523   2.697  21.860  0.00  0.00    +0.000 A 
ATOM     22  C   UNL     1       3.314   2.591  20.714  0.00  0.00    +0.000 A 
ENDBRANCH  15  17
ENDBRANCH   5  15
BRANCH   7  23
ATOM     23  C   UNL     1       6.785   5.249  15.498  0.00  0.00    +0.000 C 
ATOM     24  O   UNL     1       7.700   5.944  15.934  0.00  0.00    +0.000 OA
BRANCH  23  25
ATOM     25  C   UNL     1       6.845   4.777  14.079  0.00  0.00    +0.000 A 
ATOM     26  C   UNL     1       5.948   3.782  13.672  0.00  0.00    +0.000 A 
ATOM     27  C   UNL     1       5.959   3.317  12.355  0.00  0.00    +0.000 A 
ATOM     28  C   UNL     1       6.870   3.839  11.436  0.00  0.00    +0.000 A 
ATOM     29  C   UNL     1       7.762   4.834  11.829  0.00  0.00    +0.000 A 
ATOM     30  C   UNL     1       7.738   5.317  13.140  0.00  0.00    +0.000 A 
ENDBRANCH  23  25
ENDBRANCH   7  23
TORSDOF 6
ENDMDL
MODEL 6
REMARK VINA RESULT:      -8.7      0.697      6.600
REMARK  Name = 
REMARK  7 active torsions:
REMARK  status: ('A' for Active; 'I' for Inactive)
REMARK    1  A    between atoms: C_1  and  O_2
REMARK    2  A    between atoms: O_2  and  C_3
REMARK    3  A    between atoms: C_3  and  C_5
REMARK    4  A    between atoms: C_9  and  C_10
REMARK    5  A    between atoms: C_10  and  C_12
REMARK    6  A    between atoms: C_19  and  C_20
REMARK    7  A    between atoms: C_20  and  C_22
REMARK                            x       y       z     vdW  Elec       q    Type
REMARK                         _______ _______ _______ _____ _____    ______ ____
ROOT
ATOM      1  C   UNL     1       2.529   8.251  18.022  0.00  0.00    +0.000 A 
ATOM      2  C   UNL     1       1.897   7.039  18.520  0.00  0.00    +0.000 A 
ATOM      3  C   UNL     1       2.224   5.754  18.332  0.00  0.00    +0.000 A 
ATOM      4  C   UNL     1       3.328   5.222  17.572  0.00  0.00    +0.000 A 
ATOM      5  C   UNL     1       3.592   3.900  17.365  0.00  0.00    +0.000 A 
ATOM      6  C   UNL     1       4.839   3.769  16.627  0.00  0.00    +0.000 A 
ATOM      7  C   UNL     1       5.355   4.976  16.347  0.00  0.00    +0.000 A 
ATOM      8  C   UNL     1       4.396   5.959  16.868  0.00  0.00    +0.000 A 
ATOM      9  C   UNL     1       4.476   7.290  16.708  0.00  0.00    +0.000 A 
ATOM     10  C   UNL     1       3.615   8.329  17.228  0.00  0.00    +0.000 A 
ENDROOT
BRANCH   1  11
ATOM     11  C   UNL     1       1.962   9.598  18.425  0.00  0.00    +0.000 C 
ATOM     12  O   UNL     1       2.249  10.664  17.900  0.00  0.00    +0.000 OA
BRANCH  11  14
ATOM     13  C   UNL     1       0.158  10.496  19.636  0.00  0.00    +0.000 C 
ATOM     14  O   UNL     1       1.121   9.452  19.485  0.00  0.00    +0.000 OA
ENDBRANCH  11  14
ENDBRANCH   1  11
BRANCH   5  15
ATOM     15  C   UNL     1       2.825   2.717  17.858  0.00  0.00    +0.000 C 
ATOM     16  O   UNL     1       2.479   1.808  17.107  0.00  0.00    +0.000 OA
BRANCH  15  17
ATOM     17  C   UNL     1       2.411   2.662  19.290  0.00  0.00    +0.000 A 
ATOM     18  C   UNL     1       3.403   2.459  20.258  0.00  0.00    +0.000 A 
ATOM     19  C   UNL     1       3.070   2.426  21.615  0.00  0.00    +0.000 A 
ATOM     20  C   UNL     1       1.744   2.590  22.012  0.00  0.00    +0.000 A 
ATOM     21  C   UNL     1       0.750   2.792  21.057  0.00  0.00    +0.000 A 
ATOM     22  C   UNL     1       1.081   2.846  19.701  0.00  0.00    +0.000 A 
ENDBRANCH  15  17
ENDBRANCH   5  15
BRANCH   7  23
ATOM     23  C   UNL     1       6.641   5.208  15.644  0.00  0.00    +0.000 C 
ATOM     24  O   UNL     1       7.581   5.777  16.194  0.00  0.00    +0.000 OA
BRANCH  23  25
ATOM     25  C   UNL     1       6.783   4.784  14.216  0.00  0.00    +0.000 A 
ATOM     26  C   UNL     1       5.929   3.785  13.733  0.00  0.00    +0.000 A 
ATOM     27  C   UNL     1       6.016   3.364  12.403  0.00  0.00    +0.000 A 
ATOM     28  C   UNL     1       6.960   3.936  11.549  0.00  0.00    +0.000 A 
ATOM     29  C   UNL     1       7.809   4.935  12.018  0.00  0.00    +0.000 A 
ATOM     30  C   UNL     1       7.708   5.374  13.341  0.00  0.00    +0.000 A 
ENDBRANCH  23  25
ENDBRANCH   7  23
TORSDOF 6
ENDMDL
MODEL 7
REMARK VINA RESULT:      -8.5      0.969      6.423
REMARK  Name = 
REMARK  7 active torsions:
REMARK  status: ('A' for Active; 'I' for Inactive)
REMARK    1  A    between atoms: C_1  and  O_2
REMARK    2  A    between atoms: O_2  and  C_3
REMARK    3  A    between atoms: C_3  and  C_5
REMARK    4  A    between atoms: C_9  and  C_10
REMARK    5  A    between atoms: C_10  and  C_12
REMARK    6  A    between atoms: C_19  and  C_20
REMARK    7  A    between atoms: C_20  and  C_22
REMARK                            x       y       z     vdW  Elec       q    Type
REMARK                         _______ _______ _______ _____ _____    ______ ____
ROOT
ATOM      1  C   UNL     1       2.641   8.318  18.097  0.00  0.00    +0.000 A 
ATOM      2  C   UNL     1       2.473   7.263  19.085  0.00  0.00    +0.000 A 
ATOM      3  C   UNL     1       3.082   6.075  19.192  0.00  0.00    +0.000 A 
ATOM      4  C   UNL     1       4.099   5.519  18.335  0.00  0.00    +0.000 A 
ATOM      5  C   UNL     1       4.654   4.280  18.454  0.00  0.00    +0.000 A 
ATOM      6  C   UNL     1       5.705   4.126  17.459  0.00  0.00    +0.000 A 
ATOM      7  C   UNL     1       5.811   5.231  16.705  0.00  0.00    +0.000 A 
ATOM      8  C   UNL     1       4.759   6.144  17.171  0.00  0.00    +0.000 A 
ATOM      9  C   UNL     1       4.447   7.327  16.617  0.00  0.00    +0.000 A 
ATOM     10  C   UNL     1       3.472   8.308  17.037  0.00  0.00    +0.000 A 
ENDROOT
BRANCH   1  11
ATOM     11  C   UNL     1       1.835   9.595  18.238  0.00  0.00    +0.000 C 
ATOM     12  O   UNL     1       2.081  10.645  17.661  0.00  0.00    +0.000 OA
BRANCH  11  14
ATOM     13  C   UNL     1      -0.336  10.210  18.897  0.00  0.00    +0.000 C 
ATOM     14  O   UNL     1       0.827   9.414  19.134  0.00  0.00    +0.000 OA
ENDBRANCH  11  14
ENDBRANCH   1  11
BRANCH   5  15
ATOM     15  C   UNL     1       4.351   3.225  19.468  0.00  0.00    +0.000 C 
ATOM     16  O   UNL     1       5.235   2.541  19.977  0.00  0.00    +0.000 OA
BRANCH  15  17
ATOM     17  C   UNL     1       2.931   2.949  19.830  0.00  0.00    +0.000 A 
ATOM     18  C   UNL     1       2.568   3.013  21.182  0.00  0.00    +0.000 A 
ATOM     19  C   UNL     1       1.244   2.789  21.569  0.00  0.00    +0.000 A 
ATOM     20  C   UNL     1       0.276   2.495  20.609  0.00  0.00    +0.000 A 
ATOM     21  C   UNL     1       0.628   2.429  19.263  0.00  0.00    +0.000 A 
ATOM     22  C   UNL     1       1.945   2.672  18.869  0.00  0.00    +0.000 A 
ENDBRANCH  15  17
ENDBRANCH   5  15
BRANCH   7  23
ATOM     23  C   UNL     1       6.810   5.432  15.626  0.00  0.00    +0.000 C 
ATOM     24  O   UNL     1       7.785   6.163  15.779  0.00  0.00    +0.000 OA
BRANCH  23  25
ATOM     25  C   UNL     1       6.601   4.767  14.302  0.00  0.00    +0.000 A 
ATOM     26  C   UNL     1       5.392   4.096  14.079  0.00  0.00    +0.000 A 
ATOM     27  C   UNL     1       5.147   3.469  12.855  0.00  0.00    +0.000 A 
ATOM     28  C   UNL     1       6.109   3.506  11.846  0.00  0.00    +0.000 A 
ATOM     29  C   UNL     1       7.312   4.176  12.054  0.00  0.00    +0.000 A 
ATOM     30  C   UNL     1       7.550   4.823  13.270  0.00  0.00    +0.000 A 
ENDBRANCH  23  25
ENDBRANCH   7  23
TORSDOF 6
ENDMDL
MODEL 8
REMARK VINA RESULT:      -8.5      1.064      1.246
REMARK  Name = 
REMARK  7 active torsions:
REMARK  status: ('A' for Active; 'I' for Inactive)
REMARK    1  A    between atoms: C_1  and  O_2
REMARK    2  A    between atoms: O_2  and  C_3
REMARK    3  A    between atoms: C_3  and  C_5
REMARK    4  A    between atoms: C_9  and  C_10
REMARK    5  A    between atoms: C_10  and  C_12
REMARK    6  A    between atoms: C_19  and  C_20
REMARK    7  A    between atoms: C_20  and  C_22
REMARK                            x       y       z     vdW  Elec       q    Type
REMARK                         _______ _______ _______ _____ _____    ______ ____
ROOT
ATOM      1  C   UNL     1       2.449   8.131  18.437  0.00  0.00    +0.000 A 
ATOM      2  C   UNL     1       3.412   8.280  17.357  0.00  0.00    +0.000 A 
ATOM      3  C   UNL     1       4.394   7.462  16.956  0.00  0.00    +0.000 A 
ATOM      4  C   UNL     1       4.758   6.178  17.501  0.00  0.00    +0.000 A 
ATOM      5  C   UNL     1       5.802   5.403  17.092  0.00  0.00    +0.000 A 
ATOM      6  C   UNL     1       5.783   4.145  17.824  0.00  0.00    +0.000 A 
ATOM      7  C   UNL     1       4.765   4.120  18.698  0.00  0.00    +0.000 A 
ATOM      8  C   UNL     1       4.104   5.427  18.591  0.00  0.00    +0.000 A 
ATOM      9  C   UNL     1       3.096   5.859  19.366  0.00  0.00    +0.000 A 
ATOM     10  C   UNL     1       2.354   7.099  19.298  0.00  0.00    +0.000 A 
ENDROOT
BRANCH   1  11
ATOM     11  C   UNL     1       1.407   9.211  18.651  0.00  0.00    +0.000 C 
ATOM     12  O   UNL     1       0.821   9.805  17.758  0.00  0.00    +0.000 OA
BRANCH  11  14
ATOM     13  C   UNL     1       0.651  10.710  20.296  0.00  0.00    +0.000 C 
ATOM     14  O   UNL     1       1.254   9.454  19.982  0.00  0.00    +0.000 OA
ENDBRANCH  11  14
ENDBRANCH   1  11
BRANCH   5  15
ATOM     15  C   UNL     1       6.796   5.686  16.013  0.00  0.00    +0.000 C 
ATOM     16  O   UNL     1       7.712   6.489  16.168  0.00  0.00    +0.000 OA
BRANCH  15  17
ATOM     17  C   UNL     1       6.639   5.023  14.686  0.00  0.00    +0.000 A 
ATOM     18  C   UNL     1       7.627   5.241  13.716  0.00  0.00    +0.000 A 
ATOM     19  C   UNL     1       7.539   4.621  12.467  0.00  0.00    +0.000 A 
ATOM     20  C   UNL     1       6.462   3.784  12.177  0.00  0.00    +0.000 A 
ATOM     21  C   UNL     1       5.475   3.561  13.135  0.00  0.00    +0.000 A 
ATOM     22  C   UNL     1       5.569   4.163  14.392  0.00  0.00    +0.000 A 
ENDBRANCH  15  17
ENDBRANCH   5  15
BRANCH   7  23
ATOM     23  C   UNL     1       4.427   2.971  19.575  0.00  0.00    +0.000 C 
ATOM     24  O   UNL     1       5.280   2.165  19.938  0.00  0.00    +0.000 OA
BRANCH  23  25
ATOM     25  C   UNL     1       3.004   2.758  19.987  0.00  0.00    +0.000 A 
ATOM     26  C   UNL     1       2.688   2.841  21.349  0.00  0.00    +0.000 A 
ATOM     27  C   UNL     1       1.372   2.660  21.781  0.00  0.00    +0.000 A 
ATOM     28  C   UNL     1       0.363   2.391  20.856  0.00  0.00    +0.000 A 
ATOM     29  C   UNL     1       0.666   2.314  19.498  0.00  0.00    +0.000 A 
ATOM     30  C   UNL     1       1.977   2.517  19.061  0.00  0.00    +0.000 A 
ENDBRANCH  23  25
ENDBRANCH   7  23
TORSDOF 6
ENDMDL
MODEL 9
REMARK VINA RESULT:      -8.5      0.991      6.418
REMARK  Name = 
REMARK  7 active torsions:
REMARK  status: ('A' for Active; 'I' for Inactive)
REMARK    1  A    between atoms: C_1  and  O_2
REMARK    2  A    between atoms: O_2  and  C_3
REMARK    3  A    between atoms: C_3  and  C_5
REMARK    4  A    between atoms: C_9  and  C_10
REMARK    5  A    between atoms: C_10  and  C_12
REMARK    6  A    between atoms: C_19  and  C_20
REMARK    7  A    between atoms: C_20  and  C_22
REMARK                            x       y       z     vdW  Elec       q    Type
REMARK                         _______ _______ _______ _____ _____    ______ ____
ROOT
ATOM      1  C   UNL     1       2.588   8.327  18.117  0.00  0.00    +0.000 A 
ATOM      2  C   UNL     1       2.413   7.260  19.090  0.00  0.00    +0.000 A 
ATOM      3  C   UNL     1       3.041   6.082  19.204  0.00  0.00    +0.000 A 
ATOM      4  C   UNL     1       4.093   5.554  18.371  0.00  0.00    +0.000 A 
ATOM      5  C   UNL     1       4.668   4.324  18.495  0.00  0.00    +0.000 A 
ATOM      6  C   UNL     1       5.749   4.200  17.529  0.00  0.00    +0.000 A 
ATOM      7  C   UNL     1       5.854   5.314  16.788  0.00  0.00    +0.000 A 
ATOM      8  C   UNL     1       4.773   6.202  17.232  0.00  0.00    +0.000 A 
ATOM      9  C   UNL     1       4.454   7.384  16.679  0.00  0.00    +0.000 A 
ATOM     10  C   UNL     1       3.448   8.342  17.080  0.00  0.00    +0.000 A 
ENDROOT
BRANCH   1  11
ATOM     11  C   UNL     1       1.754   9.587  18.245  0.00  0.00    +0.000 C 
ATOM     12  O   UNL     1       2.168  10.722  18.059  0.00  0.00    +0.000 OA
BRANCH  11  14
ATOM     13  C   UNL     1      -0.153  10.267  19.439  0.00  0.00    +0.000 C 
ATOM     14  O   UNL     1       0.491   9.272  18.643  0.00  0.00    +0.000 OA
ENDBRANCH  11  14
ENDBRANCH   1  11
BRANCH   5  15
ATOM     15  C   UNL     1       4.357   3.255  19.491  0.00  0.00    +0.000 C 
ATOM     16  O   UNL     1       5.234   2.543  19.975  0.00  0.00    +0.000 OA
BRANCH  15  17
ATOM     17  C   UNL     1       2.936   2.999  19.865  0.00  0.00    +0.000 A 
ATOM     18  C   UNL     1       2.033   2.663  18.847  0.00  0.00    +0.000 A 
ATOM     19  C   UNL     1       0.697   2.388  19.150  0.00  0.00    +0.000 A 
ATOM     20  C   UNL     1       0.253   2.452  20.471  0.00  0.00    +0.000 A 
ATOM     21  C   UNL     1       1.143   2.786  21.490  0.00  0.00    +0.000 A 
ATOM     22  C   UNL     1       2.484   3.042  21.193  0.00  0.00    +0.000 A 
ENDBRANCH  15  17
ENDBRANCH   5  15
BRANCH   7  23
ATOM     23  C   UNL     1       6.879   5.543  15.739  0.00  0.00    +0.000 C 
ATOM     24  O   UNL     1       7.833   6.294  15.924  0.00  0.00    +0.000 OA
BRANCH  23  25
ATOM     25  C   UNL     1       6.723   4.882  14.406  0.00  0.00    +0.000 A 
ATOM     26  C   UNL     1       7.675   5.153  13.415  0.00  0.00    +0.000 A 
ATOM     27  C   UNL     1       7.577   4.552  12.158  0.00  0.00    +0.000 A 
ATOM     28  C   UNL     1       6.525   3.679  11.880  0.00  0.00    +0.000 A 
ATOM     29  C   UNL     1       5.576   3.398  12.861  0.00  0.00    +0.000 A 
ATOM     30  C   UNL     1       5.685   3.980  14.126  0.00  0.00    +0.000 A 
ENDBRANCH  23  25
ENDBRANCH   7  23
TORSDOF 6
ENDMDL
