MODEL 1
REMARK VINA RESULT:      -7.3      0.000      0.000
REMARK  Name = 
REMARK  2 active torsions:
REMARK  status: ('A' for Active; 'I' for Inactive)
REMARK    1  A    between atoms: N_5  and  C_6
REMARK    2  A    between atoms: C_14  and  C_15
REMARK                            x       y       z     vdW  Elec       q    Type
REMARK                         _______ _______ _______ _____ _____    ______ ____
ROOT
ATOM      1  O   UNL     1       2.313   4.785  20.058  0.00  0.00    +0.000 OA
ATOM      2  C   UNL     1       2.404   5.902  19.563  0.00  0.00    +0.000 C 
ATOM      3  N   UNL     1       1.900   7.016  20.181  0.00  0.00    +0.000 NA
ATOM      4  C   UNL     1       1.911   8.078  19.458  0.00  0.00    +0.000 C 
ATOM      5  N   UNL     1       1.437   9.321  19.763  0.00  0.00    +0.000 N 
ATOM      6  S   UNL     1       2.610   7.903  17.863  0.00  0.00    +0.000 S 
ATOM      7  C   UNL     1       3.061   6.150  18.206  0.00  0.00    +0.000 C 
ATOM      8  H   UNL     1       1.467  10.015  19.023  0.00  0.00    +0.000 HD
ENDROOT
BRANCH   5   9
ATOM      9  C   UNL     1       0.688   9.715  20.896  0.00  0.00    +0.000 A 
ATOM     10  C   UNL     1       0.833   9.102  22.151  0.00  0.00    +0.000 A 
ATOM     11  C   UNL     1       0.055   9.483  23.251  0.00  0.00    +0.000 A 
ATOM     12  C   UNL     1      -0.881  10.499  23.125  0.00  0.00    +0.000 A 
ATOM     13  C   UNL     1      -1.044  11.137  21.898  0.00  0.00    +0.000 A 
ATOM     14  C   UNL     1      -0.268  10.745  20.795  0.00  0.00    +0.000 A 
ATOM     15 CL   UNL     1      -0.538  11.556  19.289  0.00  0.00    +0.000 Cl
ENDBRANCH   5   9
BRANCH   7  16
ATOM     16  C   UNL     1       4.595   5.921  18.230  0.00  0.00    +0.000 C 
ATOM     17  C   UNL     1       5.012   4.443  18.027  0.00  0.00    +0.000 C 
ATOM     18  C   UNL     1       4.827   3.941  16.597  0.00  0.00    +0.000 C 
ATOM     19  C   UNL     1       5.532   4.835  15.583  0.00  0.00    +0.000 C 
ATOM     20  C   UNL     1       5.163   6.303  15.758  0.00  0.00    +0.000 C 
ATOM     21  C   UNL     1       5.365   6.774  17.198  0.00  0.00    +0.000 C 
ENDBRANCH   7  16
TORSDOF 2
ENDMDL
MODEL 2
REMARK VINA RESULT:      -6.9      2.569      7.501
REMARK  Name = 
REMARK  2 active torsions:
REMARK  status: ('A' for Active; 'I' for Inactive)
REMARK    1  A    between atoms: N_5  and  C_6
REMARK    2  A    between atoms: C_14  and  C_15
REMARK                            x       y       z     vdW  Elec       q    Type
REMARK                         _______ _______ _______ _____ _____    ______ ____
ROOT
ATOM      1  O   UNL     1       1.315   9.817  18.115  0.00  0.00    +0.000 OA
ATOM      2  C   UNL     1       1.486   8.969  18.983  0.00  0.00    +0.000 C 
ATOM      3  N   UNL     1       2.367   7.932  18.825  0.00  0.00    +0.000 NA
ATOM      4  C   UNL     1       2.299   7.031  19.739  0.00  0.00    +0.000 C 
ATOM      5  N   UNL     1       2.997   5.862  19.836  0.00  0.00    +0.000 N 
ATOM      6  S   UNL     1       1.145   7.333  21.019  0.00  0.00    +0.000 S 
ATOM      7  C   UNL     1       0.718   8.977  20.304  0.00  0.00    +0.000 C 
ATOM      8  H   UNL     1       2.744   5.241  20.597  0.00  0.00    +0.000 HD
ENDROOT
BRANCH   5   9
ATOM      9  C   UNL     1       3.867   5.284  18.882  0.00  0.00    +0.000 A 
ATOM     10  C   UNL     1       5.264   5.400  18.961  0.00  0.00    +0.000 A 
ATOM     11  C   UNL     1       6.105   4.851  17.985  0.00  0.00    +0.000 A 
ATOM     12  C   UNL     1       5.567   4.160  16.910  0.00  0.00    +0.000 A 
ATOM     13  C   UNL     1       4.186   4.016  16.805  0.00  0.00    +0.000 A 
ATOM     14  C   UNL     1       3.346   4.576  17.781  0.00  0.00    +0.000 A 
ATOM     15 CL   UNL     1       1.637   4.389  17.579  0.00  0.00    +0.000 Cl
ENDBRANCH   5   9
BRANCH   7  16
ATOM     16  C   UNL     1       1.122  10.156  21.228  0.00  0.00    +0.000 C 
ATOM     17  C   UNL     1       0.345  11.465  20.950  0.00  0.00    +0.000 C 
ATOM     18  C   UNL     1      -1.110  11.430  21.412  0.00  0.00    +0.000 C 
ATOM     19  C   UNL     1      -1.233  11.043  22.882  0.00  0.00    +0.000 C 
ATOM     20  C   UNL     1      -0.467   9.765  23.204  0.00  0.00    +0.000 C 
ATOM     21  C   UNL     1       0.985   9.837  22.733  0.00  0.00    +0.000 C 
ENDBRANCH   7  16
TORSDOF 2
ENDMDL
MODEL 3
REMARK VINA RESULT:      -6.9      2.684      3.761
REMARK  Name = 
REMARK  2 active torsions:
REMARK  status: ('A' for Active; 'I' for Inactive)
REMARK    1  A    between atoms: N_5  and  C_6
REMARK    2  A    between atoms: C_14  and  C_15
REMARK                            x       y       z     vdW  Elec       q    Type
REMARK                         _______ _______ _______ _____ _____    ______ ____
ROOT
ATOM      1  O   UNL     1       3.486   7.320  17.512  0.00  0.00    +0.000 OA
ATOM      2  C   UNL     1       2.730   7.497  18.460  0.00  0.00    +0.000 C 
ATOM      3  N   UNL     1       1.978   8.634  18.590  0.00  0.00    +0.000 NA
ATOM      4  C   UNL     1       1.379   8.751  19.720  0.00  0.00    +0.000 C 
ATOM      5  N   UNL     1       0.607   9.782  20.173  0.00  0.00    +0.000 N 
ATOM      6  S   UNL     1       1.598   7.421  20.837  0.00  0.00    +0.000 S 
ATOM      7  C   UNL     1       2.577   6.481  19.591  0.00  0.00    +0.000 C 
ATOM      8  H   UNL     1       0.283   9.723  21.132  0.00  0.00    +0.000 HD
ENDROOT
BRANCH   5   9
ATOM      9  C   UNL     1       0.389  11.040  19.564  0.00  0.00    +0.000 A 
ATOM     10  C   UNL     1       1.222  12.147  19.792  0.00  0.00    +0.000 A 
ATOM     11  C   UNL     1       0.966  13.394  19.209  0.00  0.00    +0.000 A 
ATOM     12  C   UNL     1      -0.126  13.561  18.370  0.00  0.00    +0.000 A 
ATOM     13  C   UNL     1      -0.968  12.482  18.113  0.00  0.00    +0.000 A 
ATOM     14  C   UNL     1      -0.713  11.235  18.708  0.00  0.00    +0.000 A 
ATOM     15 CL   UNL     1      -1.812   9.941  18.373  0.00  0.00    +0.000 Cl
ENDBRANCH   5   9
BRANCH   7  16
ATOM     16  C   UNL     1       1.872   5.176  19.136  0.00  0.00    +0.000 C 
ATOM     17  C   UNL     1       2.808   4.175  18.418  0.00  0.00    +0.000 C 
ATOM     18  C   UNL     1       3.793   3.473  19.350  0.00  0.00    +0.000 C 
ATOM     19  C   UNL     1       3.087   2.793  20.518  0.00  0.00    +0.000 C 
ATOM     20  C   UNL     1       2.140   3.741  21.246  0.00  0.00    +0.000 C 
ATOM     21  C   UNL     1       1.166   4.422  20.284  0.00  0.00    +0.000 C 
ENDBRANCH   7  16
TORSDOF 2
ENDMDL
MODEL 4
REMARK VINA RESULT:      -6.8      2.615      3.882
REMARK  Name = 
REMARK  2 active torsions:
REMARK  status: ('A' for Active; 'I' for Inactive)
REMARK    1  A    between atoms: N_5  and  C_6
REMARK    2  A    between atoms: C_14  and  C_15
REMARK                            x       y       z     vdW  Elec       q    Type
REMARK                         _______ _______ _______ _____ _____    ______ ____
ROOT
ATOM      1  O   UNL     1       1.201   4.025  17.057  0.00  0.00    +0.000 OA
ATOM      2  C   UNL     1       1.935   4.473  17.929  0.00  0.00    +0.000 C 
ATOM      3  N   UNL     1       1.615   5.596  18.645  0.00  0.00    +0.000 NA
ATOM      4  C   UNL     1       2.563   6.041  19.390  0.00  0.00    +0.000 C 
ATOM      5  N   UNL     1       2.576   7.158  20.176  0.00  0.00    +0.000 N 
ATOM      6  S   UNL     1       4.040   5.103  19.382  0.00  0.00    +0.000 S 
ATOM      7  C   UNL     1       3.280   3.838  18.278  0.00  0.00    +0.000 C 
ATOM      8  H   UNL     1       3.454   7.385  20.631  0.00  0.00    +0.000 HD
ENDROOT
BRANCH   5   9
ATOM      9  C   UNL     1       1.601   8.179  20.257  0.00  0.00    +0.000 A 
ATOM     10  C   UNL     1       0.778   8.354  21.380  0.00  0.00    +0.000 A 
ATOM     11  C   UNL     1      -0.208   9.347  21.424  0.00  0.00    +0.000 A 
ATOM     12  C   UNL     1      -0.385  10.202  20.346  0.00  0.00    +0.000 A 
ATOM     13  C   UNL     1       0.421  10.065  19.218  0.00  0.00    +0.000 A 
ATOM     14  C   UNL     1       1.402   9.060  19.175  0.00  0.00    +0.000 A 
ATOM     15 CL   UNL     1       2.352   8.921  17.735  0.00  0.00    +0.000 Cl
ENDBRANCH   5   9
BRANCH   7  16
ATOM     16  C   UNL     1       3.133   2.455  18.966  0.00  0.00    +0.000 C 
ATOM     17  C   UNL     1       3.698   2.407  20.406  0.00  0.00    +0.000 C 
ATOM     18  C   UNL     1       2.844   3.152  21.429  0.00  0.00    +0.000 C 
ATOM     19  C   UNL     1       1.394   2.682  21.413  0.00  0.00    +0.000 C 
ATOM     20  C   UNL     1       0.802   2.698  20.009  0.00  0.00    +0.000 C 
ATOM     21  C   UNL     1       1.678   1.939  19.012  0.00  0.00    +0.000 C 
ENDBRANCH   7  16
TORSDOF 2
ENDMDL
MODEL 5
REMARK VINA RESULT:      -6.8      2.676      7.664
REMARK  Name = 
REMARK  2 active torsions:
REMARK  status: ('A' for Active; 'I' for Inactive)
REMARK    1  A    between atoms: N_5  and  C_6
REMARK    2  A    between atoms: C_14  and  C_15
REMARK                            x       y       z     vdW  Elec       q    Type
REMARK                         _______ _______ _______ _____ _____    ______ ____
ROOT
ATOM      1  O   UNL     1       0.960  10.164  18.162  0.00  0.00    +0.000 OA
ATOM      2  C   UNL     1       1.321   9.228  18.865  0.00  0.00    +0.000 C 
ATOM      3  N   UNL     1       2.249   8.314  18.441  0.00  0.00    +0.000 NA
ATOM      4  C   UNL     1       2.386   7.296  19.213  0.00  0.00    +0.000 C 
ATOM      5  N   UNL     1       3.181   6.199  19.044  0.00  0.00    +0.000 N 
ATOM      6  S   UNL     1       1.409   7.307  20.665  0.00  0.00    +0.000 S 
ATOM      7  C   UNL     1       0.754   8.981  20.262  0.00  0.00    +0.000 C 
ATOM      8  H   UNL     1       3.090   5.459  19.732  0.00  0.00    +0.000 HD
ENDROOT
BRANCH   5   9
ATOM      9  C   UNL     1       3.946   5.844  17.908  0.00  0.00    +0.000 A 
ATOM     10  C   UNL     1       4.679   6.782  17.164  0.00  0.00    +0.000 A 
ATOM     11  C   UNL     1       5.399   6.414  16.021  0.00  0.00    +0.000 A 
ATOM     12  C   UNL     1       5.416   5.092  15.602  0.00  0.00    +0.000 A 
ATOM     13  C   UNL     1       4.709   4.132  16.323  0.00  0.00    +0.000 A 
ATOM     14  C   UNL     1       3.980   4.507  17.463  0.00  0.00    +0.000 A 
ATOM     15 CL   UNL     1       3.099   3.274  18.299  0.00  0.00    +0.000 Cl
ENDBRANCH   5   9
BRANCH   7  16
ATOM     16  C   UNL     1       1.193  10.059  21.289  0.00  0.00    +0.000 C 
ATOM     17  C   UNL     1       0.445  11.406  21.143  0.00  0.00    +0.000 C 
ATOM     18  C   UNL     1      -1.007  11.360  21.615  0.00  0.00    +0.000 C 
ATOM     19  C   UNL     1      -1.125  10.839  23.043  0.00  0.00    +0.000 C 
ATOM     20  C   UNL     1      -0.387   9.520  23.236  0.00  0.00    +0.000 C 
ATOM     21  C   UNL     1       1.063   9.603  22.759  0.00  0.00    +0.000 C 
ENDBRANCH   7  16
TORSDOF 2
ENDMDL
MODEL 6
REMARK VINA RESULT:      -6.8      2.318      3.212
REMARK  Name = 
REMARK  2 active torsions:
REMARK  status: ('A' for Active; 'I' for Inactive)
REMARK    1  A    between atoms: N_5  and  C_6
REMARK    2  A    between atoms: C_14  and  C_15
REMARK                            x       y       z     vdW  Elec       q    Type
REMARK                         _______ _______ _______ _____ _____    ______ ____
ROOT
ATOM      1  O   UNL     1       3.767   7.158  17.435  0.00  0.00    +0.000 OA
ATOM      2  C   UNL     1       3.009   6.928  18.370  0.00  0.00    +0.000 C 
ATOM      3  N   UNL     1       2.247   7.909  18.948  0.00  0.00    +0.000 NA
ATOM      4  C   UNL     1       1.646   7.551  20.026  0.00  0.00    +0.000 C 
ATOM      5  N   UNL     1       0.864   8.304  20.855  0.00  0.00    +0.000 N 
ATOM      6  S   UNL     1       1.876   5.885  20.507  0.00  0.00    +0.000 S 
ATOM      7  C   UNL     1       2.864   5.539  18.991  0.00  0.00    +0.000 C 
ATOM      8  H   UNL     1       0.541   7.857  21.706  0.00  0.00    +0.000 HD
ENDROOT
BRANCH   5   9
ATOM      9  C   UNL     1       0.635   9.699  20.809  0.00  0.00    +0.000 A 
ATOM     10  C   UNL     1       0.910  10.475  19.673  0.00  0.00    +0.000 A 
ATOM     11  C   UNL     1       0.711  11.861  19.662  0.00  0.00    +0.000 A 
ATOM     12  C   UNL     1       0.218  12.504  20.788  0.00  0.00    +0.000 A 
ATOM     13  C   UNL     1      -0.076  11.763  21.930  0.00  0.00    +0.000 A 
ATOM     14  C   UNL     1       0.134  10.375  21.940  0.00  0.00    +0.000 A 
ATOM     15 CL   UNL     1      -0.223   9.514  23.398  0.00  0.00    +0.000 Cl
ENDBRANCH   5   9
BRANCH   7  16
ATOM     16  C   UNL     1       2.171   4.526  18.042  0.00  0.00    +0.000 C 
ATOM     17  C   UNL     1       3.148   3.772  17.108  0.00  0.00    +0.000 C 
ATOM     18  C   UNL     1       3.998   2.723  17.821  0.00  0.00    +0.000 C 
ATOM     19  C   UNL     1       3.143   1.732  18.605  0.00  0.00    +0.000 C 
ATOM     20  C   UNL     1       2.153   2.434  19.527  0.00  0.00    +0.000 C 
ATOM     21  C   UNL     1       1.316   3.472  18.780  0.00  0.00    +0.000 C 
ENDBRANCH   7  16
TORSDOF 2
ENDMDL
MODEL 7
REMARK VINA RESULT:      -6.7      4.979      8.611
REMARK  Name = 
REMARK  2 active torsions:
REMARK  status: ('A' for Active; 'I' for Inactive)
REMARK    1  A    between atoms: N_5  and  C_6
REMARK    2  A    between atoms: C_14  and  C_15
REMARK                            x       y       z     vdW  Elec       q    Type
REMARK                         _______ _______ _______ _____ _____    ______ ____
ROOT
ATOM      1  O   UNL     1       3.703   7.010  17.777  0.00  0.00    +0.000 OA
ATOM      2  C   UNL     1       3.890   5.844  17.451  0.00  0.00    +0.000 C 
ATOM      3  N   UNL     1       4.801   5.493  16.490  0.00  0.00    +0.000 NA
ATOM      4  C   UNL     1       4.751   4.260  16.133  0.00  0.00    +0.000 C 
ATOM      5  N   UNL     1       5.481   3.620  15.173  0.00  0.00    +0.000 N 
ATOM      6  S   UNL     1       3.577   3.272  16.976  0.00  0.00    +0.000 S 
ATOM      7  C   UNL     1       3.110   4.683  18.065  0.00  0.00    +0.000 C 
ATOM      8  H   UNL     1       5.238   2.653  14.984  0.00  0.00    +0.000 HD
ENDROOT
BRANCH   5   9
ATOM      9  C   UNL     1       6.375   4.188  14.236  0.00  0.00    +0.000 A 
ATOM     10  C   UNL     1       7.373   5.106  14.599  0.00  0.00    +0.000 A 
ATOM     11  C   UNL     1       8.224   5.684  13.649  0.00  0.00    +0.000 A 
ATOM     12  C   UNL     1       8.105   5.345  12.309  0.00  0.00    +0.000 A 
ATOM     13  C   UNL     1       7.133   4.430  11.913  0.00  0.00    +0.000 A 
ATOM     14  C   UNL     1       6.276   3.859  12.868  0.00  0.00    +0.000 A 
ATOM     15 CL   UNL     1       5.069   2.751  12.312  0.00  0.00    +0.000 Cl
ENDBRANCH   5   9
BRANCH   7  16
ATOM     16  C   UNL     1       3.472   4.435  19.554  0.00  0.00    +0.000 C 
ATOM     17  C   UNL     1       2.512   5.123  20.555  0.00  0.00    +0.000 C 
ATOM     18  C   UNL     1       1.138   4.463  20.644  0.00  0.00    +0.000 C 
ATOM     19  C   UNL     1       1.239   2.972  20.945  0.00  0.00    +0.000 C 
ATOM     20  C   UNL     1       2.189   2.257  19.991  0.00  0.00    +0.000 C 
ATOM     21  C   UNL     1       3.555   2.940  19.930  0.00  0.00    +0.000 C 
ENDBRANCH   7  16
TORSDOF 2
ENDMDL
MODEL 8
REMARK VINA RESULT:      -6.7      2.651      7.181
REMARK  Name = 
REMARK  2 active torsions:
REMARK  status: ('A' for Active; 'I' for Inactive)
REMARK    1  A    between atoms: N_5  and  C_6
REMARK    2  A    between atoms: C_14  and  C_15
REMARK                            x       y       z     vdW  Elec       q    Type
REMARK                         _______ _______ _______ _____ _____    ______ ____
ROOT
ATOM      1  O   UNL     1       1.295   8.818  21.959  0.00  0.00    +0.000 OA
ATOM      2  C   UNL     1       1.420   8.737  20.742  0.00  0.00    +0.000 C 
ATOM      3  N   UNL     1       1.991   7.648  20.140  0.00  0.00    +0.000 NA
ATOM      4  C   UNL     1       2.214   7.790  18.882  0.00  0.00    +0.000 C 
ATOM      5  N   UNL     1       2.814   6.918  18.019  0.00  0.00    +0.000 N 
ATOM      6  S   UNL     1       1.699   9.311  18.187  0.00  0.00    +0.000 S 
ATOM      7  C   UNL     1       0.973   9.848  19.793  0.00  0.00    +0.000 C 
ATOM      8  H   UNL     1       2.970   7.248  17.072  0.00  0.00    +0.000 HD
ENDROOT
BRANCH   5   9
ATOM      9  C   UNL     1       3.465   5.700  18.323  0.00  0.00    +0.000 A 
ATOM     10  C   UNL     1       4.781   5.644  18.807  0.00  0.00    +0.000 A 
ATOM     11  C   UNL     1       5.420   4.425  19.066  0.00  0.00    +0.000 A 
ATOM     12  C   UNL     1       4.748   3.228  18.858  0.00  0.00    +0.000 A 
ATOM     13  C   UNL     1       3.438   3.246  18.388  0.00  0.00    +0.000 A 
ATOM     14  C   UNL     1       2.805   4.471  18.121  0.00  0.00    +0.000 A 
ATOM     15 CL   UNL     1       1.186   4.427  17.512  0.00  0.00    +0.000 Cl
ENDBRANCH   5   9
BRANCH   7  16
ATOM     16  C   UNL     1      -0.569  10.003  19.731  0.00  0.00    +0.000 C 
ATOM     17  C   UNL     1      -1.164  10.829  20.897  0.00  0.00    +0.000 C 
ATOM     18  C   UNL     1      -0.878  12.326  20.802  0.00  0.00    +0.000 C 
ATOM     19  C   UNL     1      -1.319  12.907  19.463  0.00  0.00    +0.000 C 
ATOM     20  C   UNL     1      -0.769  12.112  18.284  0.00  0.00    +0.000 C 
ATOM     21  C   UNL     1      -1.076  10.620  18.409  0.00  0.00    +0.000 C 
ENDBRANCH   7  16
TORSDOF 2
ENDMDL
MODEL 9
REMARK VINA RESULT:      -6.7      2.837      7.700
REMARK  Name = 
REMARK  2 active torsions:
REMARK  status: ('A' for Active; 'I' for Inactive)
REMARK    1  A    between atoms: N_5  and  C_6
REMARK    2  A    between atoms: C_14  and  C_15
REMARK                            x       y       z     vdW  Elec       q    Type
REMARK                         _______ _______ _______ _____ _____    ______ ____
ROOT
ATOM      1  O   UNL     1       1.874   9.318  17.426  0.00  0.00    +0.000 OA
ATOM      2  C   UNL     1       2.163   8.420  18.209  0.00  0.00    +0.000 C 
ATOM      3  N   UNL     1       3.157   7.516  17.947  0.00  0.00    +0.000 NA
ATOM      4  C   UNL     1       3.216   6.534  18.774  0.00  0.00    +0.000 C 
ATOM      5  N   UNL     1       4.051   5.453  18.755  0.00  0.00    +0.000 N 
ATOM      6  S   UNL     1       2.061   6.576  20.087  0.00  0.00    +0.000 S 
ATOM      7  C   UNL     1       1.426   8.215  19.532  0.00  0.00    +0.000 C 
ATOM      8  H   UNL     1       3.888   4.739  19.457  0.00  0.00    +0.000 HD
ENDROOT
BRANCH   5   9
ATOM      9  C   UNL     1       4.963   5.074  17.743  0.00  0.00    +0.000 A 
ATOM     10  C   UNL     1       4.550   4.643  16.472  0.00  0.00    +0.000 A 
ATOM     11  C   UNL     1       5.469   4.236  15.497  0.00  0.00    +0.000 A 
ATOM     12  C   UNL     1       6.830   4.264  15.767  0.00  0.00    +0.000 A 
ATOM     13  C   UNL     1       7.276   4.697  17.013  0.00  0.00    +0.000 A 
ATOM     14  C   UNL     1       6.350   5.094  17.991  0.00  0.00    +0.000 A 
ATOM     15 CL   UNL     1       6.965   5.594  19.530  0.00  0.00    +0.000 Cl
ENDBRANCH   5   9
BRANCH   7  16
ATOM     16  C   UNL     1       1.706   9.344  20.559  0.00  0.00    +0.000 C 
ATOM     17  C   UNL     1       1.008  10.684  20.222  0.00  0.00    +0.000 C 
ATOM     18  C   UNL     1      -0.501  10.669  20.452  0.00  0.00    +0.000 C 
ATOM     19  C   UNL     1      -0.858  10.227  21.867  0.00  0.00    +0.000 C 
ATOM     20  C   UNL     1      -0.178   8.917  22.247  0.00  0.00    +0.000 C 
ATOM     21  C   UNL     1       1.331   8.969  22.009  0.00  0.00    +0.000 C 
ENDBRANCH   7  16
TORSDOF 2
ENDMDL
