MODEL 1
REMARK VINA RESULT:      -8.4      0.000      0.000
REMARK  Name = 
REMARK  9 active torsions:
REMARK  status: ('A' for Active; 'I' for Inactive)
REMARK    1  A    between atoms: C_1  and  C_2
REMARK    2  A    between atoms: C_6  and  C_7
REMARK    3  A    between atoms: C_6  and  C_8
REMARK    4  A    between atoms: C_12  and  C_13
REMARK    5  A    between atoms: C_14  and  C_15
REMARK    6  A    between atoms: C_15  and  C_16
REMARK    7  A    between atoms: C_16  and  O_17
REMARK    8  A    between atoms: C_16  and  C_18
REMARK    9  A    between atoms: C_18  and  C_19
REMARK                            x       y       z     vdW  Elec       q    Type
REMARK                         _______ _______ _______ _____ _____    ______ ____
ROOT
ATOM      1  C   UNL     1       7.031   5.012  16.467  0.00  0.00    +0.000 C 
ATOM      2  C   UNL     1       6.058   6.143  17.052  0.00  0.00    +0.000 C 
ATOM      3  C   UNL     1       4.917   6.900  16.809  0.00  0.00    +0.000 C 
ATOM      4  C   UNL     1       3.549   6.561  17.575  0.00  0.00    +0.000 C 
ATOM      5  C   UNL     1       3.775   5.587  18.774  0.00  0.00    +0.000 C 
ATOM      6  C   UNL     1       2.526   4.724  19.345  0.00  0.00    +0.000 C 
ATOM      7  C   UNL     1       1.490   4.262  18.283  0.00  0.00    +0.000 C 
ATOM      8  C   UNL     1       1.685   5.464  20.438  0.00  0.00    +0.000 C 
ATOM      9  C   UNL     1       3.071   3.509  20.138  0.00  0.00    +0.000 C 
ATOM     10  C   UNL     1       4.118   2.728  19.384  0.00  0.00    +0.000 C 
ATOM     11  C   UNL     1       5.381   3.606  19.288  0.00  0.00    +0.000 C 
ATOM     12  C   UNL     1       5.126   4.811  18.362  0.00  0.00    +0.000 C 
ATOM     13  C   UNL     1       4.689   3.988  16.881  0.00  0.00    +0.000 C 
ATOM     14  C   UNL     1       6.458   6.144  18.478  0.00  0.00    +0.000 C 
ENDROOT
BRANCH  14  15
ATOM     15  C   UNL     1       7.732   7.156  17.695  0.00  0.00    +0.000 C 
BRANCH  15  16
ATOM     16  C   UNL     1       8.185   8.622  17.883  0.00  0.00    +0.000 C 
BRANCH  16  17
ATOM     17  O   UNL     1       7.175   9.517  17.449  0.00  0.00    +0.000 OA
ATOM     18  H   UNL     1       7.617  10.327  17.110  0.00  0.00    +0.000 HD
ENDBRANCH  16  17
BRANCH  16  19
ATOM     19  C   UNL     1       8.866   9.023  19.188  0.00  0.00    +0.000 C 
BRANCH  19  20
ATOM     20  C   UNL     1       9.510  10.401  19.165  0.00  0.00    +0.000 A 
ATOM     21  C   UNL     1       9.684  11.146  20.347  0.00  0.00    +0.000 A 
ATOM     22  C   UNL     1      10.251  12.416  20.299  0.00  0.00    +0.000 A 
ATOM     23  C   UNL     1      10.626  12.986  19.086  0.00  0.00    +0.000 A 
ATOM     24  C   UNL     1      10.447  12.271  17.883  0.00  0.00    +0.000 A 
ATOM     25  C   UNL     1       9.895  10.959  17.952  0.00  0.00    +0.000 A 
ENDBRANCH  19  20
ENDBRANCH  16  19
ENDBRANCH  15  16
ENDBRANCH  14  15
TORSDOF 5
ENDMDL
MODEL 2
REMARK VINA RESULT:      -8.3      1.004      1.031
REMARK  Name = 
REMARK  9 active torsions:
REMARK  status: ('A' for Active; 'I' for Inactive)
REMARK    1  A    between atoms: C_1  and  C_2
REMARK    2  A    between atoms: C_6  and  C_7
REMARK    3  A    between atoms: C_6  and  C_8
REMARK    4  A    between atoms: C_12  and  C_13
REMARK    5  A    between atoms: C_14  and  C_15
REMARK    6  A    between atoms: C_15  and  C_16
REMARK    7  A    between atoms: C_16  and  O_17
REMARK    8  A    between atoms: C_16  and  C_18
REMARK    9  A    between atoms: C_18  and  C_19
REMARK                            x       y       z     vdW  Elec       q    Type
REMARK                         _______ _______ _______ _____ _____    ______ ____
ROOT
ATOM      1  C   UNL     1       6.395   5.473  16.150  0.00  0.00    +0.000 C 
ATOM      2  C   UNL     1       5.378   6.358  17.018  0.00  0.00    +0.000 C 
ATOM      3  C   UNL     1       4.162   7.032  17.008  0.00  0.00    +0.000 C 
ATOM      4  C   UNL     1       2.891   6.409  17.762  0.00  0.00    +0.000 C 
ATOM      5  C   UNL     1       3.291   5.236  18.712  0.00  0.00    +0.000 C 
ATOM      6  C   UNL     1       2.168   4.155  19.159  0.00  0.00    +0.000 C 
ATOM      7  C   UNL     1       1.095   3.821  18.085  0.00  0.00    +0.000 C 
ATOM      8  C   UNL     1       1.354   4.567  20.431  0.00  0.00    +0.000 C 
ATOM      9  C   UNL     1       2.873   2.863  19.644  0.00  0.00    +0.000 C 
ATOM     10  C   UNL     1       3.921   2.362  18.682  0.00  0.00    +0.000 C 
ATOM     11  C   UNL     1       5.094   3.362  18.701  0.00  0.00    +0.000 C 
ATOM     12  C   UNL     1       4.667   4.700  18.068  0.00  0.00    +0.000 C 
ATOM     13  C   UNL     1       4.188   4.160  16.473  0.00  0.00    +0.000 C 
ATOM     14  C   UNL     1       5.886   6.105  18.386  0.00  0.00    +0.000 C 
ENDROOT
BRANCH  14  15
ATOM     15  C   UNL     1       7.006   7.377  17.763  0.00  0.00    +0.000 C 
BRANCH  15  16
ATOM     16  C   UNL     1       7.966   8.374  18.452  0.00  0.00    +0.000 C 
BRANCH  16  17
ATOM     17  O   UNL     1       9.020   7.685  19.103  0.00  0.00    +0.000 OA
ATOM     18  H   UNL     1       8.666   7.320  19.944  0.00  0.00    +0.000 HD
ENDBRANCH  16  17
BRANCH  16  19
ATOM     19  C   UNL     1       8.403   9.623  17.692  0.00  0.00    +0.000 C 
BRANCH  19  20
ATOM     20  C   UNL     1       9.381  10.510  18.448  0.00  0.00    +0.000 A 
ATOM     21  C   UNL     1       9.233  10.749  19.828  0.00  0.00    +0.000 A 
ATOM     22  C   UNL     1      10.123  11.585  20.496  0.00  0.00    +0.000 A 
ATOM     23  C   UNL     1      11.152  12.224  19.811  0.00  0.00    +0.000 A 
ATOM     24  C   UNL     1      11.315  12.018  18.424  0.00  0.00    +0.000 A 
ATOM     25  C   UNL     1      10.416  11.134  17.762  0.00  0.00    +0.000 A 
ENDBRANCH  19  20
ENDBRANCH  16  19
ENDBRANCH  15  16
ENDBRANCH  14  15
TORSDOF 5
ENDMDL
MODEL 3
REMARK VINA RESULT:      -8.2      0.333      1.004
REMARK  Name = 
REMARK  9 active torsions:
REMARK  status: ('A' for Active; 'I' for Inactive)
REMARK    1  A    between atoms: C_1  and  C_2
REMARK    2  A    between atoms: C_6  and  C_7
REMARK    3  A    between atoms: C_6  and  C_8
REMARK    4  A    between atoms: C_12  and  C_13
REMARK    5  A    between atoms: C_14  and  C_15
REMARK    6  A    between atoms: C_15  and  C_16
REMARK    7  A    between atoms: C_16  and  O_17
REMARK    8  A    between atoms: C_16  and  C_18
REMARK    9  A    between atoms: C_18  and  C_19
REMARK                            x       y       z     vdW  Elec       q    Type
REMARK                         _______ _______ _______ _____ _____    ______ ____
ROOT
ATOM      1  C   UNL     1       6.901   4.753  16.467  0.00  0.00    +0.000 C 
ATOM      2  C   UNL     1       5.935   5.892  17.049  0.00  0.00    +0.000 C 
ATOM      3  C   UNL     1       4.784   6.637  16.815  0.00  0.00    +0.000 C 
ATOM      4  C   UNL     1       3.436   6.307  17.619  0.00  0.00    +0.000 C 
ATOM      5  C   UNL     1       3.694   5.361  18.834  0.00  0.00    +0.000 C 
ATOM      6  C   UNL     1       2.464   4.504  19.452  0.00  0.00    +0.000 C 
ATOM      7  C   UNL     1       1.407   4.014  18.424  0.00  0.00    +0.000 C 
ATOM      8  C   UNL     1       1.643   5.264  20.547  0.00  0.00    +0.000 C 
ATOM      9  C   UNL     1       3.033   3.310  20.259  0.00  0.00    +0.000 C 
ATOM     10  C   UNL     1       4.068   2.519  19.499  0.00  0.00    +0.000 C 
ATOM     11  C   UNL     1       5.323   3.402  19.355  0.00  0.00    +0.000 C 
ATOM     12  C   UNL     1       5.040   4.584  18.409  0.00  0.00    +0.000 C 
ATOM     13  C   UNL     1       4.575   3.726  16.956  0.00  0.00    +0.000 C 
ATOM     14  C   UNL     1       6.367   5.927  18.465  0.00  0.00    +0.000 C 
ENDROOT
BRANCH  14  15
ATOM     15  C   UNL     1       7.617   6.927  17.632  0.00  0.00    +0.000 C 
BRANCH  15  16
ATOM     16  C   UNL     1       8.081   8.393  17.793  0.00  0.00    +0.000 C 
BRANCH  16  17
ATOM     17  O   UNL     1       7.095   9.287  17.308  0.00  0.00    +0.000 OA
ATOM     18  H   UNL     1       7.557  10.061  16.915  0.00  0.00    +0.000 HD
ENDBRANCH  16  17
BRANCH  16  19
ATOM     19  C   UNL     1       8.730   8.821  19.105  0.00  0.00    +0.000 C 
BRANCH  19  20
ATOM     20  C   UNL     1       9.288  10.237  19.099  0.00  0.00    +0.000 A 
ATOM     21  C   UNL     1       9.253  11.031  17.936  0.00  0.00    +0.000 A 
ATOM     22  C   UNL     1       9.793  12.314  17.945  0.00  0.00    +0.000 A 
ATOM     23  C   UNL     1      10.403  12.824  19.087  0.00  0.00    +0.000 A 
ATOM     24  C   UNL     1      10.469  12.045  20.262  0.00  0.00    +0.000 A 
ATOM     25  C   UNL     1       9.883  10.747  20.247  0.00  0.00    +0.000 A 
ENDBRANCH  19  20
ENDBRANCH  16  19
ENDBRANCH  15  16
ENDBRANCH  14  15
TORSDOF 5
ENDMDL
MODEL 4
REMARK VINA RESULT:      -8.2      1.120      1.546
REMARK  Name = 
REMARK  9 active torsions:
REMARK  status: ('A' for Active; 'I' for Inactive)
REMARK    1  A    between atoms: C_1  and  C_2
REMARK    2  A    between atoms: C_6  and  C_7
REMARK    3  A    between atoms: C_6  and  C_8
REMARK    4  A    between atoms: C_12  and  C_13
REMARK    5  A    between atoms: C_14  and  C_15
REMARK    6  A    between atoms: C_15  and  C_16
REMARK    7  A    between atoms: C_16  and  O_17
REMARK    8  A    between atoms: C_16  and  C_18
REMARK    9  A    between atoms: C_18  and  C_19
REMARK                            x       y       z     vdW  Elec       q    Type
REMARK                         _______ _______ _______ _____ _____    ______ ____
ROOT
ATOM      1  C   UNL     1       5.938   5.358  16.159  0.00  0.00    +0.000 C 
ATOM      2  C   UNL     1       4.989   6.176  17.160  0.00  0.00    +0.000 C 
ATOM      3  C   UNL     1       3.767   6.826  17.293  0.00  0.00    +0.000 C 
ATOM      4  C   UNL     1       2.577   6.139  18.119  0.00  0.00    +0.000 C 
ATOM      5  C   UNL     1       3.074   4.925  18.964  0.00  0.00    +0.000 C 
ATOM      6  C   UNL     1       2.010   3.801  19.447  0.00  0.00    +0.000 C 
ATOM      7  C   UNL     1       0.852   3.505  18.454  0.00  0.00    +0.000 C 
ATOM      8  C   UNL     1       1.306   4.129  20.806  0.00  0.00    +0.000 C 
ATOM      9  C   UNL     1       2.773   2.498  19.796  0.00  0.00    +0.000 C 
ATOM     10  C   UNL     1       3.740   2.069  18.721  0.00  0.00    +0.000 C 
ATOM     11  C   UNL     1       4.895   3.088  18.692  0.00  0.00    +0.000 C 
ATOM     12  C   UNL     1       4.396   4.450  18.174  0.00  0.00    +0.000 C 
ATOM     13  C   UNL     1       3.786   3.988  16.600  0.00  0.00    +0.000 C 
ATOM     14  C   UNL     1       5.619   5.859  18.462  0.00  0.00    +0.000 C 
ENDROOT
BRANCH  14  15
ATOM     15  C   UNL     1       6.661   7.184  17.815  0.00  0.00    +0.000 C 
BRANCH  15  16
ATOM     16  C   UNL     1       7.787   8.044  18.433  0.00  0.00    +0.000 C 
BRANCH  16  17
ATOM     17  O   UNL     1       8.742   7.226  19.086  0.00  0.00    +0.000 OA
ATOM     18  H   UNL     1       8.287   6.403  19.374  0.00  0.00    +0.000 HD
ENDBRANCH  16  17
BRANCH  16  19
ATOM     19  C   UNL     1       8.386   9.178  17.607  0.00  0.00    +0.000 C 
BRANCH  19  20
ATOM     20  C   UNL     1       9.147  10.215  18.421  0.00  0.00    +0.000 A 
ATOM     21  C   UNL     1      10.005  11.145  17.801  0.00  0.00    +0.000 A 
ATOM     22  C   UNL     1      10.712  12.067  18.566  0.00  0.00    +0.000 A 
ATOM     23  C   UNL     1      10.611  12.069  19.954  0.00  0.00    +0.000 A 
ATOM     24  C   UNL     1       9.773  11.139  20.605  0.00  0.00    +0.000 A 
ATOM     25  C   UNL     1       9.032  10.223  19.805  0.00  0.00    +0.000 A 
ENDBRANCH  19  20
ENDBRANCH  16  19
ENDBRANCH  15  16
ENDBRANCH  14  15
TORSDOF 5
ENDMDL
MODEL 5
REMARK VINA RESULT:      -7.9      3.769      5.969
REMARK  Name = 
REMARK  9 active torsions:
REMARK  status: ('A' for Active; 'I' for Inactive)
REMARK    1  A    between atoms: C_1  and  C_2
REMARK    2  A    between atoms: C_6  and  C_7
REMARK    3  A    between atoms: C_6  and  C_8
REMARK    4  A    between atoms: C_12  and  C_13
REMARK    5  A    between atoms: C_14  and  C_15
REMARK    6  A    between atoms: C_15  and  C_16
REMARK    7  A    between atoms: C_16  and  O_17
REMARK    8  A    between atoms: C_16  and  C_18
REMARK    9  A    between atoms: C_18  and  C_19
REMARK                            x       y       z     vdW  Elec       q    Type
REMARK                         _______ _______ _______ _____ _____    ______ ____
ROOT
ATOM      1  C   UNL     1       3.302   7.361  17.974  0.00  0.00    +0.000 C 
ATOM      2  C   UNL     1       4.343   6.161  18.191  0.00  0.00    +0.000 C 
ATOM      3  C   UNL     1       5.165   5.518  19.111  0.00  0.00    +0.000 C 
ATOM      4  C   UNL     1       4.738   4.094  19.713  0.00  0.00    +0.000 C 
ATOM      5  C   UNL     1       3.564   3.448  18.912  0.00  0.00    +0.000 C 
ATOM      6  C   UNL     1       2.652   2.307  19.617  0.00  0.00    +0.000 C 
ATOM      7  C   UNL     1       2.413   2.489  21.142  0.00  0.00    +0.000 C 
ATOM      8  C   UNL     1       3.215   0.854  19.464  0.00  0.00    +0.000 C 
ATOM      9  C   UNL     1       1.302   2.200  18.864  0.00  0.00    +0.000 C 
ATOM     10  C   UNL     1       0.634   3.535  18.650  0.00  0.00    +0.000 C 
ATOM     11  C   UNL     1       1.478   4.327  17.631  0.00  0.00    +0.000 C 
ATOM     12  C   UNL     1       2.832   4.722  18.250  0.00  0.00    +0.000 C 
ATOM     13  C   UNL     1       2.293   5.648  19.633  0.00  0.00    +0.000 C 
ATOM     14  C   UNL     1       4.084   5.346  16.982  0.00  0.00    +0.000 C 
ENDROOT
BRANCH  14  15
ATOM     15  C   UNL     1       5.178   6.646  16.372  0.00  0.00    +0.000 C 
BRANCH  15  16
ATOM     16  C   UNL     1       6.690   6.695  16.052  0.00  0.00    +0.000 C 
BRANCH  16  17
ATOM     17  O   UNL     1       7.373   7.511  16.988  0.00  0.00    +0.000 OA
ATOM     18  H   UNL     1       6.741   8.190  17.314  0.00  0.00    +0.000 HD
ENDBRANCH  16  17
BRANCH  16  19
ATOM     19  C   UNL     1       7.412   5.399  15.700  0.00  0.00    +0.000 C 
BRANCH  19  20
ATOM     20  C   UNL     1       7.006   4.795  14.363  0.00  0.00    +0.000 A 
ATOM     21  C   UNL     1       5.943   3.876  14.269  0.00  0.00    +0.000 A 
ATOM     22  C   UNL     1       5.606   3.316  13.041  0.00  0.00    +0.000 A 
ATOM     23  C   UNL     1       6.327   3.626  11.893  0.00  0.00    +0.000 A 
ATOM     24  C   UNL     1       7.409   4.530  11.958  0.00  0.00    +0.000 A 
ATOM     25  C   UNL     1       7.721   5.119  13.217  0.00  0.00    +0.000 A 
ENDBRANCH  19  20
ENDBRANCH  16  19
ENDBRANCH  15  16
ENDBRANCH  14  15
TORSDOF 5
ENDMDL
MODEL 6
REMARK VINA RESULT:      -7.8      1.443      1.975
REMARK  Name = 
REMARK  9 active torsions:
REMARK  status: ('A' for Active; 'I' for Inactive)
REMARK    1  A    between atoms: C_1  and  C_2
REMARK    2  A    between atoms: C_6  and  C_7
REMARK    3  A    between atoms: C_6  and  C_8
REMARK    4  A    between atoms: C_12  and  C_13
REMARK    5  A    between atoms: C_14  and  C_15
REMARK    6  A    between atoms: C_15  and  C_16
REMARK    7  A    between atoms: C_16  and  O_17
REMARK    8  A    between atoms: C_16  and  C_18
REMARK    9  A    between atoms: C_18  and  C_19
REMARK                            x       y       z     vdW  Elec       q    Type
REMARK                         _______ _______ _______ _____ _____    ______ ____
ROOT
ATOM      1  C   UNL     1       4.540   5.968  16.263  0.00  0.00    +0.000 C 
ATOM      2  C   UNL     1       4.364   6.281  17.825  0.00  0.00    +0.000 C 
ATOM      3  C   UNL     1       3.531   6.845  18.786  0.00  0.00    +0.000 C 
ATOM      4  C   UNL     1       2.688   5.902  19.772  0.00  0.00    +0.000 C 
ATOM      5  C   UNL     1       3.178   4.421  19.728  0.00  0.00    +0.000 C 
ATOM      6  C   UNL     1       2.183   3.238  20.219  0.00  0.00    +0.000 C 
ATOM      7  C   UNL     1       0.676   3.462  19.916  0.00  0.00    +0.000 C 
ATOM      8  C   UNL     1       2.249   2.944  21.755  0.00  0.00    +0.000 C 
ATOM      9  C   UNL     1       2.663   1.891  19.622  0.00  0.00    +0.000 C 
ATOM     10  C   UNL     1       2.921   1.958  18.137  0.00  0.00    +0.000 C 
ATOM     11  C   UNL     1       4.166   2.839  17.915  0.00  0.00    +0.000 C 
ATOM     12  C   UNL     1       3.854   4.305  18.270  0.00  0.00    +0.000 C 
ATOM     13  C   UNL     1       2.525   4.623  17.177  0.00  0.00    +0.000 C 
ATOM     14  C   UNL     1       5.394   5.390  18.406  0.00  0.00    +0.000 C 
ENDROOT
BRANCH  14  15
ATOM     15  C   UNL     1       6.349   6.826  17.872  0.00  0.00    +0.000 C 
BRANCH  15  16
ATOM     16  C   UNL     1       7.619   7.517  18.419  0.00  0.00    +0.000 C 
BRANCH  16  17
ATOM     17  O   UNL     1       8.485   6.570  19.020  0.00  0.00    +0.000 OA
ATOM     18  H   UNL     1       9.237   6.417  18.405  0.00  0.00    +0.000 HD
ENDBRANCH  16  17
BRANCH  16  19
ATOM     19  C   UNL     1       8.324   8.557  17.554  0.00  0.00    +0.000 C 
BRANCH  19  20
ATOM     20  C   UNL     1       8.712   9.831  18.291  0.00  0.00    +0.000 A 
ATOM     21  C   UNL     1       9.094   9.802  19.647  0.00  0.00    +0.000 A 
ATOM     22  C   UNL     1       9.419  10.982  20.309  0.00  0.00    +0.000 A 
ATOM     23  C   UNL     1       9.344  12.210  19.659  0.00  0.00    +0.000 A 
ATOM     24  C   UNL     1       8.947  12.272  18.306  0.00  0.00    +0.000 A 
ATOM     25  C   UNL     1       8.649  11.053  17.633  0.00  0.00    +0.000 A 
ENDBRANCH  19  20
ENDBRANCH  16  19
ENDBRANCH  15  16
ENDBRANCH  14  15
TORSDOF 5
ENDMDL
MODEL 7
REMARK VINA RESULT:      -7.7      4.088      7.145
REMARK  Name = 
REMARK  9 active torsions:
REMARK  status: ('A' for Active; 'I' for Inactive)
REMARK    1  A    between atoms: C_1  and  C_2
REMARK    2  A    between atoms: C_6  and  C_7
REMARK    3  A    between atoms: C_6  and  C_8
REMARK    4  A    between atoms: C_12  and  C_13
REMARK    5  A    between atoms: C_14  and  C_15
REMARK    6  A    between atoms: C_15  and  C_16
REMARK    7  A    between atoms: C_16  and  O_17
REMARK    8  A    between atoms: C_16  and  C_18
REMARK    9  A    between atoms: C_18  and  C_19
REMARK                            x       y       z     vdW  Elec       q    Type
REMARK                         _______ _______ _______ _____ _____    ______ ____
ROOT
ATOM      1  C   UNL     1       4.914   6.471  15.678  0.00  0.00    +0.000 C 
ATOM      2  C   UNL     1       5.655   5.672  16.854  0.00  0.00    +0.000 C 
ATOM      3  C   UNL     1       6.160   5.759  18.147  0.00  0.00    +0.000 C 
ATOM      4  C   UNL     1       5.372   5.076  19.365  0.00  0.00    +0.000 C 
ATOM      5  C   UNL     1       4.263   4.096  18.870  0.00  0.00    +0.000 C 
ATOM      6  C   UNL     1       3.041   3.708  19.864  0.00  0.00    +0.000 C 
ATOM      7  C   UNL     1       2.567   4.841  20.816  0.00  0.00    +0.000 C 
ATOM      8  C   UNL     1       3.340   2.489  20.799  0.00  0.00    +0.000 C 
ATOM      9  C   UNL     1       1.854   3.173  19.022  0.00  0.00    +0.000 C 
ATOM     10  C   UNL     1       1.498   4.067  17.861  0.00  0.00    +0.000 C 
ATOM     11  C   UNL     1       2.646   3.987  16.836  0.00  0.00    +0.000 C 
ATOM     12  C   UNL     1       3.915   4.654  17.399  0.00  0.00    +0.000 C 
ATOM     13  C   UNL     1       3.317   6.270  17.706  0.00  0.00    +0.000 C 
ATOM     14  C   UNL     1       5.471   4.274  16.399  0.00  0.00    +0.000 C 
ENDROOT
BRANCH  14  15
ATOM     15  C   UNL     1       6.882   4.840  15.425  0.00  0.00    +0.000 C 
BRANCH  15  16
ATOM     16  C   UNL     1       7.177   4.871  13.907  0.00  0.00    +0.000 C 
BRANCH  16  17
ATOM     17  O   UNL     1       8.231   5.775  13.621  0.00  0.00    +0.000 OA
ATOM     18  H   UNL     1       7.843   6.675  13.547  0.00  0.00    +0.000 HD
ENDBRANCH  16  17
BRANCH  16  19
ATOM     19  C   UNL     1       7.252   3.553  13.143  0.00  0.00    +0.000 C 
BRANCH  19  20
ATOM     20  C   UNL     1       6.032   3.253  12.285  0.00  0.00    +0.000 A 
ATOM     21  C   UNL     1       4.942   4.143  12.227  0.00  0.00    +0.000 A 
ATOM     22  C   UNL     1       3.824   3.837  11.458  0.00  0.00    +0.000 A 
ATOM     23  C   UNL     1       3.747   2.637  10.758  0.00  0.00    +0.000 A 
ATOM     24  C   UNL     1       4.815   1.716  10.810  0.00  0.00    +0.000 A 
ATOM     25  C   UNL     1       5.966   2.059  11.577  0.00  0.00    +0.000 A 
ENDBRANCH  19  20
ENDBRANCH  16  19
ENDBRANCH  15  16
ENDBRANCH  14  15
TORSDOF 5
ENDMDL
MODEL 8
REMARK VINA RESULT:      -7.6      5.985      9.632
REMARK  Name = 
REMARK  9 active torsions:
REMARK  status: ('A' for Active; 'I' for Inactive)
REMARK    1  A    between atoms: C_1  and  C_2
REMARK    2  A    between atoms: C_6  and  C_7
REMARK    3  A    between atoms: C_6  and  C_8
REMARK    4  A    between atoms: C_12  and  C_13
REMARK    5  A    between atoms: C_14  and  C_15
REMARK    6  A    between atoms: C_15  and  C_16
REMARK    7  A    between atoms: C_16  and  O_17
REMARK    8  A    between atoms: C_16  and  C_18
REMARK    9  A    between atoms: C_18  and  C_19
REMARK                            x       y       z     vdW  Elec       q    Type
REMARK                         _______ _______ _______ _____ _____    ______ ____
ROOT
ATOM      1  C   UNL     1       0.165   9.397  20.661  0.00  0.00    +0.000 C 
ATOM      2  C   UNL     1      -0.233  10.186  19.324  0.00  0.00    +0.000 C 
ATOM      3  C   UNL     1      -1.282  10.741  18.600  0.00  0.00    +0.000 C 
ATOM      4  C   UNL     1      -1.473  12.333  18.552  0.00  0.00    +0.000 C 
ATOM      5  C   UNL     1      -0.217  13.090  19.089  0.00  0.00    +0.000 C 
ATOM      6  C   UNL     1      -0.370  14.619  19.607  0.00  0.00    +0.000 C 
ATOM      7  C   UNL     1      -1.714  14.956  20.309  0.00  0.00    +0.000 C 
ATOM      8  C   UNL     1      -0.218  15.694  18.480  0.00  0.00    +0.000 C 
ATOM      9  C   UNL     1       0.827  14.962  20.530  0.00  0.00    +0.000 C 
ATOM     10  C   UNL     1       1.069  13.926  21.600  0.00  0.00    +0.000 C 
ATOM     11  C   UNL     1       1.586  12.649  20.910  0.00  0.00    +0.000 C 
ATOM     12  C   UNL     1       0.470  12.007  20.065  0.00  0.00    +0.000 C 
ATOM     13  C   UNL     1      -0.746  11.736  21.294  0.00  0.00    +0.000 C 
ATOM     14  C   UNL     1       1.094  10.674  18.883  0.00  0.00    +0.000 C 
ENDROOT
BRANCH  14  15
ATOM     15  C   UNL     1       1.070   8.966  18.296  0.00  0.00    +0.000 C 
BRANCH  15  16
ATOM     16  C   UNL     1       2.181   7.954  17.936  0.00  0.00    +0.000 C 
BRANCH  16  17
ATOM     17  O   UNL     1       3.125   8.538  17.055  0.00  0.00    +0.000 OA
ATOM     18  H   UNL     1       3.268   9.468  17.340  0.00  0.00    +0.000 HD
ENDBRANCH  16  17
BRANCH  16  19
ATOM     19  C   UNL     1       2.796   7.107  19.047  0.00  0.00    +0.000 C 
BRANCH  19  20
ATOM     20  C   UNL     1       2.191   5.718  19.186  0.00  0.00    +0.000 A 
ATOM     21  C   UNL     1       2.029   4.875  18.069  0.00  0.00    +0.000 A 
ATOM     22  C   UNL     1       1.449   3.619  18.215  0.00  0.00    +0.000 A 
ATOM     23  C   UNL     1       0.990   3.185  19.454  0.00  0.00    +0.000 A 
ATOM     24  C   UNL     1       1.122   4.013  20.589  0.00  0.00    +0.000 A 
ATOM     25  C   UNL     1       1.747   5.283  20.429  0.00  0.00    +0.000 A 
ENDBRANCH  19  20
ENDBRANCH  16  19
ENDBRANCH  15  16
ENDBRANCH  14  15
TORSDOF 5
ENDMDL
MODEL 9
REMARK VINA RESULT:      -7.5      6.795      9.380
REMARK  Name = 
REMARK  9 active torsions:
REMARK  status: ('A' for Active; 'I' for Inactive)
REMARK    1  A    between atoms: C_1  and  C_2
REMARK    2  A    between atoms: C_6  and  C_7
REMARK    3  A    between atoms: C_6  and  C_8
REMARK    4  A    between atoms: C_12  and  C_13
REMARK    5  A    between atoms: C_14  and  C_15
REMARK    6  A    between atoms: C_15  and  C_16
REMARK    7  A    between atoms: C_16  and  O_17
REMARK    8  A    between atoms: C_16  and  C_18
REMARK    9  A    between atoms: C_18  and  C_19
REMARK                            x       y       z     vdW  Elec       q    Type
REMARK                         _______ _______ _______ _____ _____    ______ ____
ROOT
ATOM      1  C   UNL     1       8.660  17.290  19.182  0.00  0.00    +0.000 C 
ATOM      2  C   UNL     1       9.600  16.090  19.678  0.00  0.00    +0.000 C 
ATOM      3  C   UNL     1      10.589  15.719  20.583  0.00  0.00    +0.000 C 
ATOM      4  C   UNL     1      10.222  14.787  21.837  0.00  0.00    +0.000 C 
ATOM      5  C   UNL     1       8.810  14.138  21.691  0.00  0.00    +0.000 C 
ATOM      6  C   UNL     1       8.039  13.603  23.014  0.00  0.00    +0.000 C 
ATOM      7  C   UNL     1       8.272  14.434  24.306  0.00  0.00    +0.000 C 
ATOM      8  C   UNL     1       8.393  12.130  23.409  0.00  0.00    +0.000 C 
ATOM      9  C   UNL     1       6.524  13.489  22.706  0.00  0.00    +0.000 C 
ATOM     10  C   UNL     1       5.952  14.731  22.069  0.00  0.00    +0.000 C 
ATOM     11  C   UNL     1       6.535  14.842  20.646  0.00  0.00    +0.000 C 
ATOM     12  C   UNL     1       8.041  15.156  20.707  0.00  0.00    +0.000 C 
ATOM     13  C   UNL     1       8.018  16.656  21.609  0.00  0.00    +0.000 C 
ATOM     14  C   UNL     1       8.924  14.930  19.053  0.00  0.00    +0.000 C 
ENDROOT
BRANCH  14  15
ATOM     15  C   UNL     1       9.912  15.606  17.701  0.00  0.00    +0.000 C 
BRANCH  15  16
ATOM     16  C   UNL     1      11.149  15.089  16.932  0.00  0.00    +0.000 C 
BRANCH  16  17
ATOM     17  O   UNL     1      12.333  15.695  17.422  0.00  0.00    +0.000 OA
ATOM     18  H   UNL     1      13.096  15.283  16.959  0.00  0.00    +0.000 HD
ENDBRANCH  16  17
BRANCH  16  19
ATOM     19  C   UNL     1      11.274  13.594  16.654  0.00  0.00    +0.000 C 
BRANCH  19  20
ATOM     20  C   UNL     1      10.972  12.704  17.851  0.00  0.00    +0.000 A 
ATOM     21  C   UNL     1       9.804  11.919  17.902  0.00  0.00    +0.000 A 
ATOM     22  C   UNL     1       9.534  11.133  19.018  0.00  0.00    +0.000 A 
ATOM     23  C   UNL     1      10.391  11.132  20.114  0.00  0.00    +0.000 A 
ATOM     24  C   UNL     1      11.560  11.922  20.101  0.00  0.00    +0.000 A 
ATOM     25  C   UNL     1      11.839  12.696  18.938  0.00  0.00    +0.000 A 
ENDBRANCH  19  20
ENDBRANCH  16  19
ENDBRANCH  15  16
ENDBRANCH  14  15
TORSDOF 5
ENDMDL
