MODEL 1
REMARK VINA RESULT:      -7.1      0.000      0.000
REMARK  Name = 
REMARK  8 active torsions:
REMARK  status: ('A' for Active; 'I' for Inactive)
REMARK    1  A    between atoms: C_1  and  C_2
REMARK    2  A    between atoms: C_2  and  C_3
REMARK    3  A    between atoms: C_7  and  C_8
REMARK    4  A    between atoms: C_8  and  C_9
REMARK    5  A    between atoms: C_8  and  C_10
REMARK    6  A    between atoms: C_11  and  N_12
REMARK    7  A    between atoms: C_13  and  C_15
REMARK    8  A    between atoms: C_20  and  N_21
REMARK                            x       y       z     vdW  Elec       q    Type
REMARK                         _______ _______ _______ _____ _____    ______ ____
ROOT
ATOM      1  N   UNL     1       3.854   5.059  17.145  0.00  0.00    +0.000 N 
ATOM      2  C   UNL     1       5.209   4.803  17.004  0.00  0.00    +0.000 C 
ATOM      3  O   UNL     1       6.003   4.727  17.940  0.00  0.00    +0.000 OA
ATOM      4  H   UNL     1       3.456   5.577  16.368  0.00  0.00    +0.000 HD
ENDROOT
BRANCH   1  10
ATOM      5  C   UNL     1       2.788   6.563  18.713  0.00  0.00    +0.000 A 
ATOM      6  C   UNL     1       1.994   6.782  19.849  0.00  0.00    +0.000 A 
ATOM      7  C   UNL     1       1.643   5.731  20.683  0.00  0.00    +0.000 A 
ATOM      8  C   UNL     1       2.092   4.446  20.397  0.00  0.00    +0.000 A 
ATOM      9  C   UNL     1       2.878   4.163  19.258  0.00  0.00    +0.000 A 
ATOM     10  C   UNL     1       3.197   5.244  18.392  0.00  0.00    +0.000 A 
BRANCH   9  11
ATOM     11  C   UNL     1       3.302   2.708  19.045  0.00  0.00    +0.000 C 
ATOM     12  C   UNL     1       4.364   2.288  20.075  0.00  0.00    +0.000 C 
ATOM     13  C   UNL     1       2.120   1.730  19.092  0.00  0.00    +0.000 C 
ENDBRANCH   9  11
BRANCH   5  15
ATOM     14  C   UNL     1       2.230   8.851  17.732  0.00  0.00    +0.000 C 
ATOM     15  C   UNL     1       3.287   7.786  17.970  0.00  0.00    +0.000 C 
ENDBRANCH   5  15
ENDBRANCH   1  10
BRANCH   2  16
ATOM     16  C   UNL     1       5.708   4.658  15.594  0.00  0.00    +0.000 A 
ATOM     17  C   UNL     1       5.015   3.853  14.671  0.00  0.00    +0.000 A 
ATOM     18  C   UNL     1       5.530   3.636  13.390  0.00  0.00    +0.000 A 
ATOM     19  C   UNL     1       6.737   4.220  13.019  0.00  0.00    +0.000 A 
ATOM     20  C   UNL     1       7.422   5.035  13.919  0.00  0.00    +0.000 A 
ATOM     21  C   UNL     1       6.942   5.239  15.222  0.00  0.00    +0.000 A 
BRANCH  21  22
ATOM     22  N   UNL     1       7.590   6.205  16.021  0.00  0.00    +0.000 N 
ATOM     23  H   UNL     1       6.955   6.802  16.539  0.00  0.00    +0.000 HD
ATOM     24  H   UNL     1       8.255   6.757  15.461  0.00  0.00    +0.000 HD
ENDBRANCH  21  22
ENDBRANCH   2  16
TORSDOF 5
ENDMDL
MODEL 2
REMARK VINA RESULT:      -7.1      2.133      6.027
REMARK  Name = 
REMARK  8 active torsions:
REMARK  status: ('A' for Active; 'I' for Inactive)
REMARK    1  A    between atoms: C_1  and  C_2
REMARK    2  A    between atoms: C_2  and  C_3
REMARK    3  A    between atoms: C_7  and  C_8
REMARK    4  A    between atoms: C_8  and  C_9
REMARK    5  A    between atoms: C_8  and  C_10
REMARK    6  A    between atoms: C_11  and  N_12
REMARK    7  A    between atoms: C_13  and  C_15
REMARK    8  A    between atoms: C_20  and  N_21
REMARK                            x       y       z     vdW  Elec       q    Type
REMARK                         _______ _______ _______ _____ _____    ______ ____
ROOT
ATOM      1  N   UNL     1       2.215   5.649  18.252  0.00  0.00    +0.000 N 
ATOM      2  C   UNL     1       2.648   6.602  19.160  0.00  0.00    +0.000 C 
ATOM      3  O   UNL     1       3.505   6.406  20.020  0.00  0.00    +0.000 OA
ATOM      4  H   UNL     1       1.240   5.753  17.988  0.00  0.00    +0.000 HD
ENDROOT
BRANCH   1  10
ATOM      5  C   UNL     1       2.007   3.323  18.887  0.00  0.00    +0.000 A 
ATOM      6  C   UNL     1       2.360   1.975  18.722  0.00  0.00    +0.000 A 
ATOM      7  C   UNL     1       3.425   1.615  17.909  0.00  0.00    +0.000 A 
ATOM      8  C   UNL     1       4.158   2.601  17.258  0.00  0.00    +0.000 A 
ATOM      9  C   UNL     1       3.838   3.971  17.373  0.00  0.00    +0.000 A 
ATOM     10  C   UNL     1       2.721   4.323  18.179  0.00  0.00    +0.000 A 
BRANCH   9  11
ATOM     11  C   UNL     1       4.712   4.961  16.600  0.00  0.00    +0.000 C 
ATOM     12  C   UNL     1       5.806   5.552  17.505  0.00  0.00    +0.000 C 
ATOM     13  C   UNL     1       5.354   4.341  15.351  0.00  0.00    +0.000 C 
ENDBRANCH   9  11
BRANCH   5  15
ATOM     14  C   UNL     1       1.317   3.160  21.338  0.00  0.00    +0.000 C 
ATOM     15  C   UNL     1       0.965   3.642  19.941  0.00  0.00    +0.000 C 
ENDBRANCH   5  15
ENDBRANCH   1  10
BRANCH   2  16
ATOM     16  C   UNL     1       1.968   7.941  19.082  0.00  0.00    +0.000 A 
ATOM     17  C   UNL     1       1.912   8.643  17.863  0.00  0.00    +0.000 A 
ATOM     18  C   UNL     1       1.370   9.930  17.810  0.00  0.00    +0.000 A 
ATOM     19  C   UNL     1       0.879  10.526  18.968  0.00  0.00    +0.000 A 
ATOM     20  C   UNL     1       0.913   9.832  20.176  0.00  0.00    +0.000 A 
ATOM     21  C   UNL     1       1.484   8.552  20.261  0.00  0.00    +0.000 A 
BRANCH  21  22
ATOM     22  N   UNL     1       1.333   7.841  21.471  0.00  0.00    +0.000 N 
ATOM     23  H   UNL     1       1.581   8.377  22.295  0.00  0.00    +0.000 HD
ATOM     24  H   UNL     1       1.843   6.948  21.436  0.00  0.00    +0.000 HD
ENDBRANCH  21  22
ENDBRANCH   2  16
TORSDOF 5
ENDMDL
MODEL 3
REMARK VINA RESULT:      -7.0      1.077      3.381
REMARK  Name = 
REMARK  8 active torsions:
REMARK  status: ('A' for Active; 'I' for Inactive)
REMARK    1  A    between atoms: C_1  and  C_2
REMARK    2  A    between atoms: C_2  and  C_3
REMARK    3  A    between atoms: C_7  and  C_8
REMARK    4  A    between atoms: C_8  and  C_9
REMARK    5  A    between atoms: C_8  and  C_10
REMARK    6  A    between atoms: C_11  and  N_12
REMARK    7  A    between atoms: C_13  and  C_15
REMARK    8  A    between atoms: C_20  and  N_21
REMARK                            x       y       z     vdW  Elec       q    Type
REMARK                         _______ _______ _______ _____ _____    ______ ____
ROOT
ATOM      1  N   UNL     1       3.570   4.488  17.660  0.00  0.00    +0.000 N 
ATOM      2  C   UNL     1       4.949   4.362  17.717  0.00  0.00    +0.000 C 
ATOM      3  O   UNL     1       5.583   4.115  18.741  0.00  0.00    +0.000 OA
ATOM      4  H   UNL     1       3.252   5.151  16.959  0.00  0.00    +0.000 HD
ENDROOT
BRANCH   1  10
ATOM      5  C   UNL     1       2.310   3.001  19.094  0.00  0.00    +0.000 A 
ATOM      6  C   UNL     1       1.591   2.760  20.274  0.00  0.00    +0.000 A 
ATOM      7  C   UNL     1       1.222   3.807  21.106  0.00  0.00    +0.000 A 
ATOM      8  C   UNL     1       1.559   5.111  20.762  0.00  0.00    +0.000 A 
ATOM      9  C   UNL     1       2.298   5.411  19.596  0.00  0.00    +0.000 A 
ATOM     10  C   UNL     1       2.702   4.325  18.774  0.00  0.00    +0.000 A 
BRANCH   9  11
ATOM     11  C   UNL     1       2.618   6.884  19.331  0.00  0.00    +0.000 C 
ATOM     12  C   UNL     1       2.298   7.263  17.875  0.00  0.00    +0.000 C 
ATOM     13  C   UNL     1       1.883   7.835  20.286  0.00  0.00    +0.000 C 
ENDBRANCH   9  11
BRANCH   5  15
ATOM     14  C   UNL     1       3.786   1.052  18.363  0.00  0.00    +0.000 C 
ATOM     15  C   UNL     1       2.500   1.832  18.148  0.00  0.00    +0.000 C 
ENDBRANCH   5  15
ENDBRANCH   1  10
BRANCH   2  16
ATOM     16  C   UNL     1       5.685   4.593  16.427  0.00  0.00    +0.000 A 
ATOM     17  C   UNL     1       5.215   4.026  15.226  0.00  0.00    +0.000 A 
ATOM     18  C   UNL     1       5.951   4.155  14.045  0.00  0.00    +0.000 A 
ATOM     19  C   UNL     1       7.156   4.849  14.049  0.00  0.00    +0.000 A 
ATOM     20  C   UNL     1       7.621   5.430  15.229  0.00  0.00    +0.000 A 
ATOM     21  C   UNL     1       6.917   5.285  16.434  0.00  0.00    +0.000 A 
BRANCH  21  22
ATOM     22  N   UNL     1       7.352   6.036  17.547  0.00  0.00    +0.000 N 
ATOM     23  H   UNL     1       8.274   6.441  17.434  0.00  0.00    +0.000 HD
ATOM     24  H   UNL     1       7.289   5.479  18.411  0.00  0.00    +0.000 HD
ENDBRANCH  21  22
ENDBRANCH   2  16
TORSDOF 5
ENDMDL
MODEL 4
REMARK VINA RESULT:      -6.8      2.896      6.554
REMARK  Name = 
REMARK  8 active torsions:
REMARK  status: ('A' for Active; 'I' for Inactive)
REMARK    1  A    between atoms: C_1  and  C_2
REMARK    2  A    between atoms: C_2  and  C_3
REMARK    3  A    between atoms: C_7  and  C_8
REMARK    4  A    between atoms: C_8  and  C_9
REMARK    5  A    between atoms: C_8  and  C_10
REMARK    6  A    between atoms: C_11  and  N_12
REMARK    7  A    between atoms: C_13  and  C_15
REMARK    8  A    between atoms: C_20  and  N_21
REMARK                            x       y       z     vdW  Elec       q    Type
REMARK                         _______ _______ _______ _____ _____    ______ ____
ROOT
ATOM      1  N   UNL     1       2.605   6.191  19.735  0.00  0.00    +0.000 N 
ATOM      2  C   UNL     1       2.044   7.239  19.022  0.00  0.00    +0.000 C 
ATOM      3  O   UNL     1       1.911   7.257  17.800  0.00  0.00    +0.000 OA
ATOM      4  H   UNL     1       3.098   6.488  20.572  0.00  0.00    +0.000 HD
ENDROOT
BRANCH   1  10
ATOM      5  C   UNL     1       2.264   3.837  19.295  0.00  0.00    +0.000 A 
ATOM      6  C   UNL     1       2.597   2.662  18.603  0.00  0.00    +0.000 A 
ATOM      7  C   UNL     1       3.738   2.601  17.817  0.00  0.00    +0.000 A 
ATOM      8  C   UNL     1       4.567   3.713  17.720  0.00  0.00    +0.000 A 
ATOM      9  C   UNL     1       4.273   4.927  18.378  0.00  0.00    +0.000 A 
ATOM     10  C   UNL     1       3.081   4.986  19.150  0.00  0.00    +0.000 A 
BRANCH   9  11
ATOM     11  C   UNL     1       5.256   6.083  18.186  0.00  0.00    +0.000 C 
ATOM     12  C   UNL     1       6.688   5.654  18.547  0.00  0.00    +0.000 C 
ATOM     13  C   UNL     1       5.232   6.656  16.762  0.00  0.00    +0.000 C 
ENDBRANCH   9  11
BRANCH   5  15
ATOM     14  C   UNL     1       1.367   2.832  21.462  0.00  0.00    +0.000 C 
ATOM     15  C   UNL     1       1.117   3.757  20.282  0.00  0.00    +0.000 C 
ENDBRANCH   5  15
ENDBRANCH   1  10
BRANCH   2  16
ATOM     16  C   UNL     1       1.622   8.433  19.832  0.00  0.00    +0.000 A 
ATOM     17  C   UNL     1       1.440   8.324  21.224  0.00  0.00    +0.000 A 
ATOM     18  C   UNL     1       0.951   9.405  21.963  0.00  0.00    +0.000 A 
ATOM     19  C   UNL     1       0.641  10.601  21.323  0.00  0.00    +0.000 A 
ATOM     20  C   UNL     1       0.835  10.726  19.948  0.00  0.00    +0.000 A 
ATOM     21  C   UNL     1       1.292   9.643  19.180  0.00  0.00    +0.000 A 
BRANCH  21  22
ATOM     22  N   UNL     1       1.626   9.886  17.830  0.00  0.00    +0.000 N 
ATOM     23  H   UNL     1       1.921   9.058  17.325  0.00  0.00    +0.000 HD
ATOM     24  H   UNL     1       2.323  10.640  17.756  0.00  0.00    +0.000 HD
ENDBRANCH  21  22
ENDBRANCH   2  16
TORSDOF 5
ENDMDL
MODEL 5
REMARK VINA RESULT:      -6.7      0.867      3.317
REMARK  Name = 
REMARK  8 active torsions:
REMARK  status: ('A' for Active; 'I' for Inactive)
REMARK    1  A    between atoms: C_1  and  C_2
REMARK    2  A    between atoms: C_2  and  C_3
REMARK    3  A    between atoms: C_7  and  C_8
REMARK    4  A    between atoms: C_8  and  C_9
REMARK    5  A    between atoms: C_8  and  C_10
REMARK    6  A    between atoms: C_11  and  N_12
REMARK    7  A    between atoms: C_13  and  C_15
REMARK    8  A    between atoms: C_20  and  N_21
REMARK                            x       y       z     vdW  Elec       q    Type
REMARK                         _______ _______ _______ _____ _____    ______ ____
ROOT
ATOM      1  N   UNL     1       3.646   4.543  16.818  0.00  0.00    +0.000 N 
ATOM      2  C   UNL     1       5.025   4.411  16.782  0.00  0.00    +0.000 C 
ATOM      3  O   UNL     1       5.742   4.324  17.777  0.00  0.00    +0.000 OA
ATOM      4  H   UNL     1       3.269   5.088  16.049  0.00  0.00    +0.000 HD
ENDROOT
BRANCH   1  10
ATOM      5  C   UNL     1       2.595   3.323  18.624  0.00  0.00    +0.000 A 
ATOM      6  C   UNL     1       1.980   3.295  19.885  0.00  0.00    +0.000 A 
ATOM      7  C   UNL     1       1.603   4.471  20.517  0.00  0.00    +0.000 A 
ATOM      8  C   UNL     1       1.828   5.692  19.889  0.00  0.00    +0.000 A 
ATOM      9  C   UNL     1       2.459   5.781  18.629  0.00  0.00    +0.000 A 
ATOM     10  C   UNL     1       2.874   4.570  18.012  0.00  0.00    +0.000 A 
BRANCH   9  11
ATOM     11  C   UNL     1       2.661   7.181  18.046  0.00  0.00    +0.000 C 
ATOM     12  C   UNL     1       2.028   8.251  18.952  0.00  0.00    +0.000 C 
ATOM     13  C   UNL     1       4.138   7.519  17.803  0.00  0.00    +0.000 C 
ENDBRANCH   9  11
BRANCH   5  15
ATOM     14  C   UNL     1       3.918   1.146  18.487  0.00  0.00    +0.000 C 
ATOM     15  C   UNL     1       2.792   1.994  17.921  0.00  0.00    +0.000 C 
ENDBRANCH   5  15
ENDBRANCH   1  10
BRANCH   2  16
ATOM     16  C   UNL     1       5.651   4.424  15.415  0.00  0.00    +0.000 A 
ATOM     17  C   UNL     1       5.090   3.670  14.366  0.00  0.00    +0.000 A 
ATOM     18  C   UNL     1       5.726   3.600  13.124  0.00  0.00    +0.000 A 
ATOM     19  C   UNL     1       6.921   4.281  12.915  0.00  0.00    +0.000 A 
ATOM     20  C   UNL     1       7.475   5.046  13.941  0.00  0.00    +0.000 A 
ATOM     21  C   UNL     1       6.873   5.103  15.208  0.00  0.00    +0.000 A 
BRANCH  21  22
ATOM     22  N   UNL     1       7.389   6.025  16.143  0.00  0.00    +0.000 N 
ATOM     23  H   UNL     1       7.080   5.861  17.095  0.00  0.00    +0.000 HD
ATOM     24  H   UNL     1       7.199   6.992  15.847  0.00  0.00    +0.000 HD
ENDBRANCH  21  22
ENDBRANCH   2  16
TORSDOF 5
ENDMDL
MODEL 6
REMARK VINA RESULT:      -6.7      2.351      6.442
REMARK  Name = 
REMARK  8 active torsions:
REMARK  status: ('A' for Active; 'I' for Inactive)
REMARK    1  A    between atoms: C_1  and  C_2
REMARK    2  A    between atoms: C_2  and  C_3
REMARK    3  A    between atoms: C_7  and  C_8
REMARK    4  A    between atoms: C_8  and  C_9
REMARK    5  A    between atoms: C_8  and  C_10
REMARK    6  A    between atoms: C_11  and  N_12
REMARK    7  A    between atoms: C_13  and  C_15
REMARK    8  A    between atoms: C_20  and  N_21
REMARK                            x       y       z     vdW  Elec       q    Type
REMARK                         _______ _______ _______ _____ _____    ______ ____
ROOT
ATOM      1  N   UNL     1       3.831   6.061  18.415  0.00  0.00    +0.000 N 
ATOM      2  C   UNL     1       3.165   7.206  18.008  0.00  0.00    +0.000 C 
ATOM      3  O   UNL     1       3.268   7.712  16.892  0.00  0.00    +0.000 OA
ATOM      4  H   UNL     1       4.061   6.054  19.404  0.00  0.00    +0.000 HD
ENDROOT
BRANCH   1  10
ATOM      5  C   UNL     1       4.117   4.281  16.800  0.00  0.00    +0.000 A 
ATOM      6  C   UNL     1       4.897   3.611  15.845  0.00  0.00    +0.000 A 
ATOM      7  C   UNL     1       6.244   3.908  15.695  0.00  0.00    +0.000 A 
ATOM      8  C   UNL     1       6.831   4.873  16.506  0.00  0.00    +0.000 A 
ATOM      9  C   UNL     1       6.091   5.592  17.470  0.00  0.00    +0.000 A 
ATOM     10  C   UNL     1       4.704   5.304  17.587  0.00  0.00    +0.000 A 
BRANCH   9  11
ATOM     11  C   UNL     1       6.846   6.637  18.295  0.00  0.00    +0.000 C 
ATOM     12  C   UNL     1       7.864   5.967  19.233  0.00  0.00    +0.000 C 
ATOM     13  C   UNL     1       7.557   7.683  17.425  0.00  0.00    +0.000 C 
ENDBRANCH   9  11
BRANCH   5  15
ATOM     14  C   UNL     1       2.651   2.422  17.750  0.00  0.00    +0.000 C 
ATOM     15  C   UNL     1       2.713   3.761  17.035  0.00  0.00    +0.000 C 
ENDBRANCH   5  15
ENDBRANCH   1  10
BRANCH   2  16
ATOM     16  C   UNL     1       2.301   7.868  19.046  0.00  0.00    +0.000 A 
ATOM     17  C   UNL     1       2.059   7.237  20.281  0.00  0.00    +0.000 A 
ATOM     18  C   UNL     1       1.177   7.802  21.206  0.00  0.00    +0.000 A 
ATOM     19  C   UNL     1       0.532   8.999  20.910  0.00  0.00    +0.000 A 
ATOM     20  C   UNL     1       0.779   9.641  19.697  0.00  0.00    +0.000 A 
ATOM     21  C   UNL     1       1.634   9.075  18.738  0.00  0.00    +0.000 A 
BRANCH  21  22
ATOM     22  N   UNL     1       1.970   9.855  17.611  0.00  0.00    +0.000 N 
ATOM     23  H   UNL     1       1.698  10.829  17.690  0.00  0.00    +0.000 HD
ATOM     24  H   UNL     1       1.601   9.430  16.749  0.00  0.00    +0.000 HD
ENDBRANCH  21  22
ENDBRANCH   2  16
TORSDOF 5
ENDMDL
MODEL 7
REMARK VINA RESULT:      -6.6      2.509      5.837
REMARK  Name = 
REMARK  8 active torsions:
REMARK  status: ('A' for Active; 'I' for Inactive)
REMARK    1  A    between atoms: C_1  and  C_2
REMARK    2  A    between atoms: C_2  and  C_3
REMARK    3  A    between atoms: C_7  and  C_8
REMARK    4  A    between atoms: C_8  and  C_9
REMARK    5  A    between atoms: C_8  and  C_10
REMARK    6  A    between atoms: C_11  and  N_12
REMARK    7  A    between atoms: C_13  and  C_15
REMARK    8  A    between atoms: C_20  and  N_21
REMARK                            x       y       z     vdW  Elec       q    Type
REMARK                         _______ _______ _______ _____ _____    ______ ____
ROOT
ATOM      1  N   UNL     1       2.392   6.188  17.963  0.00  0.00    +0.000 N 
ATOM      2  C   UNL     1       2.585   6.958  19.099  0.00  0.00    +0.000 C 
ATOM      3  O   UNL     1       3.293   6.630  20.050  0.00  0.00    +0.000 OA
ATOM      4  H   UNL     1       1.472   6.302  17.547  0.00  0.00    +0.000 HD
ENDROOT
BRANCH   1  10
ATOM      5  C   UNL     1       4.259   4.934  17.071  0.00  0.00    +0.000 A 
ATOM      6  C   UNL     1       4.989   3.740  16.962  0.00  0.00    +0.000 A 
ATOM      7  C   UNL     1       4.478   2.549  17.456  0.00  0.00    +0.000 A 
ATOM      8  C   UNL     1       3.224   2.534  18.058  0.00  0.00    +0.000 A 
ATOM      9  C   UNL     1       2.454   3.708  18.211  0.00  0.00    +0.000 A 
ATOM     10  C   UNL     1       3.006   4.927  17.734  0.00  0.00    +0.000 A 
BRANCH   9  11
ATOM     11  C   UNL     1       1.094   3.566  18.899  0.00  0.00    +0.000 C 
ATOM     12  C   UNL     1       0.531   2.146  18.718  0.00  0.00    +0.000 C 
ATOM     13  C   UNL     1       1.142   3.916  20.392  0.00  0.00    +0.000 C 
ENDBRANCH   9  11
BRANCH   5  15
ATOM     14  C   UNL     1       5.852   6.926  17.097  0.00  0.00    +0.000 C 
ATOM     15  C   UNL     1       4.797   6.144  16.334  0.00  0.00    +0.000 C 
ENDBRANCH   5  15
ENDBRANCH   1  10
BRANCH   2  16
ATOM     16  C   UNL     1       1.826   8.255  19.152  0.00  0.00    +0.000 A 
ATOM     17  C   UNL     1       1.656   9.030  17.989  0.00  0.00    +0.000 A 
ATOM     18  C   UNL     1       1.039  10.282  18.055  0.00  0.00    +0.000 A 
ATOM     19  C   UNL     1       0.585  10.770  19.276  0.00  0.00    +0.000 A 
ATOM     20  C   UNL     1       0.731  10.002  20.431  0.00  0.00    +0.000 A 
ATOM     21  C   UNL     1       1.379   8.757  20.395  0.00  0.00    +0.000 A 
BRANCH  21  22
ATOM     22  N   UNL     1       1.342   7.960  21.560  0.00  0.00    +0.000 N 
ATOM     23  H   UNL     1       2.113   8.130  22.197  0.00  0.00    +0.000 HD
ATOM     24  H   UNL     1       1.266   6.963  21.318  0.00  0.00    +0.000 HD
ENDBRANCH  21  22
ENDBRANCH   2  16
TORSDOF 5
ENDMDL
MODEL 8
REMARK VINA RESULT:      -6.5      2.765      6.227
REMARK  Name = 
REMARK  8 active torsions:
REMARK  status: ('A' for Active; 'I' for Inactive)
REMARK    1  A    between atoms: C_1  and  C_2
REMARK    2  A    between atoms: C_2  and  C_3
REMARK    3  A    between atoms: C_7  and  C_8
REMARK    4  A    between atoms: C_8  and  C_9
REMARK    5  A    between atoms: C_8  and  C_10
REMARK    6  A    between atoms: C_11  and  N_12
REMARK    7  A    between atoms: C_13  and  C_15
REMARK    8  A    between atoms: C_20  and  N_21
REMARK                            x       y       z     vdW  Elec       q    Type
REMARK                         _______ _______ _______ _____ _____    ______ ____
ROOT
ATOM      1  N   UNL     1       2.786   6.601  19.189  0.00  0.00    +0.000 N 
ATOM      2  C   UNL     1       1.967   7.590  18.670  0.00  0.00    +0.000 C 
ATOM      3  O   UNL     1       1.591   7.640  17.500  0.00  0.00    +0.000 OA
ATOM      4  H   UNL     1       3.395   6.926  19.933  0.00  0.00    +0.000 HD
ENDROOT
BRANCH   1  10
ATOM      5  C   UNL     1       4.506   5.688  17.752  0.00  0.00    +0.000 A 
ATOM      6  C   UNL     1       5.128   4.592  17.135  0.00  0.00    +0.000 A 
ATOM      7  C   UNL     1       4.539   3.337  17.156  0.00  0.00    +0.000 A 
ATOM      8  C   UNL     1       3.312   3.164  17.787  0.00  0.00    +0.000 A 
ATOM      9  C   UNL     1       2.649   4.225  18.440  0.00  0.00    +0.000 A 
ATOM     10  C   UNL     1       3.283   5.497  18.443  0.00  0.00    +0.000 A 
BRANCH   9  11
ATOM     11  C   UNL     1       1.309   3.907  19.108  0.00  0.00    +0.000 C 
ATOM     12  C   UNL     1       0.825   2.498  18.726  0.00  0.00    +0.000 C 
ATOM     13  C   UNL     1       1.358   4.041  20.636  0.00  0.00    +0.000 C 
ENDBRANCH   9  11
BRANCH   5  15
ATOM     14  C   UNL     1       6.611   7.038  17.248  0.00  0.00    +0.000 C 
ATOM     15  C   UNL     1       5.115   7.055  17.513  0.00  0.00    +0.000 C 
ENDBRANCH   5  15
ENDBRANCH   1  10
BRANCH   2  16
ATOM     16  C   UNL     1       1.567   8.681  19.624  0.00  0.00    +0.000 A 
ATOM     17  C   UNL     1       1.319   8.389  20.979  0.00  0.00    +0.000 A 
ATOM     18  C   UNL     1       0.851   9.380  21.845  0.00  0.00    +0.000 A 
ATOM     19  C   UNL     1       0.628  10.669  21.370  0.00  0.00    +0.000 A 
ATOM     20  C   UNL     1       0.888  10.974  20.035  0.00  0.00    +0.000 A 
ATOM     21  C   UNL     1       1.326   9.986  19.138  0.00  0.00    +0.000 A 
BRANCH  21  22
ATOM     22  N   UNL     1       1.730  10.397  17.850  0.00  0.00    +0.000 N 
ATOM     23  H   UNL     1       2.238  11.274  17.840  0.00  0.00    +0.000 HD
ATOM     24  H   UNL     1       0.929  10.418  17.204  0.00  0.00    +0.000 HD
ENDBRANCH  21  22
ENDBRANCH   2  16
TORSDOF 5
ENDMDL
MODEL 9
REMARK VINA RESULT:      -6.5      2.751      6.522
REMARK  Name = 
REMARK  8 active torsions:
REMARK  status: ('A' for Active; 'I' for Inactive)
REMARK    1  A    between atoms: C_1  and  C_2
REMARK    2  A    between atoms: C_2  and  C_3
REMARK    3  A    between atoms: C_7  and  C_8
REMARK    4  A    between atoms: C_8  and  C_9
REMARK    5  A    between atoms: C_8  and  C_10
REMARK    6  A    between atoms: C_11  and  N_12
REMARK    7  A    between atoms: C_13  and  C_15
REMARK    8  A    between atoms: C_20  and  N_21
REMARK                            x       y       z     vdW  Elec       q    Type
REMARK                         _______ _______ _______ _____ _____    ______ ____
ROOT
ATOM      1  N   UNL     1       2.778   6.188  19.135  0.00  0.00    +0.000 N 
ATOM      2  C   UNL     1       2.402   7.412  18.605  0.00  0.00    +0.000 C 
ATOM      3  O   UNL     1       2.578   7.746  17.434  0.00  0.00    +0.000 OA
ATOM      4  H   UNL     1       3.044   6.234  20.114  0.00  0.00    +0.000 HD
ENDROOT
BRANCH   1  10
ATOM      5  C   UNL     1       2.566   4.074  17.977  0.00  0.00    +0.000 A 
ATOM      6  C   UNL     1       3.078   3.102  17.104  0.00  0.00    +0.000 A 
ATOM      7  C   UNL     1       4.397   3.154  16.678  0.00  0.00    +0.000 A 
ATOM      8  C   UNL     1       5.225   4.177  17.130  0.00  0.00    +0.000 A 
ATOM      9  C   UNL     1       4.760   5.192  17.993  0.00  0.00    +0.000 A 
ATOM     10  C   UNL     1       3.396   5.146  18.391  0.00  0.00    +0.000 A 
BRANCH   9  11
ATOM     11  C   UNL     1       5.763   6.269  18.411  0.00  0.00    +0.000 C 
ATOM     12  C   UNL     1       6.962   5.648  19.148  0.00  0.00    +0.000 C 
ATOM     13  C   UNL     1       6.263   7.110  17.229  0.00  0.00    +0.000 C 
ENDBRANCH   9  11
BRANCH   5  15
ATOM     14  C   UNL     1       0.856   2.372  18.807  0.00  0.00    +0.000 C 
ATOM     15  C   UNL     1       1.182   3.833  18.546  0.00  0.00    +0.000 C 
ENDBRANCH   5  15
ENDBRANCH   1  10
BRANCH   2  16
ATOM     16  C   UNL     1       1.780   8.383  19.569  0.00  0.00    +0.000 A 
ATOM     17  C   UNL     1       1.591   8.028  20.918  0.00  0.00    +0.000 A 
ATOM     18  C   UNL     1       0.922   8.889  21.792  0.00  0.00    +0.000 A 
ATOM     19  C   UNL     1       0.440  10.110  21.331  0.00  0.00    +0.000 A 
ATOM     20  C   UNL     1       0.639  10.480  20.001  0.00  0.00    +0.000 A 
ATOM     21  C   UNL     1       1.277   9.616  19.097  0.00  0.00    +0.000 A 
BRANCH  21  22
ATOM     22  N   UNL     1       1.595  10.119  17.817  0.00  0.00    +0.000 N 
ATOM     23  H   UNL     1       2.154  10.965  17.835  0.00  0.00    +0.000 HD
ATOM     24  H   UNL     1       0.744  10.243  17.250  0.00  0.00    +0.000 HD
ENDBRANCH  21  22
ENDBRANCH   2  16
TORSDOF 5
ENDMDL
