MODEL 1
REMARK VINA RESULT:      -7.7      0.000      0.000
REMARK  Name = 
REMARK  7 active torsions:
REMARK  status: ('A' for Active; 'I' for Inactive)
REMARK    1  A    between atoms: C_1  and  C_2
REMARK    2  A    between atoms: C_7  and  C_8
REMARK    3  A    between atoms: C_8  and  C_9
REMARK    4  A    between atoms: N_11  and  C_12
REMARK    5  A    between atoms: C_16  and  C_17
REMARK    6  A    between atoms: N_19  and  C_20
REMARK    7  A    between atoms: N_19  and  C_21
REMARK                            x       y       z     vdW  Elec       q    Type
REMARK                         _______ _______ _______ _____ _____    ______ ____
ROOT
ATOM      1  C   UNL     1       5.181   3.970  19.305  0.00  0.00    +0.000 C 
ATOM      2  O   UNL     1       4.529   4.970  19.591  0.00  0.00    +0.000 OA
ATOM      3  N   UNL     1       6.314   3.973  18.507  0.00  0.00    +0.000 N 
ATOM      4  H   UNL     1       6.820   3.112  18.414  0.00  0.00    +0.000 HD
ENDROOT
BRANCH   3   5
ATOM      5  C   UNL     1       6.870   5.151  18.041  0.00  0.00    +0.000 A 
ATOM      6  N   UNL     1       7.399   6.065  18.937  0.00  0.00    +0.000 N 
ATOM      7  N   UNL     1       7.810   7.211  18.376  0.00  0.00    +0.000 NA
ATOM      8  C   UNL     1       7.664   6.968  17.071  0.00  0.00    +0.000 A 
ATOM      9  C   UNL     1       7.044   5.716  16.786  0.00  0.00    +0.000 A 
ATOM     10  H   UNL     1       7.439   5.974  19.950  0.00  0.00    +0.000 HD
BRANCH   9  11
ATOM     11  C   UNL     1       6.937   5.213  15.416  0.00  0.00    +0.000 C 
ATOM     12  O   UNL     1       7.892   5.387  14.657  0.00  0.00    +0.000 OA
ATOM     13  N   UNL     1       5.785   4.585  14.948  0.00  0.00    +0.000 N 
ATOM     14  C   UNL     1       4.551   4.403  15.671  0.00  0.00    +0.000 C 
ATOM     15  C   UNL     1       5.828   3.957  13.627  0.00  0.00    +0.000 C 
ENDBRANCH   9  11
ENDBRANCH   3   5
BRANCH   1  16
ATOM     16  C   UNL     1       4.769   2.577  19.786  0.00  0.00    +0.000 C 
BRANCH  16  23
ATOM     17  C   UNL     1       2.754   2.015  17.457  0.00  0.00    +0.000 C 
ATOM     18  C   UNL     1       2.439   2.834  18.717  0.00  0.00    +0.000 C 
ATOM     19  C   UNL     1       0.915   2.768  18.949  0.00  0.00    +0.000 C 
ATOM     20  C   UNL     1       0.475   3.422  20.252  0.00  0.00    +0.000 C 
ATOM     21  C   UNL     1       1.243   2.849  21.432  0.00  0.00    +0.000 C 
ATOM     22  C   UNL     1       2.745   3.031  21.241  0.00  0.00    +0.000 C 
ATOM     23  C   UNL     1       3.246   2.347  19.958  0.00  0.00    +0.000 C 
ENDBRANCH  16  23
ENDBRANCH   1  16
TORSDOF 4
ENDMDL
MODEL 2
REMARK VINA RESULT:      -7.6      4.702      5.889
REMARK  Name = 
REMARK  7 active torsions:
REMARK  status: ('A' for Active; 'I' for Inactive)
REMARK    1  A    between atoms: C_1  and  C_2
REMARK    2  A    between atoms: C_7  and  C_8
REMARK    3  A    between atoms: C_8  and  C_9
REMARK    4  A    between atoms: N_11  and  C_12
REMARK    5  A    between atoms: C_16  and  C_17
REMARK    6  A    between atoms: N_19  and  C_20
REMARK    7  A    between atoms: N_19  and  C_21
REMARK                            x       y       z     vdW  Elec       q    Type
REMARK                         _______ _______ _______ _____ _____    ______ ____
ROOT
ATOM      1  C   UNL     1       2.038   6.868  19.808  0.00  0.00    +0.000 C 
ATOM      2  O   UNL     1       1.624   6.071  20.644  0.00  0.00    +0.000 OA
ATOM      3  N   UNL     1       2.626   6.512  18.605  0.00  0.00    +0.000 N 
ATOM      4  H   UNL     1       2.844   7.246  17.957  0.00  0.00    +0.000 HD
ENDROOT
BRANCH   3   5
ATOM      5  C   UNL     1       2.704   5.191  18.199  0.00  0.00    +0.000 A 
ATOM      6  N   UNL     1       1.569   4.543  17.742  0.00  0.00    +0.000 N 
ATOM      7  N   UNL     1       1.747   3.240  17.481  0.00  0.00    +0.000 NA
ATOM      8  C   UNL     1       3.064   3.084  17.646  0.00  0.00    +0.000 A 
ATOM      9  C   UNL     1       3.722   4.251  18.133  0.00  0.00    +0.000 A 
ATOM     10  H   UNL     1       0.634   4.936  17.657  0.00  0.00    +0.000 HD
BRANCH   9  11
ATOM     11  C   UNL     1       5.181   4.316  18.233  0.00  0.00    +0.000 C 
ATOM     12  O   UNL     1       5.704   4.020  19.309  0.00  0.00    +0.000 OA
ATOM     13  N   UNL     1       5.976   4.733  17.168  0.00  0.00    +0.000 N 
ATOM     14  C   UNL     1       5.516   5.212  15.888  0.00  0.00    +0.000 C 
ATOM     15  C   UNL     1       7.428   4.599  17.294  0.00  0.00    +0.000 C 
ENDBRANCH   9  11
ENDBRANCH   3   5
BRANCH   1  16
ATOM     16  C   UNL     1       1.975   8.380  20.039  0.00  0.00    +0.000 C 
BRANCH  16  23
ATOM     17  C   UNL     1      -0.317  10.120  18.809  0.00  0.00    +0.000 C 
ATOM     18  C   UNL     1       0.215  10.250  20.243  0.00  0.00    +0.000 C 
ATOM     19  C   UNL     1      -0.912  10.852  21.108  0.00  0.00    +0.000 C 
ATOM     20  C   UNL     1      -0.570  10.905  22.591  0.00  0.00    +0.000 C 
ATOM     21  C   UNL     1      -0.149   9.535  23.099  0.00  0.00    +0.000 C 
ATOM     22  C   UNL     1       1.044   9.007  22.310  0.00  0.00    +0.000 C 
ATOM     23  C   UNL     1       0.732   8.893  20.808  0.00  0.00    +0.000 C 
ENDBRANCH  16  23
ENDBRANCH   1  16
TORSDOF 4
ENDMDL
MODEL 3
REMARK VINA RESULT:      -7.4      4.691      5.850
REMARK  Name = 
REMARK  7 active torsions:
REMARK  status: ('A' for Active; 'I' for Inactive)
REMARK    1  A    between atoms: C_1  and  C_2
REMARK    2  A    between atoms: C_7  and  C_8
REMARK    3  A    between atoms: C_8  and  C_9
REMARK    4  A    between atoms: N_11  and  C_12
REMARK    5  A    between atoms: C_16  and  C_17
REMARK    6  A    between atoms: N_19  and  C_20
REMARK    7  A    between atoms: N_19  and  C_21
REMARK                            x       y       z     vdW  Elec       q    Type
REMARK                         _______ _______ _______ _____ _____    ______ ____
ROOT
ATOM      1  C   UNL     1       2.087   6.715  19.700  0.00  0.00    +0.000 C 
ATOM      2  O   UNL     1       1.793   5.946  20.611  0.00  0.00    +0.000 OA
ATOM      3  N   UNL     1       2.503   6.318  18.440  0.00  0.00    +0.000 N 
ATOM      4  H   UNL     1       2.628   7.030  17.745  0.00  0.00    +0.000 HD
ENDROOT
BRANCH   3   5
ATOM      5  C   UNL     1       2.523   4.985  18.069  0.00  0.00    +0.000 A 
ATOM      6  N   UNL     1       1.365   4.229  18.151  0.00  0.00    +0.000 N 
ATOM      7  N   UNL     1       1.535   2.930  17.868  0.00  0.00    +0.000 NA
ATOM      8  C   UNL     1       2.807   2.881  17.464  0.00  0.00    +0.000 A 
ATOM      9  C   UNL     1       3.500   4.119  17.600  0.00  0.00    +0.000 A 
ATOM     10  H   UNL     1       0.449   4.547  18.460  0.00  0.00    +0.000 HD
BRANCH   9  11
ATOM     11  C   UNL     1       4.854   4.296  17.071  0.00  0.00    +0.000 C 
ATOM     12  O   UNL     1       5.065   3.984  15.898  0.00  0.00    +0.000 OA
ATOM     13  N   UNL     1       5.899   4.769  17.862  0.00  0.00    +0.000 N 
ATOM     14  C   UNL     1       5.841   5.074  19.270  0.00  0.00    +0.000 C 
ATOM     15  C   UNL     1       7.171   5.084  17.211  0.00  0.00    +0.000 C 
ENDBRANCH   9  11
ENDBRANCH   3   5
BRANCH   1  16
ATOM     16  C   UNL     1       2.057   8.233  19.890  0.00  0.00    +0.000 C 
BRANCH  16  23
ATOM     17  C   UNL     1      -0.116  10.077  18.597  0.00  0.00    +0.000 C 
ATOM     18  C   UNL     1       0.375  10.177  20.048  0.00  0.00    +0.000 C 
ATOM     19  C   UNL     1      -0.752  10.825  20.880  0.00  0.00    +0.000 C 
ATOM     20  C   UNL     1      -0.456  10.857  22.373  0.00  0.00    +0.000 C 
ATOM     21  C   UNL     1      -0.112   9.467  22.887  0.00  0.00    +0.000 C 
ATOM     22  C   UNL     1       1.082   8.891  22.133  0.00  0.00    +0.000 C 
ATOM     23  C   UNL     1       0.814   8.796  20.622  0.00  0.00    +0.000 C 
ENDBRANCH  16  23
ENDBRANCH   1  16
TORSDOF 4
ENDMDL
MODEL 4
REMARK VINA RESULT:      -7.4      4.139      8.252
REMARK  Name = 
REMARK  7 active torsions:
REMARK  status: ('A' for Active; 'I' for Inactive)
REMARK    1  A    between atoms: C_1  and  C_2
REMARK    2  A    between atoms: C_7  and  C_8
REMARK    3  A    between atoms: C_8  and  C_9
REMARK    4  A    between atoms: N_11  and  C_12
REMARK    5  A    between atoms: C_16  and  C_17
REMARK    6  A    between atoms: N_19  and  C_20
REMARK    7  A    between atoms: N_19  and  C_21
REMARK                            x       y       z     vdW  Elec       q    Type
REMARK                         _______ _______ _______ _____ _____    ______ ____
ROOT
ATOM      1  C   UNL     1       8.089   8.685  18.113  0.00  0.00    +0.000 C 
ATOM      2  O   UNL     1       8.696   7.870  18.802  0.00  0.00    +0.000 OA
ATOM      3  N   UNL     1       7.180   8.353  17.122  0.00  0.00    +0.000 N 
ATOM      4  H   UNL     1       6.674   9.101  16.684  0.00  0.00    +0.000 HD
ENDROOT
BRANCH   3   5
ATOM      5  C   UNL     1       6.801   7.042  16.894  0.00  0.00    +0.000 A 
ATOM      6  N   UNL     1       7.715   6.141  16.375  0.00  0.00    +0.000 N 
ATOM      7  N   UNL     1       7.202   4.934  16.099  0.00  0.00    +0.000 NA
ATOM      8  C   UNL     1       5.959   5.025  16.581  0.00  0.00    +0.000 A 
ATOM      9  C   UNL     1       5.623   6.326  17.057  0.00  0.00    +0.000 A 
ATOM     10  H   UNL     1       8.686   6.328  16.132  0.00  0.00    +0.000 HD
BRANCH   9  11
ATOM     11  C   UNL     1       4.362   6.579  17.755  0.00  0.00    +0.000 C 
ATOM     12  O   UNL     1       3.650   7.501  17.353  0.00  0.00    +0.000 OA
ATOM     13  N   UNL     1       3.972   5.838  18.868  0.00  0.00    +0.000 N 
ATOM     14  C   UNL     1       4.737   4.806  19.524  0.00  0.00    +0.000 C 
ATOM     15  C   UNL     1       2.621   6.037  19.394  0.00  0.00    +0.000 C 
ENDBRANCH   9  11
ENDBRANCH   3   5
BRANCH   1  16
ATOM     16  C   UNL     1       8.315  10.191  18.263  0.00  0.00    +0.000 C 
BRANCH  16  23
ATOM     17  C   UNL     1       8.974  10.774  21.267  0.00  0.00    +0.000 C 
ATOM     18  C   UNL     1       9.583  11.518  20.070  0.00  0.00    +0.000 C 
ATOM     19  C   UNL     1      10.949  12.083  20.516  0.00  0.00    +0.000 C 
ATOM     20  C   UNL     1      11.734  12.727  19.381  0.00  0.00    +0.000 C 
ATOM     21  C   UNL     1      11.883  11.766  18.212  0.00  0.00    +0.000 C 
ATOM     22  C   UNL     1      10.518  11.311  17.706  0.00  0.00    +0.000 C 
ATOM     23  C   UNL     1       9.703  10.613  18.807  0.00  0.00    +0.000 C 
ENDBRANCH  16  23
ENDBRANCH   1  16
TORSDOF 4
ENDMDL
MODEL 5
REMARK VINA RESULT:      -7.4      1.807      3.319
REMARK  Name = 
REMARK  7 active torsions:
REMARK  status: ('A' for Active; 'I' for Inactive)
REMARK    1  A    between atoms: C_1  and  C_2
REMARK    2  A    between atoms: C_7  and  C_8
REMARK    3  A    between atoms: C_8  and  C_9
REMARK    4  A    between atoms: N_11  and  C_12
REMARK    5  A    between atoms: C_16  and  C_17
REMARK    6  A    between atoms: N_19  and  C_20
REMARK    7  A    between atoms: N_19  and  C_21
REMARK                            x       y       z     vdW  Elec       q    Type
REMARK                         _______ _______ _______ _____ _____    ______ ____
ROOT
ATOM      1  C   UNL     1       3.570   5.731  17.339  0.00  0.00    +0.000 C 
ATOM      2  O   UNL     1       3.976   6.876  17.169  0.00  0.00    +0.000 OA
ATOM      3  N   UNL     1       4.152   4.601  16.786  0.00  0.00    +0.000 N 
ATOM      4  H   UNL     1       3.792   3.707  17.066  0.00  0.00    +0.000 HD
ENDROOT
BRANCH   3   5
ATOM      5  C   UNL     1       5.328   4.672  16.061  0.00  0.00    +0.000 A 
ATOM      6  N   UNL     1       5.294   4.567  14.681  0.00  0.00    +0.000 N 
ATOM      7  N   UNL     1       6.502   4.542  14.101  0.00  0.00    +0.000 NA
ATOM      8  C   UNL     1       7.326   4.773  15.127  0.00  0.00    +0.000 A 
ATOM      9  C   UNL     1       6.668   4.826  16.390  0.00  0.00    +0.000 A 
ATOM     10  H   UNL     1       4.469   4.444  14.098  0.00  0.00    +0.000 HD
BRANCH   9  11
ATOM     11  C   UNL     1       7.382   5.216  17.606  0.00  0.00    +0.000 C 
ATOM     12  O   UNL     1       7.829   4.325  18.330  0.00  0.00    +0.000 OA
ATOM     13  N   UNL     1       7.535   6.551  17.976  0.00  0.00    +0.000 N 
ATOM     14  C   UNL     1       6.982   7.699  17.301  0.00  0.00    +0.000 C 
ATOM     15  C   UNL     1       8.411   6.860  19.106  0.00  0.00    +0.000 C 
ENDBRANCH   9  11
ENDBRANCH   3   5
BRANCH   1  16
ATOM     16  C   UNL     1       2.321   5.435  18.172  0.00  0.00    +0.000 C 
BRANCH  16  23
ATOM     17  C   UNL     1       2.092   2.343  17.750  0.00  0.00    +0.000 C 
ATOM     18  C   UNL     1       1.630   3.098  19.004  0.00  0.00    +0.000 C 
ATOM     19  C   UNL     1       1.656   2.105  20.185  0.00  0.00    +0.000 C 
ATOM     20  C   UNL     1       1.355   2.757  21.528  0.00  0.00    +0.000 C 
ATOM     21  C   UNL     1       2.278   3.940  21.774  0.00  0.00    +0.000 C 
ATOM     22  C   UNL     1       2.151   4.969  20.656  0.00  0.00    +0.000 C 
ATOM     23  C   UNL     1       2.489   4.368  19.282  0.00  0.00    +0.000 C 
ENDBRANCH  16  23
ENDBRANCH   1  16
TORSDOF 4
ENDMDL
MODEL 6
REMARK VINA RESULT:      -7.2      1.761      2.558
REMARK  Name = 
REMARK  7 active torsions:
REMARK  status: ('A' for Active; 'I' for Inactive)
REMARK    1  A    between atoms: C_1  and  C_2
REMARK    2  A    between atoms: C_7  and  C_8
REMARK    3  A    between atoms: C_8  and  C_9
REMARK    4  A    between atoms: N_11  and  C_12
REMARK    5  A    between atoms: C_16  and  C_17
REMARK    6  A    between atoms: N_19  and  C_20
REMARK    7  A    between atoms: N_19  and  C_21
REMARK                            x       y       z     vdW  Elec       q    Type
REMARK                         _______ _______ _______ _____ _____    ______ ____
ROOT
ATOM      1  C   UNL     1       3.511   5.898  18.000  0.00  0.00    +0.000 C 
ATOM      2  O   UNL     1       3.803   7.090  18.015  0.00  0.00    +0.000 OA
ATOM      3  N   UNL     1       4.416   4.865  18.183  0.00  0.00    +0.000 N 
ATOM      4  H   UNL     1       4.052   3.932  18.243  0.00  0.00    +0.000 HD
ENDROOT
BRANCH   3   5
ATOM      5  C   UNL     1       5.739   5.108  18.505  0.00  0.00    +0.000 A 
ATOM      6  N   UNL     1       6.180   4.908  19.803  0.00  0.00    +0.000 N 
ATOM      7  N   UNL     1       7.451   5.279  20.015  0.00  0.00    +0.000 NA
ATOM      8  C   UNL     1       7.873   5.598  18.788  0.00  0.00    +0.000 A 
ATOM      9  C   UNL     1       6.847   5.553  17.799  0.00  0.00    +0.000 A 
ATOM     10  H   UNL     1       5.627   4.582  20.592  0.00  0.00    +0.000 HD
BRANCH   9  11
ATOM     11  C   UNL     1       7.152   5.725  16.378  0.00  0.00    +0.000 C 
ATOM     12  O   UNL     1       7.755   6.742  16.031  0.00  0.00    +0.000 OA
ATOM     13  N   UNL     1       6.749   4.797  15.420  0.00  0.00    +0.000 N 
ATOM     14  C   UNL     1       5.948   3.620  15.646  0.00  0.00    +0.000 C 
ATOM     15  C   UNL     1       7.246   4.955  14.052  0.00  0.00    +0.000 C 
ENDBRANCH   9  11
ENDBRANCH   3   5
BRANCH   1  16
ATOM     16  C   UNL     1       2.081   5.425  17.732  0.00  0.00    +0.000 C 
BRANCH  16  23
ATOM     17  C   UNL     1       1.555   6.142  20.733  0.00  0.00    +0.000 C 
ATOM     18  C   UNL     1       2.010   4.767  20.221  0.00  0.00    +0.000 C 
ATOM     19  C   UNL     1       1.553   3.711  21.249  0.00  0.00    +0.000 C 
ATOM     20  C   UNL     1       1.814   2.280  20.799  0.00  0.00    +0.000 C 
ATOM     21  C   UNL     1       1.205   2.024  19.429  0.00  0.00    +0.000 C 
ATOM     22  C   UNL     1       1.759   3.002  18.398  0.00  0.00    +0.000 C 
ATOM     23  C   UNL     1       1.480   4.463  18.788  0.00  0.00    +0.000 C 
ENDBRANCH  16  23
ENDBRANCH   1  16
TORSDOF 4
ENDMDL
MODEL 7
REMARK VINA RESULT:      -7.2      4.751      5.989
REMARK  Name = 
REMARK  7 active torsions:
REMARK  status: ('A' for Active; 'I' for Inactive)
REMARK    1  A    between atoms: C_1  and  C_2
REMARK    2  A    between atoms: C_7  and  C_8
REMARK    3  A    between atoms: C_8  and  C_9
REMARK    4  A    between atoms: N_11  and  C_12
REMARK    5  A    between atoms: C_16  and  C_17
REMARK    6  A    between atoms: N_19  and  C_20
REMARK    7  A    between atoms: N_19  and  C_21
REMARK                            x       y       z     vdW  Elec       q    Type
REMARK                         _______ _______ _______ _____ _____    ______ ____
ROOT
ATOM      1  C   UNL     1       1.883   6.941  20.324  0.00  0.00    +0.000 C 
ATOM      2  O   UNL     1       1.153   6.274  21.051  0.00  0.00    +0.000 OA
ATOM      3  N   UNL     1       2.981   6.443  19.642  0.00  0.00    +0.000 N 
ATOM      4  H   UNL     1       3.452   7.057  19.004  0.00  0.00    +0.000 HD
ENDROOT
BRANCH   3   5
ATOM      5  C   UNL     1       3.289   5.094  19.649  0.00  0.00    +0.000 A 
ATOM      6  N   UNL     1       2.294   4.162  19.895  0.00  0.00    +0.000 N 
ATOM      7  N   UNL     1       2.734   2.899  19.982  0.00  0.00    +0.000 NA
ATOM      8  C   UNL     1       4.023   3.012  19.649  0.00  0.00    +0.000 A 
ATOM      9  C   UNL     1       4.451   4.359  19.466  0.00  0.00    +0.000 A 
ATOM     10  H   UNL     1       1.311   4.352  20.075  0.00  0.00    +0.000 HD
BRANCH   9  11
ATOM     11  C   UNL     1       5.786   4.670  18.954  0.00  0.00    +0.000 C 
ATOM     12  O   UNL     1       6.625   5.107  19.744  0.00  0.00    +0.000 OA
ATOM     13  N   UNL     1       6.115   4.519  17.608  0.00  0.00    +0.000 N 
ATOM     14  C   UNL     1       5.224   4.125  16.545  0.00  0.00    +0.000 C 
ATOM     15  C   UNL     1       7.515   4.682  17.215  0.00  0.00    +0.000 C 
ENDBRANCH   9  11
ENDBRANCH   3   5
BRANCH   1  16
ATOM     16  C   UNL     1       1.664   8.443  20.127  0.00  0.00    +0.000 C 
BRANCH  16  23
ATOM     17  C   UNL     1      -0.539  10.273  18.865  0.00  0.00    +0.000 C 
ATOM     18  C   UNL     1       0.022  10.420  20.287  0.00  0.00    +0.000 C 
ATOM     19  C   UNL     1      -1.055  11.119  21.144  0.00  0.00    +0.000 C 
ATOM     20  C   UNL     1      -0.689  11.203  22.620  0.00  0.00    +0.000 C 
ATOM     21  C   UNL     1      -0.343   9.828  23.171  0.00  0.00    +0.000 C 
ATOM     22  C   UNL     1       0.805   9.203  22.386  0.00  0.00    +0.000 C 
ATOM     23  C   UNL     1       0.465   9.055  20.893  0.00  0.00    +0.000 C 
ENDBRANCH  16  23
ENDBRANCH   1  16
TORSDOF 4
ENDMDL
MODEL 8
REMARK VINA RESULT:      -7.1      4.393      5.503
REMARK  Name = 
REMARK  7 active torsions:
REMARK  status: ('A' for Active; 'I' for Inactive)
REMARK    1  A    between atoms: C_1  and  C_2
REMARK    2  A    between atoms: C_7  and  C_8
REMARK    3  A    between atoms: C_8  and  C_9
REMARK    4  A    between atoms: N_11  and  C_12
REMARK    5  A    between atoms: C_16  and  C_17
REMARK    6  A    between atoms: N_19  and  C_20
REMARK    7  A    between atoms: N_19  and  C_21
REMARK                            x       y       z     vdW  Elec       q    Type
REMARK                         _______ _______ _______ _____ _____    ______ ____
ROOT
ATOM      1  C   UNL     1       2.450   6.722  18.892  0.00  0.00    +0.000 C 
ATOM      2  O   UNL     1       1.932   6.109  17.963  0.00  0.00    +0.000 OA
ATOM      3  N   UNL     1       3.230   6.141  19.879  0.00  0.00    +0.000 N 
ATOM      4  H   UNL     1       3.678   6.750  20.538  0.00  0.00    +0.000 HD
ENDROOT
BRANCH   3   5
ATOM      5  C   UNL     1       3.577   4.802  19.835  0.00  0.00    +0.000 A 
ATOM      6  N   UNL     1       2.694   3.845  20.307  0.00  0.00    +0.000 N 
ATOM      7  N   UNL     1       3.184   2.598  20.311  0.00  0.00    +0.000 NA
ATOM      8  C   UNL     1       4.363   2.743  19.699  0.00  0.00    +0.000 A 
ATOM      9  C   UNL     1       4.694   4.099  19.408  0.00  0.00    +0.000 A 
ATOM     10  H   UNL     1       1.768   4.009  20.698  0.00  0.00    +0.000 HD
BRANCH   9  11
ATOM     11  C   UNL     1       5.872   4.440  18.609  0.00  0.00    +0.000 C 
ATOM     12  O   UNL     1       6.902   4.765  19.202  0.00  0.00    +0.000 OA
ATOM     13  N   UNL     1       5.844   4.441  17.216  0.00  0.00    +0.000 N 
ATOM     14  C   UNL     1       4.697   4.192  16.379  0.00  0.00    +0.000 C 
ATOM     15  C   UNL     1       7.107   4.620  16.499  0.00  0.00    +0.000 C 
ENDBRANCH   9  11
ENDBRANCH   3   5
BRANCH   1  16
ATOM     16  C   UNL     1       2.245   8.227  19.075  0.00  0.00    +0.000 C 
BRANCH  16  23
ATOM     17  C   UNL     1      -0.120  10.041  18.120  0.00  0.00    +0.000 C 
ATOM     18  C   UNL     1       0.472  10.038  19.537  0.00  0.00    +0.000 C 
ATOM     19  C   UNL     1      -0.624  10.533  20.503  0.00  0.00    +0.000 C 
ATOM     20  C   UNL     1      -0.219  10.446  21.969  0.00  0.00    +0.000 C 
ATOM     21  C   UNL     1       0.241   9.040  22.321  0.00  0.00    +0.000 C 
ATOM     22  C   UNL     1       1.405   8.612  21.434  0.00  0.00    +0.000 C 
ATOM     23  C   UNL     1       1.030   8.641  19.943  0.00  0.00    +0.000 C 
ENDBRANCH  16  23
ENDBRANCH   1  16
TORSDOF 4
ENDMDL
MODEL 9
REMARK VINA RESULT:      -7.1      5.729      7.012
REMARK  Name = 
REMARK  7 active torsions:
REMARK  status: ('A' for Active; 'I' for Inactive)
REMARK    1  A    between atoms: C_1  and  C_2
REMARK    2  A    between atoms: C_7  and  C_8
REMARK    3  A    between atoms: C_8  and  C_9
REMARK    4  A    between atoms: N_11  and  C_12
REMARK    5  A    between atoms: C_16  and  C_17
REMARK    6  A    between atoms: N_19  and  C_20
REMARK    7  A    between atoms: N_19  and  C_21
REMARK                            x       y       z     vdW  Elec       q    Type
REMARK                         _______ _______ _______ _____ _____    ______ ____
ROOT
ATOM      1  C   UNL     1       2.072   8.532  18.298  0.00  0.00    +0.000 C 
ATOM      2  O   UNL     1       2.289   8.898  17.146  0.00  0.00    +0.000 OA
ATOM      3  N   UNL     1       2.468   7.312  18.823  0.00  0.00    +0.000 N 
ATOM      4  H   UNL     1       2.318   7.156  19.802  0.00  0.00    +0.000 HD
ENDROOT
BRANCH   3   5
ATOM      5  C   UNL     1       3.248   6.429  18.097  0.00  0.00    +0.000 A 
ATOM      6  N   UNL     1       4.486   6.831  17.624  0.00  0.00    +0.000 N 
ATOM      7  N   UNL     1       5.098   5.927  16.847  0.00  0.00    +0.000 NA
ATOM      8  C   UNL     1       4.290   4.867  16.936  0.00  0.00    +0.000 A 
ATOM      9  C   UNL     1       3.093   5.118  17.668  0.00  0.00    +0.000 A 
ATOM     10  H   UNL     1       4.923   7.741  17.754  0.00  0.00    +0.000 HD
BRANCH   9  11
ATOM     11  C   UNL     1       2.160   4.040  17.997  0.00  0.00    +0.000 C 
ATOM     12  O   UNL     1       1.152   3.910  17.301  0.00  0.00    +0.000 OA
ATOM     13  N   UNL     1       2.366   3.192  19.084  0.00  0.00    +0.000 N 
ATOM     14  C   UNL     1       3.430   3.279  20.052  0.00  0.00    +0.000 C 
ATOM     15  C   UNL     1       1.483   2.034  19.235  0.00  0.00    +0.000 C 
ENDBRANCH   9  11
ENDBRANCH   3   5
BRANCH   1  16
ATOM     16  C   UNL     1       1.286   9.400  19.282  0.00  0.00    +0.000 C 
BRANCH  16  23
ATOM     17  C   UNL     1       2.199  12.273  18.439  0.00  0.00    +0.000 C 
ATOM     18  C   UNL     1       0.823  11.921  19.023  0.00  0.00    +0.000 C 
ATOM     19  C   UNL     1      -0.178  12.992  18.541  0.00  0.00    +0.000 C 
ATOM     20  C   UNL     1      -1.619  12.689  18.930  0.00  0.00    +0.000 C 
ATOM     21  C   UNL     1      -2.023  11.298  18.467  0.00  0.00    +0.000 C 
ATOM     22  C   UNL     1      -1.093  10.240  19.051  0.00  0.00    +0.000 C 
ATOM     23  C   UNL     1       0.371  10.478  18.648  0.00  0.00    +0.000 C 
ENDBRANCH  16  23
ENDBRANCH   1  16
TORSDOF 4
ENDMDL
