MODEL 1
REMARK VINA RESULT:      -8.3      0.000      0.000
REMARK  Name = 
REMARK  3 active torsions:
REMARK  status: ('A' for Active; 'I' for Inactive)
REMARK    1  A    between atoms: C_2  and  C_3
REMARK    2  A    between atoms: N_15  and  C_16
REMARK    3  A    between atoms: C_16  and  C_17
REMARK                            x       y       z     vdW  Elec       q    Type
REMARK                         _______ _______ _______ _____ _____    ______ ____
ROOT
ATOM      1  O   UNL     1       8.125   4.379  17.373  0.00  0.00    +0.000 OA
ATOM      2  C   UNL     1       7.019   4.305  16.835  0.00  0.00    +0.000 C 
ATOM      3  N   UNL     1       5.867   4.051  17.606  0.00  0.00    +0.000 N 
ATOM      4  C   UNL     1       4.561   3.714  17.055  0.00  0.00    +0.000 C 
ATOM      5  C   UNL     1       3.596   3.066  18.040  0.00  0.00    +0.000 C 
ATOM      6  C   UNL     1       3.449   3.805  19.388  0.00  0.00    +0.000 C 
ATOM      7  C   UNL     1       2.704   2.851  20.383  0.00  0.00    +0.000 C 
ATOM      8  C   UNL     1       1.561   3.649  20.970  0.00  0.00    +0.000 C 
ATOM      9  C   UNL     1       1.273   4.654  19.890  0.00  0.00    +0.000 C 
ATOM     10  N   UNL     1       2.618   5.051  19.439  0.00  0.00    +0.000 NA
ATOM     11  C   UNL     1       4.875   3.994  19.954  0.00  0.00    +0.000 C 
ATOM     12  C   UNL     1       5.956   4.479  18.999  0.00  0.00    +0.000 C 
ENDROOT
BRANCH   2  13
ATOM     13  C   UNL     1       6.889   4.552  15.397  0.00  0.00    +0.000 A 
ATOM     14  C   UNL     1       6.130   3.824  14.490  0.00  0.00    +0.000 A 
ATOM     15  C   UNL     1       6.426   4.277  13.182  0.00  0.00    +0.000 A 
ATOM     16  C   UNL     1       7.356   5.279  13.305  0.00  0.00    +0.000 A 
ATOM     17  N   UNL     1       7.635   5.430  14.638  0.00  0.00    +0.000 N 
ATOM     18  H   UNL     1       8.358   6.035  14.992  0.00  0.00    +0.000 HD
ENDBRANCH   2  13
BRANCH  10  19
ATOM     19  C   UNL     1       2.508   5.913  18.253  0.00  0.00    +0.000 C 
BRANCH  19  20
ATOM     20  C   UNL     1       2.114   7.349  18.565  0.00  0.00    +0.000 A 
ATOM     21  C   UNL     1       2.031   8.314  17.555  0.00  0.00    +0.000 A 
ATOM     22  C   UNL     1       1.633   9.614  17.868  0.00  0.00    +0.000 A 
ATOM     23  C   UNL     1       1.320   9.915  19.185  0.00  0.00    +0.000 A 
ATOM     24  N   UNL     1       1.388   9.014  20.188  0.00  0.00    +0.000 NA
ATOM     25  C   UNL     1       1.782   7.758  19.859  0.00  0.00    +0.000 A 
ENDBRANCH  19  20
ENDBRANCH  10  19
TORSDOF 3
ENDMDL
MODEL 2
REMARK VINA RESULT:      -7.2      1.020      1.183
REMARK  Name = 
REMARK  3 active torsions:
REMARK  status: ('A' for Active; 'I' for Inactive)
REMARK    1  A    between atoms: C_2  and  C_3
REMARK    2  A    between atoms: N_15  and  C_16
REMARK    3  A    between atoms: C_16  and  C_17
REMARK                            x       y       z     vdW  Elec       q    Type
REMARK                         _______ _______ _______ _____ _____    ______ ____
ROOT
ATOM      1  O   UNL     1       7.838   5.134  17.495  0.00  0.00    +0.000 OA
ATOM      2  C   UNL     1       6.833   4.664  16.959  0.00  0.00    +0.000 C 
ATOM      3  N   UNL     1       5.742   4.236  17.741  0.00  0.00    +0.000 N 
ATOM      4  C   UNL     1       4.617   3.459  17.237  0.00  0.00    +0.000 C 
ATOM      5  C   UNL     1       3.798   2.747  18.305  0.00  0.00    +0.000 C 
ATOM      6  C   UNL     1       3.364   3.635  19.491  0.00  0.00    +0.000 C 
ATOM      7  C   UNL     1       2.837   2.698  20.631  0.00  0.00    +0.000 C 
ATOM      8  C   UNL     1       1.483   3.234  21.039  0.00  0.00    +0.000 C 
ATOM      9  C   UNL     1       1.009   3.918  19.787  0.00  0.00    +0.000 C 
ATOM     10  N   UNL     1       2.226   4.590  19.297  0.00  0.00    +0.000 NA
ATOM     11  C   UNL     1       4.642   4.308  20.041  0.00  0.00    +0.000 C 
ATOM     12  C   UNL     1       5.616   4.904  19.033  0.00  0.00    +0.000 C 
ENDROOT
BRANCH   2  13
ATOM     13  C   UNL     1       6.741   4.614  15.498  0.00  0.00    +0.000 A 
ATOM     14  C   UNL     1       5.992   3.724  14.738  0.00  0.00    +0.000 A 
ATOM     15  C   UNL     1       6.327   3.898  13.373  0.00  0.00    +0.000 A 
ATOM     16  C   UNL     1       7.270   4.894  13.315  0.00  0.00    +0.000 A 
ATOM     17  N   UNL     1       7.519   5.311  14.596  0.00  0.00    +0.000 N 
ATOM     18  H   UNL     1       8.244   5.967  14.839  0.00  0.00    +0.000 HD
ENDBRANCH   2  13
BRANCH  10  19
ATOM     19  C   UNL     1       1.968   5.170  17.970  0.00  0.00    +0.000 C 
BRANCH  19  20
ATOM     20  C   UNL     1       2.206   6.671  17.893  0.00  0.00    +0.000 A 
ATOM     21  C   UNL     1       1.207   7.584  18.247  0.00  0.00    +0.000 A 
ATOM     22  C   UNL     1       1.468   8.953  18.200  0.00  0.00    +0.000 A 
ATOM     23  C   UNL     1       2.728   9.377  17.804  0.00  0.00    +0.000 A 
ATOM     24  N   UNL     1       3.719   8.529  17.453  0.00  0.00    +0.000 NA
ATOM     25  C   UNL     1       3.438   7.203  17.504  0.00  0.00    +0.000 A 
ENDBRANCH  19  20
ENDBRANCH  10  19
TORSDOF 3
ENDMDL
MODEL 3
REMARK VINA RESULT:      -7.0      3.923      7.085
REMARK  Name = 
REMARK  3 active torsions:
REMARK  status: ('A' for Active; 'I' for Inactive)
REMARK    1  A    between atoms: C_2  and  C_3
REMARK    2  A    between atoms: N_15  and  C_16
REMARK    3  A    between atoms: C_16  and  C_17
REMARK                            x       y       z     vdW  Elec       q    Type
REMARK                         _______ _______ _______ _____ _____    ______ ____
ROOT
ATOM      1  O   UNL     1       3.605   7.480  17.492  0.00  0.00    +0.000 OA
ATOM      2  C   UNL     1       2.691   7.456  18.318  0.00  0.00    +0.000 C 
ATOM      3  N   UNL     1       2.147   8.657  18.814  0.00  0.00    +0.000 N 
ATOM      4  C   UNL     1       1.239   8.747  19.951  0.00  0.00    +0.000 C 
ATOM      5  C   UNL     1       1.126  10.131  20.575  0.00  0.00    +0.000 C 
ATOM      6  C   UNL     1       0.866  11.278  19.573  0.00  0.00    +0.000 C 
ATOM      7  C   UNL     1       1.109  12.635  20.317  0.00  0.00    +0.000 C 
ATOM      8  C   UNL     1      -0.113  13.489  20.065  0.00  0.00    +0.000 C 
ATOM      9  C   UNL     1      -1.190  12.464  19.843  0.00  0.00    +0.000 C 
ATOM     10  N   UNL     1      -0.515  11.448  19.017  0.00  0.00    +0.000 NA
ATOM     11  C   UNL     1       1.958  11.179  18.484  0.00  0.00    +0.000 C 
ATOM     12  C   UNL     1       2.266   9.801  17.914  0.00  0.00    +0.000 C 
ENDROOT
BRANCH   2  13
ATOM     13  C   UNL     1       2.117   6.174  18.735  0.00  0.00    +0.000 A 
ATOM     14  C   UNL     1       1.986   5.700  20.034  0.00  0.00    +0.000 A 
ATOM     15  C   UNL     1       1.556   4.352  19.985  0.00  0.00    +0.000 A 
ATOM     16  C   UNL     1       1.424   4.020  18.660  0.00  0.00    +0.000 A 
ATOM     17  N   UNL     1       1.772   5.117  17.917  0.00  0.00    +0.000 N 
ATOM     18  H   UNL     1       1.854   5.109  16.913  0.00  0.00    +0.000 HD
ENDBRANCH   2  13
BRANCH  10  19
ATOM     19  C   UNL     1      -1.393  10.281  18.854  0.00  0.00    +0.000 C 
BRANCH  19  20
ATOM     20  C   UNL     1      -2.311  10.359  17.643  0.00  0.00    +0.000 A 
ATOM     21  C   UNL     1      -1.966   9.753  16.430  0.00  0.00    +0.000 A 
ATOM     22  C   UNL     1      -2.846   9.812  15.349  0.00  0.00    +0.000 A 
ATOM     23  C   UNL     1      -4.055  10.473  15.511  0.00  0.00    +0.000 A 
ATOM     24  N   UNL     1      -4.425  11.071  16.663  0.00  0.00    +0.000 NA
ATOM     25  C   UNL     1      -3.550  11.003  17.698  0.00  0.00    +0.000 A 
ENDBRANCH  19  20
ENDBRANCH  10  19
TORSDOF 3
ENDMDL
MODEL 4
REMARK VINA RESULT:      -7.0      0.997      1.307
REMARK  Name = 
REMARK  3 active torsions:
REMARK  status: ('A' for Active; 'I' for Inactive)
REMARK    1  A    between atoms: C_2  and  C_3
REMARK    2  A    between atoms: N_15  and  C_16
REMARK    3  A    between atoms: C_16  and  C_17
REMARK                            x       y       z     vdW  Elec       q    Type
REMARK                         _______ _______ _______ _____ _____    ______ ____
ROOT
ATOM      1  O   UNL     1       7.887   4.465  16.674  0.00  0.00    +0.000 OA
ATOM      2  C   UNL     1       6.721   4.224  16.358  0.00  0.00    +0.000 C 
ATOM      3  N   UNL     1       5.746   3.999  17.351  0.00  0.00    +0.000 N 
ATOM      4  C   UNL     1       4.408   3.482  17.093  0.00  0.00    +0.000 C 
ATOM      5  C   UNL     1       3.693   2.916  18.313  0.00  0.00    +0.000 C 
ATOM      6  C   UNL     1       3.696   3.835  19.554  0.00  0.00    +0.000 C 
ATOM      7  C   UNL     1       3.230   2.986  20.786  0.00  0.00    +0.000 C 
ATOM      8  C   UNL     1       2.125   3.771  21.456  0.00  0.00    +0.000 C 
ATOM      9  C   UNL     1       1.558   4.576  20.319  0.00  0.00    +0.000 C 
ATOM     10  N   UNL     1       2.761   5.005  19.586  0.00  0.00    +0.000 NA
ATOM     11  C   UNL     1       5.169   4.218  19.825  0.00  0.00    +0.000 C 
ATOM     12  C   UNL     1       6.021   4.638  18.635  0.00  0.00    +0.000 C 
ENDROOT
BRANCH   2  13
ATOM     13  C   UNL     1       6.328   4.240  14.947  0.00  0.00    +0.000 A 
ATOM     14  C   UNL     1       5.289   4.965  14.378  0.00  0.00    +0.000 A 
ATOM     15  C   UNL     1       5.134   4.556  13.031  0.00  0.00    +0.000 A 
ATOM     16  C   UNL     1       6.083   3.593  12.792  0.00  0.00    +0.000 A 
ATOM     17  N   UNL     1       6.789   3.404  13.950  0.00  0.00    +0.000 N 
ATOM     18  H   UNL     1       7.481   2.682  14.072  0.00  0.00    +0.000 HD
ENDBRANCH   2  13
BRANCH  10  19
ATOM     19  C   UNL     1       2.366   5.667  18.334  0.00  0.00    +0.000 C 
BRANCH  19  20
ATOM     20  C   UNL     1       2.075   7.153  18.483  0.00  0.00    +0.000 A 
ATOM     21  C   UNL     1       1.646   7.690  19.702  0.00  0.00    +0.000 A 
ATOM     22  C   UNL     1       1.422   9.062  19.816  0.00  0.00    +0.000 A 
ATOM     23  C   UNL     1       1.639   9.866  18.707  0.00  0.00    +0.000 A 
ATOM     24  N   UNL     1       2.051   9.388  17.513  0.00  0.00    +0.000 NA
ATOM     25  C   UNL     1       2.258   8.050  17.427  0.00  0.00    +0.000 A 
ENDBRANCH  19  20
ENDBRANCH  10  19
TORSDOF 3
ENDMDL
MODEL 5
REMARK VINA RESULT:      -6.9      2.169      2.961
REMARK  Name = 
REMARK  3 active torsions:
REMARK  status: ('A' for Active; 'I' for Inactive)
REMARK    1  A    between atoms: C_2  and  C_3
REMARK    2  A    between atoms: N_15  and  C_16
REMARK    3  A    between atoms: C_16  and  C_17
REMARK                            x       y       z     vdW  Elec       q    Type
REMARK                         _______ _______ _______ _____ _____    ______ ____
ROOT
ATOM      1  O   UNL     1       8.061   4.328  18.032  0.00  0.00    +0.000 OA
ATOM      2  C   UNL     1       7.230   5.238  18.001  0.00  0.00    +0.000 C 
ATOM      3  N   UNL     1       5.854   4.950  18.093  0.00  0.00    +0.000 N 
ATOM      4  C   UNL     1       4.789   5.911  17.834  0.00  0.00    +0.000 C 
ATOM      5  C   UNL     1       3.421   5.298  17.566  0.00  0.00    +0.000 C 
ATOM      6  C   UNL     1       2.968   4.241  18.597  0.00  0.00    +0.000 C 
ATOM      7  C   UNL     1       1.730   3.486  18.004  0.00  0.00    +0.000 C 
ATOM      8  C   UNL     1       0.656   3.519  19.068  0.00  0.00    +0.000 C 
ATOM      9  C   UNL     1       0.996   4.764  19.840  0.00  0.00    +0.000 C 
ATOM     10  N   UNL     1       2.466   4.705  19.930  0.00  0.00    +0.000 NA
ATOM     11  C   UNL     1       4.104   3.197  18.699  0.00  0.00    +0.000 C 
ATOM     12  C   UNL     1       5.532   3.714  18.801  0.00  0.00    +0.000 C 
ENDROOT
BRANCH   2  13
ATOM     13  C   UNL     1       7.677   6.632  17.941  0.00  0.00    +0.000 A 
ATOM     14  C   UNL     1       8.394   7.322  18.909  0.00  0.00    +0.000 A 
ATOM     15  C   UNL     1       8.460   8.687  18.541  0.00  0.00    +0.000 A 
ATOM     16  C   UNL     1       7.787   8.814  17.351  0.00  0.00    +0.000 A 
ATOM     17  N   UNL     1       7.313   7.577  17.003  0.00  0.00    +0.000 N 
ATOM     18  H   UNL     1       6.702   7.413  16.219  0.00  0.00    +0.000 HD
ENDBRANCH   2  13
BRANCH  10  19
ATOM     19  C   UNL     1       2.974   5.955  20.515  0.00  0.00    +0.000 C 
BRANCH  19  20
ATOM     20  C   UNL     1       2.075   7.160  20.281  0.00  0.00    +0.000 A 
ATOM     21  C   UNL     1       1.176   7.596  21.260  0.00  0.00    +0.000 A 
ATOM     22  C   UNL     1       0.392   8.726  21.029  0.00  0.00    +0.000 A 
ATOM     23  C   UNL     1       0.531   9.398  19.824  0.00  0.00    +0.000 A 
ATOM     24  N   UNL     1       1.386   9.009  18.853  0.00  0.00    +0.000 NA
ATOM     25  C   UNL     1       2.134   7.905  19.100  0.00  0.00    +0.000 A 
ENDBRANCH  19  20
ENDBRANCH  10  19
TORSDOF 3
ENDMDL
MODEL 6
REMARK VINA RESULT:      -6.9      3.989      7.114
REMARK  Name = 
REMARK  3 active torsions:
REMARK  status: ('A' for Active; 'I' for Inactive)
REMARK    1  A    between atoms: C_2  and  C_3
REMARK    2  A    between atoms: N_15  and  C_16
REMARK    3  A    between atoms: C_16  and  C_17
REMARK                            x       y       z     vdW  Elec       q    Type
REMARK                         _______ _______ _______ _____ _____    ______ ____
ROOT
ATOM      1  O   UNL     1       3.540   6.790  17.790  0.00  0.00    +0.000 OA
ATOM      2  C   UNL     1       2.626   6.946  18.601  0.00  0.00    +0.000 C 
ATOM      3  N   UNL     1       2.177   8.241  18.928  0.00  0.00    +0.000 N 
ATOM      4  C   UNL     1       1.278   8.550  20.033  0.00  0.00    +0.000 C 
ATOM      5  C   UNL     1       1.274  10.010  20.468  0.00  0.00    +0.000 C 
ATOM      6  C   UNL     1       1.105  11.030  19.321  0.00  0.00    +0.000 C 
ATOM      7  C   UNL     1       1.453  12.451  19.883  0.00  0.00    +0.000 C 
ATOM      8  C   UNL     1       0.302  13.356  19.507  0.00  0.00    +0.000 C 
ATOM      9  C   UNL     1      -0.852  12.397  19.410  0.00  0.00    +0.000 C 
ATOM     10  N   UNL     1      -0.257  11.232  18.732  0.00  0.00    +0.000 NA
ATOM     11  C   UNL     1       2.188  10.704  18.267  0.00  0.00    +0.000 C 
ATOM     12  C   UNL     1       2.387   9.243  17.887  0.00  0.00    +0.000 C 
ENDROOT
BRANCH   2  13
ATOM     13  C   UNL     1       1.953   5.779  19.177  0.00  0.00    +0.000 A 
ATOM     14  C   UNL     1       1.812   5.476  20.525  0.00  0.00    +0.000 A 
ATOM     15  C   UNL     1       1.266   4.176  20.644  0.00  0.00    +0.000 A 
ATOM     16  C   UNL     1       1.075   3.702  19.370  0.00  0.00    +0.000 A 
ATOM     17  N   UNL     1       1.499   4.667  18.496  0.00  0.00    +0.000 N 
ATOM     18  H   UNL     1       1.557   4.532  17.499  0.00  0.00    +0.000 HD
ENDBRANCH   2  13
BRANCH  10  19
ATOM     19  C   UNL     1      -1.225  10.125  18.714  0.00  0.00    +0.000 C 
BRANCH  19  20
ATOM     20  C   UNL     1      -2.309  10.265  17.656  0.00  0.00    +0.000 A 
ATOM     21  C   UNL     1      -3.527  10.890  17.943  0.00  0.00    +0.000 A 
ATOM     22  C   UNL     1      -4.486  11.036  16.940  0.00  0.00    +0.000 A 
ATOM     23  C   UNL     1      -4.200  10.556  15.671  0.00  0.00    +0.000 A 
ATOM     24  N   UNL     1      -3.038   9.946  15.353  0.00  0.00    +0.000 NA
ATOM     25  C   UNL     1      -2.123   9.814  16.346  0.00  0.00    +0.000 A 
ENDBRANCH  19  20
ENDBRANCH  10  19
TORSDOF 3
ENDMDL
MODEL 7
REMARK VINA RESULT:      -6.9      8.372     10.573
REMARK  Name = 
REMARK  3 active torsions:
REMARK  status: ('A' for Active; 'I' for Inactive)
REMARK    1  A    between atoms: C_2  and  C_3
REMARK    2  A    between atoms: N_15  and  C_16
REMARK    3  A    between atoms: C_16  and  C_17
REMARK                            x       y       z     vdW  Elec       q    Type
REMARK                         _______ _______ _______ _____ _____    ______ ____
ROOT
ATOM      1  O   UNL     1       0.007   9.952  18.567  0.00  0.00    +0.000 OA
ATOM      2  C   UNL     1      -0.971  10.699  18.645  0.00  0.00    +0.000 C 
ATOM      3  N   UNL     1      -1.093  11.604  19.718  0.00  0.00    +0.000 N 
ATOM      4  C   UNL     1      -2.302  12.355  20.032  0.00  0.00    +0.000 C 
ATOM      5  C   UNL     1      -2.358  12.919  21.446  0.00  0.00    +0.000 C 
ATOM      6  C   UNL     1      -1.099  13.697  21.886  0.00  0.00    +0.000 C 
ATOM      7  C   UNL     1      -1.179  13.911  23.436  0.00  0.00    +0.000 C 
ATOM      8  C   UNL     1      -0.945  15.385  23.680  0.00  0.00    +0.000 C 
ATOM      9  C   UNL     1      -1.415  16.009  22.396  0.00  0.00    +0.000 C 
ATOM     10  N   UNL     1      -0.894  15.088  21.370  0.00  0.00    +0.000 NA
ATOM     11  C   UNL     1       0.112  12.767  21.640  0.00  0.00    +0.000 C 
ATOM     12  C   UNL     1       0.172  12.021  20.315  0.00  0.00    +0.000 C 
ENDROOT
BRANCH   2  13
ATOM     13  C   UNL     1      -1.977  10.697  17.580  0.00  0.00    +0.000 A 
ATOM     14  C   UNL     1      -2.954   9.736  17.356  0.00  0.00    +0.000 A 
ATOM     15  C   UNL     1      -3.594  10.016  16.124  0.00  0.00    +0.000 A 
ATOM     16  C   UNL     1      -3.005  11.146  15.614  0.00  0.00    +0.000 A 
ATOM     17  N   UNL     1      -2.030  11.542  16.490  0.00  0.00    +0.000 N 
ATOM     18  H   UNL     1      -1.382  12.291  16.304  0.00  0.00    +0.000 HD
ENDBRANCH   2  13
BRANCH  10  19
ATOM     19  C   UNL     1      -1.421  15.470  20.051  0.00  0.00    +0.000 C 
BRANCH  19  20
ATOM     20  C   UNL     1      -0.423  16.215  19.177  0.00  0.00    +0.000 A 
ATOM     21  C   UNL     1      -0.832  17.245  18.323  0.00  0.00    +0.000 A 
ATOM     22  C   UNL     1       0.113  17.933  17.562  0.00  0.00    +0.000 A 
ATOM     23  C   UNL     1       1.448  17.577  17.679  0.00  0.00    +0.000 A 
ATOM     24  N   UNL     1       1.884  16.589  18.490  0.00  0.00    +0.000 NA
ATOM     25  C   UNL     1       0.946  15.933  19.216  0.00  0.00    +0.000 A 
ENDBRANCH  19  20
ENDBRANCH  10  19
TORSDOF 3
ENDMDL
MODEL 8
REMARK VINA RESULT:      -6.8      2.875      4.550
REMARK  Name = 
REMARK  3 active torsions:
REMARK  status: ('A' for Active; 'I' for Inactive)
REMARK    1  A    between atoms: C_2  and  C_3
REMARK    2  A    between atoms: N_15  and  C_16
REMARK    3  A    between atoms: C_16  and  C_17
REMARK                            x       y       z     vdW  Elec       q    Type
REMARK                         _______ _______ _______ _____ _____    ______ ____
ROOT
ATOM      1  O   UNL     1       7.755   5.466  12.389  0.00  0.00    +0.000 OA
ATOM      2  C   UNL     1       7.061   4.640  12.986  0.00  0.00    +0.000 C 
ATOM      3  N   UNL     1       6.931   4.700  14.388  0.00  0.00    +0.000 N 
ATOM      4  C   UNL     1       6.337   3.653  15.208  0.00  0.00    +0.000 C 
ATOM      5  C   UNL     1       6.686   3.722  16.690  0.00  0.00    +0.000 C 
ATOM      6  C   UNL     1       6.487   5.108  17.341  0.00  0.00    +0.000 C 
ATOM      7  C   UNL     1       7.193   5.091  18.740  0.00  0.00    +0.000 C 
ATOM      8  C   UNL     1       6.177   5.592  19.741  0.00  0.00    +0.000 C 
ATOM      9  C   UNL     1       4.870   5.223  19.096  0.00  0.00    +0.000 C 
ATOM     10  N   UNL     1       5.096   5.552  17.678  0.00  0.00    +0.000 NA
ATOM     11  C   UNL     1       7.264   6.126  16.475  0.00  0.00    +0.000 C 
ATOM     12  C   UNL     1       7.113   6.030  14.964  0.00  0.00    +0.000 C 
ENDROOT
BRANCH   2  13
ATOM     13  C   UNL     1       6.311   3.634  12.230  0.00  0.00    +0.000 A 
ATOM     14  C   UNL     1       4.962   3.670  11.904  0.00  0.00    +0.000 A 
ATOM     15  C   UNL     1       4.599   2.426  11.334  0.00  0.00    +0.000 A 
ATOM     16  C   UNL     1       5.729   1.648  11.315  0.00  0.00    +0.000 A 
ATOM     17  N   UNL     1       6.750   2.378  11.863  0.00  0.00    +0.000 N 
ATOM     18  H   UNL     1       7.665   2.004  12.055  0.00  0.00    +0.000 HD
ENDBRANCH   2  13
BRANCH  10  19
ATOM     19  C   UNL     1       3.958   5.083  16.874  0.00  0.00    +0.000 C 
BRANCH  19  20
ATOM     20  C   UNL     1       3.079   4.061  17.581  0.00  0.00    +0.000 A 
ATOM     21  C   UNL     1       1.802   4.397  18.042  0.00  0.00    +0.000 A 
ATOM     22  C   UNL     1       1.007   3.427  18.653  0.00  0.00    +0.000 A 
ATOM     23  C   UNL     1       1.509   2.140  18.783  0.00  0.00    +0.000 A 
ATOM     24  N   UNL     1       2.735   1.776  18.352  0.00  0.00    +0.000 NA
ATOM     25  C   UNL     1       3.490   2.738  17.765  0.00  0.00    +0.000 A 
ENDBRANCH  19  20
ENDBRANCH  10  19
TORSDOF 3
ENDMDL
MODEL 9
REMARK VINA RESULT:      -6.7      8.467     10.692
REMARK  Name = 
REMARK  3 active torsions:
REMARK  status: ('A' for Active; 'I' for Inactive)
REMARK    1  A    between atoms: C_2  and  C_3
REMARK    2  A    between atoms: N_15  and  C_16
REMARK    3  A    between atoms: C_16  and  C_17
REMARK                            x       y       z     vdW  Elec       q    Type
REMARK                         _______ _______ _______ _____ _____    ______ ____
ROOT
ATOM      1  O   UNL     1      -0.051   9.981  19.015  0.00  0.00    +0.000 OA
ATOM      2  C   UNL     1      -1.027  10.733  18.989  0.00  0.00    +0.000 C 
ATOM      3  N   UNL     1      -1.235  11.668  20.023  0.00  0.00    +0.000 N 
ATOM      4  C   UNL     1      -2.461  12.432  20.213  0.00  0.00    +0.000 C 
ATOM      5  C   UNL     1      -2.633  13.035  21.601  0.00  0.00    +0.000 C 
ATOM      6  C   UNL     1      -1.411  13.819  22.126  0.00  0.00    +0.000 C 
ATOM      7  C   UNL     1      -1.622  14.076  23.657  0.00  0.00    +0.000 C 
ATOM      8  C   UNL     1      -1.400  15.555  23.881  0.00  0.00    +0.000 C 
ATOM      9  C   UNL     1      -1.755  16.146  22.544  0.00  0.00    +0.000 C 
ATOM     10  N   UNL     1      -1.155  15.195  21.592  0.00  0.00    +0.000 NA
ATOM     11  C   UNL     1      -0.190  12.879  22.009  0.00  0.00    +0.000 C 
ATOM     12  C   UNL     1      -0.022  12.096  20.714  0.00  0.00    +0.000 C 
ENDROOT
BRANCH   2  13
ATOM     13  C   UNL     1      -1.939  10.706  17.843  0.00  0.00    +0.000 A 
ATOM     14  C   UNL     1      -2.877   9.726  17.545  0.00  0.00    +0.000 A 
ATOM     15  C   UNL     1      -3.414   9.987  16.261  0.00  0.00    +0.000 A 
ATOM     16  C   UNL     1      -2.804  11.124  15.793  0.00  0.00    +0.000 A 
ATOM     17  N   UNL     1      -1.913  11.543  16.746  0.00  0.00    +0.000 N 
ATOM     18  H   UNL     1      -1.265  12.302  16.609  0.00  0.00    +0.000 HD
ENDBRANCH   2  13
BRANCH  10  19
ATOM     19  C   UNL     1      -1.565  15.543  20.224  0.00  0.00    +0.000 C 
BRANCH  19  20
ATOM     20  C   UNL     1      -0.471  16.203  19.397  0.00  0.00    +0.000 A 
ATOM     21  C   UNL     1       0.870  15.831  19.539  0.00  0.00    +0.000 A 
ATOM     22  C   UNL     1       1.845  16.430  18.741  0.00  0.00    +0.000 A 
ATOM     23  C   UNL     1       1.453  17.384  17.814  0.00  0.00    +0.000 A 
ATOM     24  N   UNL     1       0.170  17.771  17.646  0.00  0.00    +0.000 NA
ATOM     25  C   UNL     1      -0.758  17.177  18.437  0.00  0.00    +0.000 A 
ENDBRANCH  19  20
ENDBRANCH  10  19
TORSDOF 3
ENDMDL
