MODEL 1
REMARK VINA RESULT:      -7.8      0.000      0.000
REMARK  Name = 
REMARK  5 active torsions:
REMARK  status: ('A' for Active; 'I' for Inactive)
REMARK    1  A    between atoms: C_1  and  O_2
REMARK    2  A    between atoms: O_2  and  C_3
REMARK    3  A    between atoms: N_9  and  P_10
REMARK    4  A    between atoms: P_10  and  C_12
REMARK    5  A    between atoms: P_10  and  C_18
REMARK                            x       y       z     vdW  Elec       q    Type
REMARK                         _______ _______ _______ _____ _____    ______ ____
ROOT
ATOM      1  P   UNL     1       3.975   5.781  18.813  0.00  0.00    +0.000 P 
ATOM      2  O   UNL     1       5.094   5.631  19.879  0.00  0.00    +0.000 OA
ENDROOT
BRANCH   1   9
ATOM      3  C   UNL     1      -0.316  11.333  19.693  0.00  0.00    +0.000 A 
ATOM      4  C   UNL     1      -0.100  10.997  18.358  0.00  0.00    +0.000 A 
ATOM      5  C   UNL     1       0.631   9.849  18.019  0.00  0.00    +0.000 A 
ATOM      6  C   UNL     1       1.163   9.030  19.032  0.00  0.00    +0.000 A 
ATOM      7  N   UNL     1       1.927   7.892  18.835  0.00  0.00    +0.000 NA
ATOM      8  C   UNL     1       2.197   7.323  19.985  0.00  0.00    +0.000 A 
ATOM      9  N   UNL     1       2.830   6.149  20.125  0.00  0.00    +0.000 N 
ATOM     10  S   UNL     1       1.630   8.169  21.372  0.00  0.00    +0.000 S 
ATOM     11  C   UNL     1       0.917   9.366  20.364  0.00  0.00    +0.000 A 
ATOM     12  C   UNL     1       0.185  10.513  20.715  0.00  0.00    +0.000 A 
ATOM     13  H   UNL     1       3.231   5.903  21.019  0.00  0.00    +0.000 HD
BRANCH   3  15
ATOM     14  C   UNL     1      -2.407  12.449  19.896  0.00  0.00    +0.000 C 
ATOM     15  O   UNL     1      -1.003  12.433  20.132  0.00  0.00    +0.000 OA
ENDBRANCH   3  15
ENDBRANCH   1   9
BRANCH   1  16
ATOM     16  C   UNL     1       3.036   4.054  18.611  0.00  0.00    +0.000 A 
ATOM     17  C   UNL     1       3.792   2.870  18.507  0.00  0.00    +0.000 A 
ATOM     18  C   UNL     1       3.145   1.636  18.482  0.00  0.00    +0.000 A 
ATOM     19  C   UNL     1       1.750   1.583  18.509  0.00  0.00    +0.000 A 
ATOM     20  C   UNL     1       0.999   2.763  18.541  0.00  0.00    +0.000 A 
ATOM     21  C   UNL     1       1.637   4.004  18.592  0.00  0.00    +0.000 A 
ENDBRANCH   1  16
BRANCH   1  22
ATOM     22  C   UNL     1       5.153   5.404  17.464  0.00  0.00    +0.000 A 
ATOM     23  C   UNL     1       4.793   5.484  16.110  0.00  0.00    +0.000 A 
ATOM     24  C   UNL     1       5.690   5.139  15.092  0.00  0.00    +0.000 A 
ATOM     25  C   UNL     1       6.982   4.703  15.396  0.00  0.00    +0.000 A 
ATOM     26  C   UNL     1       7.367   4.590  16.721  0.00  0.00    +0.000 A 
ATOM     27  C   UNL     1       6.454   4.912  17.727  0.00  0.00    +0.000 A 
ENDBRANCH   1  22
TORSDOF 4
ENDMDL
MODEL 2
REMARK VINA RESULT:      -7.8      1.974      4.266
REMARK  Name = 
REMARK  5 active torsions:
REMARK  status: ('A' for Active; 'I' for Inactive)
REMARK    1  A    between atoms: C_1  and  O_2
REMARK    2  A    between atoms: O_2  and  C_3
REMARK    3  A    between atoms: N_9  and  P_10
REMARK    4  A    between atoms: P_10  and  C_12
REMARK    5  A    between atoms: P_10  and  C_18
REMARK                            x       y       z     vdW  Elec       q    Type
REMARK                         _______ _______ _______ _____ _____    ______ ____
ROOT
ATOM      1  P   UNL     1       2.352   6.265  18.821  0.00  0.00    +0.000 P 
ATOM      2  O   UNL     1       1.532   6.264  17.502  0.00  0.00    +0.000 OA
ENDROOT
BRANCH   1   9
ATOM      3  C   UNL     1      -0.983  11.431  22.314  0.00  0.00    +0.000 A 
ATOM      4  C   UNL     1      -0.793  10.276  23.069  0.00  0.00    +0.000 A 
ATOM      5  C   UNL     1      -0.044   9.205  22.561  0.00  0.00    +0.000 A 
ATOM      6  C   UNL     1       0.515   9.287  21.272  0.00  0.00    +0.000 A 
ATOM      7  N   UNL     1       1.244   8.294  20.641  0.00  0.00    +0.000 NA
ATOM      8  C   UNL     1       1.683   8.721  19.482  0.00  0.00    +0.000 A 
ATOM      9  N   UNL     1       2.506   8.032  18.677  0.00  0.00    +0.000 N 
ATOM     10  S   UNL     1       1.169  10.303  19.041  0.00  0.00    +0.000 S 
ATOM     11  C   UNL     1       0.337  10.461  20.538  0.00  0.00    +0.000 A 
ATOM     12  C   UNL     1      -0.411  11.541  21.038  0.00  0.00    +0.000 A 
ATOM     13  H   UNL     1       2.590   8.299  17.706  0.00  0.00    +0.000 HD
BRANCH   3  15
ATOM     14  C   UNL     1      -2.919  12.277  23.409  0.00  0.00    +0.000 C 
ATOM     15  O   UNL     1      -1.703  12.526  22.710  0.00  0.00    +0.000 OA
ENDBRANCH   3  15
ENDBRANCH   1   9
BRANCH   1  16
ATOM     16  C   UNL     1       4.278   6.161  18.389  0.00  0.00    +0.000 A 
ATOM     17  C   UNL     1       4.764   6.839  17.255  0.00  0.00    +0.000 A 
ATOM     18  C   UNL     1       6.134   6.872  17.002  0.00  0.00    +0.000 A 
ATOM     19  C   UNL     1       7.012   6.190  17.847  0.00  0.00    +0.000 A 
ATOM     20  C   UNL     1       6.521   5.459  18.934  0.00  0.00    +0.000 A 
ATOM     21  C   UNL     1       5.152   5.439  19.211  0.00  0.00    +0.000 A 
ENDBRANCH   1  16
BRANCH   1  22
ATOM     22  C   UNL     1       2.193   4.448  18.970  0.00  0.00    +0.000 A 
ATOM     23  C   UNL     1       2.399   3.586  17.881  0.00  0.00    +0.000 A 
ATOM     24  C   UNL     1       2.219   2.203  17.999  0.00  0.00    +0.000 A 
ATOM     25  C   UNL     1       1.829   1.634  19.214  0.00  0.00    +0.000 A 
ATOM     26  C   UNL     1       1.595   2.454  20.304  0.00  0.00    +0.000 A 
ATOM     27  C   UNL     1       1.751   3.834  20.167  0.00  0.00    +0.000 A 
ENDBRANCH   1  22
TORSDOF 4
ENDMDL
MODEL 3
REMARK VINA RESULT:      -7.8      0.508      1.067
REMARK  Name = 
REMARK  5 active torsions:
REMARK  status: ('A' for Active; 'I' for Inactive)
REMARK    1  A    between atoms: C_1  and  O_2
REMARK    2  A    between atoms: O_2  and  C_3
REMARK    3  A    between atoms: N_9  and  P_10
REMARK    4  A    between atoms: P_10  and  C_12
REMARK    5  A    between atoms: P_10  and  C_18
REMARK                            x       y       z     vdW  Elec       q    Type
REMARK                         _______ _______ _______ _____ _____    ______ ____
ROOT
ATOM      1  P   UNL     1       3.901   5.742  18.829  0.00  0.00    +0.000 P 
ATOM      2  O   UNL     1       5.005   5.609  19.913  0.00  0.00    +0.000 OA
ENDROOT
BRANCH   1   9
ATOM      3  C   UNL     1      -0.128  11.475  19.786  0.00  0.00    +0.000 A 
ATOM      4  C   UNL     1       0.111  11.175  18.446  0.00  0.00    +0.000 A 
ATOM      5  C   UNL     1       0.792  10.003  18.088  0.00  0.00    +0.000 A 
ATOM      6  C   UNL     1       1.252   9.123  19.084  0.00  0.00    +0.000 A 
ATOM      7  N   UNL     1       1.962   7.955  18.869  0.00  0.00    +0.000 NA
ATOM      8  C   UNL     1       2.168   7.333  20.004  0.00  0.00    +0.000 A 
ATOM      9  N   UNL     1       2.737   6.124  20.120  0.00  0.00    +0.000 N 
ATOM     10  S   UNL     1       1.603   8.159  21.405  0.00  0.00    +0.000 S 
ATOM     11  C   UNL     1       0.983   9.425  20.421  0.00  0.00    +0.000 A 
ATOM     12  C   UNL     1       0.300  10.596  20.792  0.00  0.00    +0.000 A 
ATOM     13  H   UNL     1       3.097   5.827  21.016  0.00  0.00    +0.000 HD
BRANCH   3  15
ATOM     14  C   UNL     1      -0.690  12.854  21.642  0.00  0.00    +0.000 C 
ATOM     15  O   UNL     1      -0.771  12.594  20.244  0.00  0.00    +0.000 OA
ENDBRANCH   3  15
ENDBRANCH   1   9
BRANCH   1  16
ATOM     16  C   UNL     1       2.968   4.010  18.635  0.00  0.00    +0.000 A 
ATOM     17  C   UNL     1       3.728   2.840  18.446  0.00  0.00    +0.000 A 
ATOM     18  C   UNL     1       3.094   1.599  18.425  0.00  0.00    +0.000 A 
ATOM     19  C   UNL     1       1.705   1.528  18.541  0.00  0.00    +0.000 A 
ATOM     20  C   UNL     1       0.945   2.697  18.659  0.00  0.00    +0.000 A 
ATOM     21  C   UNL     1       1.571   3.944  18.707  0.00  0.00    +0.000 A 
ENDBRANCH   1  16
BRANCH   1  22
ATOM     22  C   UNL     1       5.098   5.351  17.502  0.00  0.00    +0.000 A 
ATOM     23  C   UNL     1       6.396   4.891  17.775  0.00  0.00    +0.000 A 
ATOM     24  C   UNL     1       7.317   4.648  16.749  0.00  0.00    +0.000 A 
ATOM     25  C   UNL     1       6.970   4.857  15.412  0.00  0.00    +0.000 A 
ATOM     26  C   UNL     1       5.706   5.331  15.105  0.00  0.00    +0.000 A 
ATOM     27  C   UNL     1       4.805   5.595  16.138  0.00  0.00    +0.000 A 
ENDBRANCH   1  22
TORSDOF 4
ENDMDL
MODEL 4
REMARK VINA RESULT:      -7.7      1.967      4.223
REMARK  Name = 
REMARK  5 active torsions:
REMARK  status: ('A' for Active; 'I' for Inactive)
REMARK    1  A    between atoms: C_1  and  O_2
REMARK    2  A    between atoms: O_2  and  C_3
REMARK    3  A    between atoms: N_9  and  P_10
REMARK    4  A    between atoms: P_10  and  C_12
REMARK    5  A    between atoms: P_10  and  C_18
REMARK                            x       y       z     vdW  Elec       q    Type
REMARK                         _______ _______ _______ _____ _____    ______ ____
ROOT
ATOM      1  P   UNL     1       2.287   6.302  18.778  0.00  0.00    +0.000 P 
ATOM      2  O   UNL     1       1.492   6.330  17.444  0.00  0.00    +0.000 OA
ENDROOT
BRANCH   1   9
ATOM      3  C   UNL     1      -0.931  11.389  22.491  0.00  0.00    +0.000 A 
ATOM      4  C   UNL     1      -0.725  10.213  23.211  0.00  0.00    +0.000 A 
ATOM      5  C   UNL     1       0.005   9.154  22.655  0.00  0.00    +0.000 A 
ATOM      6  C   UNL     1       0.529   9.266  21.354  0.00  0.00    +0.000 A 
ATOM      7  N   UNL     1       1.237   8.287  20.678  0.00  0.00    +0.000 NA
ATOM      8  C   UNL     1       1.647   8.743  19.519  0.00  0.00    +0.000 A 
ATOM      9  N   UNL     1       2.445   8.072  18.675  0.00  0.00    +0.000 N 
ATOM     10  S   UNL     1       1.127  10.337  19.133  0.00  0.00    +0.000 S 
ATOM     11  C   UNL     1       0.337  10.460  20.655  0.00  0.00    +0.000 A 
ATOM     12  C   UNL     1      -0.392  11.529  21.203  0.00  0.00    +0.000 A 
ATOM     13  H   UNL     1       2.504   8.363  17.709  0.00  0.00    +0.000 HD
BRANCH   3  15
ATOM     14  C   UNL     1      -2.975  12.244  23.356  0.00  0.00    +0.000 C 
ATOM     15  O   UNL     1      -1.635  12.476  22.934  0.00  0.00    +0.000 OA
ENDBRANCH   3  15
ENDBRANCH   1   9
BRANCH   1  16
ATOM     16  C   UNL     1       4.221   6.205  18.379  0.00  0.00    +0.000 A 
ATOM     17  C   UNL     1       5.073   5.537  19.278  0.00  0.00    +0.000 A 
ATOM     18  C   UNL     1       6.417   5.358  18.955  0.00  0.00    +0.000 A 
ATOM     19  C   UNL     1       6.920   5.886  17.764  0.00  0.00    +0.000 A 
ATOM     20  C   UNL     1       6.087   6.610  16.905  0.00  0.00    +0.000 A 
ATOM     21  C   UNL     1       4.733   6.774  17.206  0.00  0.00    +0.000 A 
ENDBRANCH   1  16
BRANCH   1  22
ATOM     22  C   UNL     1       2.124   4.483  18.884  0.00  0.00    +0.000 A 
ATOM     23  C   UNL     1       1.733   3.833  20.066  0.00  0.00    +0.000 A 
ATOM     24  C   UNL     1       1.666   2.437  20.146  0.00  0.00    +0.000 A 
ATOM     25  C   UNL     1       1.986   1.642  19.043  0.00  0.00    +0.000 A 
ATOM     26  C   UNL     1       2.397   2.246  17.866  0.00  0.00    +0.000 A 
ATOM     27  C   UNL     1       2.485   3.637  17.808  0.00  0.00    +0.000 A 
ENDBRANCH   1  22
TORSDOF 4
ENDMDL
MODEL 5
REMARK VINA RESULT:      -7.7      1.961      4.197
REMARK  Name = 
REMARK  5 active torsions:
REMARK  status: ('A' for Active; 'I' for Inactive)
REMARK    1  A    between atoms: C_1  and  O_2
REMARK    2  A    between atoms: O_2  and  C_3
REMARK    3  A    between atoms: N_9  and  P_10
REMARK    4  A    between atoms: P_10  and  C_12
REMARK    5  A    between atoms: P_10  and  C_18
REMARK                            x       y       z     vdW  Elec       q    Type
REMARK                         _______ _______ _______ _____ _____    ______ ____
ROOT
ATOM      1  P   UNL     1       2.377   6.311  18.784  0.00  0.00    +0.000 P 
ATOM      2  O   UNL     1       1.572   6.300  17.455  0.00  0.00    +0.000 OA
ENDROOT
BRANCH   1   9
ATOM      3  C   UNL     1      -0.910  11.430  22.389  0.00  0.00    +0.000 A 
ATOM      4  C   UNL     1      -0.688  10.274  23.134  0.00  0.00    +0.000 A 
ATOM      5  C   UNL     1       0.057   9.212  22.600  0.00  0.00    +0.000 A 
ATOM      6  C   UNL     1       0.579   9.304  21.297  0.00  0.00    +0.000 A 
ATOM      7  N   UNL     1       1.300   8.321  20.642  0.00  0.00    +0.000 NA
ATOM      8  C   UNL     1       1.703   8.757  19.473  0.00  0.00    +0.000 A 
ATOM      9  N   UNL     1       2.510   8.080  18.642  0.00  0.00    +0.000 N 
ATOM     10  S   UNL     1       1.161  10.336  19.053  0.00  0.00    +0.000 S 
ATOM     11  C   UNL     1       0.369  10.480  20.573  0.00  0.00    +0.000 A 
ATOM     12  C   UNL     1      -0.374  11.550  21.098  0.00  0.00    +0.000 A 
ATOM     13  H   UNL     1       2.564   8.351  17.671  0.00  0.00    +0.000 HD
BRANCH   3  15
ATOM     14  C   UNL     1      -0.934  13.757  22.886  0.00  0.00    +0.000 C 
ATOM     15  O   UNL     1      -1.630  12.516  22.809  0.00  0.00    +0.000 OA
ENDBRANCH   3  15
ENDBRANCH   1   9
BRANCH   1  16
ATOM     16  C   UNL     1       4.309   6.231  18.373  0.00  0.00    +0.000 A 
ATOM     17  C   UNL     1       5.156   5.477  19.207  0.00  0.00    +0.000 A 
ATOM     18  C   UNL     1       6.498   5.315  18.866  0.00  0.00    +0.000 A 
ATOM     19  C   UNL     1       7.004   5.943  17.726  0.00  0.00    +0.000 A 
ATOM     20  C   UNL     1       6.177   6.749  16.937  0.00  0.00    +0.000 A 
ATOM     21  C   UNL     1       4.825   6.898  17.255  0.00  0.00    +0.000 A 
ENDBRANCH   1  16
BRANCH   1  22
ATOM     22  C   UNL     1       2.239   4.492  18.929  0.00  0.00    +0.000 A 
ATOM     23  C   UNL     1       2.429   3.636  17.833  0.00  0.00    +0.000 A 
ATOM     24  C   UNL     1       2.266   2.250  17.950  0.00  0.00    +0.000 A 
ATOM     25  C   UNL     1       1.909   1.673  19.171  0.00  0.00    +0.000 A 
ATOM     26  C   UNL     1       1.693   2.487  20.270  0.00  0.00    +0.000 A 
ATOM     27  C   UNL     1       1.832   3.869  20.134  0.00  0.00    +0.000 A 
ENDBRANCH   1  22
TORSDOF 4
ENDMDL
MODEL 6
REMARK VINA RESULT:      -7.6      0.133      1.341
REMARK  Name = 
REMARK  5 active torsions:
REMARK  status: ('A' for Active; 'I' for Inactive)
REMARK    1  A    between atoms: C_1  and  O_2
REMARK    2  A    between atoms: O_2  and  C_3
REMARK    3  A    between atoms: N_9  and  P_10
REMARK    4  A    between atoms: P_10  and  C_12
REMARK    5  A    between atoms: P_10  and  C_18
REMARK                            x       y       z     vdW  Elec       q    Type
REMARK                         _______ _______ _______ _____ _____    ______ ____
ROOT
ATOM      1  P   UNL     1       3.915   5.754  18.855  0.00  0.00    +0.000 P 
ATOM      2  O   UNL     1       5.039   5.686  19.925  0.00  0.00    +0.000 OA
ENDROOT
BRANCH   1   9
ATOM      3  C   UNL     1      -0.216  11.430  19.712  0.00  0.00    +0.000 A 
ATOM      4  C   UNL     1       0.010  11.097  18.378  0.00  0.00    +0.000 A 
ATOM      5  C   UNL     1       0.710   9.930  18.042  0.00  0.00    +0.000 A 
ATOM      6  C   UNL     1       1.201   9.087  19.056  0.00  0.00    +0.000 A 
ATOM      7  N   UNL     1       1.933   7.928  18.862  0.00  0.00    +0.000 NA
ATOM      8  C   UNL     1       2.166   7.342  20.011  0.00  0.00    +0.000 A 
ATOM      9  N   UNL     1       2.761   6.147  20.152  0.00  0.00    +0.000 N 
ATOM     10  S   UNL     1       1.604   8.195  21.396  0.00  0.00    +0.000 S 
ATOM     11  C   UNL     1       0.944   9.420  20.387  0.00  0.00    +0.000 A 
ATOM     12  C   UNL     1       0.242  10.587  20.736  0.00  0.00    +0.000 A 
ATOM     13  H   UNL     1       3.139   5.883  21.050  0.00  0.00    +0.000 HD
BRANCH   3  15
ATOM     14  C   UNL     1      -2.284  12.584  19.939  0.00  0.00    +0.000 C 
ATOM     15  O   UNL     1      -0.876  12.547  20.149  0.00  0.00    +0.000 OA
ENDBRANCH   3  15
ENDBRANCH   1   9
BRANCH   1  16
ATOM     16  C   UNL     1       3.027   3.993  18.734  0.00  0.00    +0.000 A 
ATOM     17  C   UNL     1       1.630   3.917  18.894  0.00  0.00    +0.000 A 
ATOM     18  C   UNL     1       0.975   2.702  18.695  0.00  0.00    +0.000 A 
ATOM     19  C   UNL     1       1.714   1.558  18.388  0.00  0.00    +0.000 A 
ATOM     20  C   UNL     1       3.109   1.622  18.297  0.00  0.00    +0.000 A 
ATOM     21  C   UNL     1       3.773   2.838  18.469  0.00  0.00    +0.000 A 
ENDBRANCH   1  16
BRANCH   1  22
ATOM     22  C   UNL     1       5.102   5.351  17.522  0.00  0.00    +0.000 A 
ATOM     23  C   UNL     1       6.397   4.880  17.789  0.00  0.00    +0.000 A 
ATOM     24  C   UNL     1       7.311   4.628  16.759  0.00  0.00    +0.000 A 
ATOM     25  C   UNL     1       6.958   4.837  15.424  0.00  0.00    +0.000 A 
ATOM     26  C   UNL     1       5.697   5.322  15.122  0.00  0.00    +0.000 A 
ATOM     27  C   UNL     1       4.804   5.594  16.160  0.00  0.00    +0.000 A 
ENDBRANCH   1  22
TORSDOF 4
ENDMDL
MODEL 7
REMARK VINA RESULT:      -7.6      1.666      4.043
REMARK  Name = 
REMARK  5 active torsions:
REMARK  status: ('A' for Active; 'I' for Inactive)
REMARK    1  A    between atoms: C_1  and  O_2
REMARK    2  A    between atoms: O_2  and  C_3
REMARK    3  A    between atoms: N_9  and  P_10
REMARK    4  A    between atoms: P_10  and  C_12
REMARK    5  A    between atoms: P_10  and  C_18
REMARK                            x       y       z     vdW  Elec       q    Type
REMARK                         _______ _______ _______ _____ _____    ______ ____
ROOT
ATOM      1  P   UNL     1       3.068   5.821  18.446  0.00  0.00    +0.000 P 
ATOM      2  O   UNL     1       1.814   5.594  17.559  0.00  0.00    +0.000 OA
ENDROOT
BRANCH   1   9
ATOM      3  C   UNL     1      -0.602  10.963  21.624  0.00  0.00    +0.000 A 
ATOM      4  C   UNL     1      -0.189   9.951  22.490  0.00  0.00    +0.000 A 
ATOM      5  C   UNL     1       0.648   8.922  22.037  0.00  0.00    +0.000 A 
ATOM      6  C   UNL     1       1.071   8.897  20.695  0.00  0.00    +0.000 A 
ATOM      7  N   UNL     1       1.867   7.925  20.114  0.00  0.00    +0.000 NA
ATOM      8  C   UNL     1       2.136   8.243  18.871  0.00  0.00    +0.000 A 
ATOM      9  N   UNL     1       2.968   7.558  18.072  0.00  0.00    +0.000 N 
ATOM     10  S   UNL     1       1.374   9.676  18.300  0.00  0.00    +0.000 S 
ATOM     11  C   UNL     1       0.669   9.931  19.847  0.00  0.00    +0.000 A 
ATOM     12  C   UNL     1      -0.169  10.969  20.290  0.00  0.00    +0.000 A 
ATOM     13  H   UNL     1       2.926   7.700  17.072  0.00  0.00    +0.000 HD
BRANCH   3  15
ATOM     14  C   UNL     1      -2.221  11.843  23.129  0.00  0.00    +0.000 C 
ATOM     15  O   UNL     1      -1.424  12.004  21.960  0.00  0.00    +0.000 OA
ENDBRANCH   3  15
ENDBRANCH   1   9
BRANCH   1  16
ATOM     16  C   UNL     1       4.684   5.770  17.309  0.00  0.00    +0.000 A 
ATOM     17  C   UNL     1       5.779   6.594  17.635  0.00  0.00    +0.000 A 
ATOM     18  C   UNL     1       6.967   6.484  16.915  0.00  0.00    +0.000 A 
ATOM     19  C   UNL     1       7.048   5.595  15.842  0.00  0.00    +0.000 A 
ATOM     20  C   UNL     1       5.937   4.828  15.475  0.00  0.00    +0.000 A 
ATOM     21  C   UNL     1       4.749   4.910  16.205  0.00  0.00    +0.000 A 
ENDBRANCH   1  16
BRANCH   1  22
ATOM     22  C   UNL     1       3.171   4.035  18.831  0.00  0.00    +0.000 A 
ATOM     23  C   UNL     1       4.245   3.483  19.546  0.00  0.00    +0.000 A 
ATOM     24  C   UNL     1       4.335   2.106  19.785  0.00  0.00    +0.000 A 
ATOM     25  C   UNL     1       3.349   1.234  19.317  0.00  0.00    +0.000 A 
ATOM     26  C   UNL     1       2.285   1.739  18.588  0.00  0.00    +0.000 A 
ATOM     27  C   UNL     1       2.221   3.110  18.334  0.00  0.00    +0.000 A 
ENDBRANCH   1  22
TORSDOF 4
ENDMDL
MODEL 8
REMARK VINA RESULT:      -7.4      2.694      8.667
REMARK  Name = 
REMARK  5 active torsions:
REMARK  status: ('A' for Active; 'I' for Inactive)
REMARK    1  A    between atoms: C_1  and  O_2
REMARK    2  A    between atoms: O_2  and  C_3
REMARK    3  A    between atoms: N_9  and  P_10
REMARK    4  A    between atoms: P_10  and  C_12
REMARK    5  A    between atoms: P_10  and  C_18
REMARK                            x       y       z     vdW  Elec       q    Type
REMARK                         _______ _______ _______ _____ _____    ______ ____
ROOT
ATOM      1  P   UNL     1       0.587  10.800  19.518  0.00  0.00    +0.000 P 
ATOM      2  O   UNL     1       1.443  12.015  19.067  0.00  0.00    +0.000 OA
ENDROOT
BRANCH   1   9
ATOM      3  C   UNL     1       3.809   4.505  19.476  0.00  0.00    +0.000 A 
ATOM      4  C   UNL     1       2.837   4.631  20.467  0.00  0.00    +0.000 A 
ATOM      5  C   UNL     1       2.028   5.774  20.532  0.00  0.00    +0.000 A 
ATOM      6  C   UNL     1       2.199   6.812  19.598  0.00  0.00    +0.000 A 
ATOM      7  N   UNL     1       1.491   8.002  19.570  0.00  0.00    +0.000 NA
ATOM      8  C   UNL     1       1.843   8.713  18.527  0.00  0.00    +0.000 A 
ATOM      9  N   UNL     1       1.266   9.869  18.162  0.00  0.00    +0.000 N 
ATOM     10  S   UNL     1       3.107   8.040  17.573  0.00  0.00    +0.000 S 
ATOM     11  C   UNL     1       3.158   6.659  18.595  0.00  0.00    +0.000 A 
ATOM     12  C   UNL     1       3.975   5.518  18.519  0.00  0.00    +0.000 A 
ATOM     13  H   UNL     1       1.747  10.484  17.521  0.00  0.00    +0.000 HD
BRANCH   3  15
ATOM     14  C   UNL     1       4.361   2.274  20.091  0.00  0.00    +0.000 C 
ATOM     15  O   UNL     1       4.657   3.440  19.329  0.00  0.00    +0.000 OA
ENDBRANCH   3  15
ENDBRANCH   1   9
BRANCH   1  16
ATOM     16  C   UNL     1      -1.123  10.807  18.527  0.00  0.00    +0.000 A 
ATOM     17  C   UNL     1      -1.300   9.908  17.457  0.00  0.00    +0.000 A 
ATOM     18  C   UNL     1      -2.539   9.819  16.825  0.00  0.00    +0.000 A 
ATOM     19  C   UNL     1      -3.582  10.658  17.222  0.00  0.00    +0.000 A 
ATOM     20  C   UNL     1      -3.384  11.600  18.238  0.00  0.00    +0.000 A 
ATOM     21  C   UNL     1      -2.155  11.680  18.896  0.00  0.00    +0.000 A 
ENDBRANCH   1  16
BRANCH   1  22
ATOM     22  C   UNL     1      -0.112  11.758  20.912  0.00  0.00    +0.000 A 
ATOM     23  C   UNL     1       0.104  13.137  21.057  0.00  0.00    +0.000 A 
ATOM     24  C   UNL     1      -0.392  13.844  22.159  0.00  0.00    +0.000 A 
ATOM     25  C   UNL     1      -1.124  13.193  23.154  0.00  0.00    +0.000 A 
ATOM     26  C   UNL     1      -1.339  11.829  23.058  0.00  0.00    +0.000 A 
ATOM     27  C   UNL     1      -0.817  11.131  21.968  0.00  0.00    +0.000 A 
ENDBRANCH   1  22
TORSDOF 4
ENDMDL
MODEL 9
REMARK VINA RESULT:      -7.3      1.637      3.984
REMARK  Name = 
REMARK  5 active torsions:
REMARK  status: ('A' for Active; 'I' for Inactive)
REMARK    1  A    between atoms: C_1  and  O_2
REMARK    2  A    between atoms: O_2  and  C_3
REMARK    3  A    between atoms: N_9  and  P_10
REMARK    4  A    between atoms: P_10  and  C_12
REMARK    5  A    between atoms: P_10  and  C_18
REMARK                            x       y       z     vdW  Elec       q    Type
REMARK                         _______ _______ _______ _____ _____    ______ ____
ROOT
ATOM      1  P   UNL     1       3.052   5.821  18.450  0.00  0.00    +0.000 P 
ATOM      2  O   UNL     1       1.811   5.646  17.534  0.00  0.00    +0.000 OA
ENDROOT
BRANCH   1   9
ATOM      3  C   UNL     1      -0.674  11.004  21.495  0.00  0.00    +0.000 A 
ATOM      4  C   UNL     1      -0.335   9.970  22.366  0.00  0.00    +0.000 A 
ATOM      5  C   UNL     1       0.502   8.927  21.946  0.00  0.00    +0.000 A 
ATOM      6  C   UNL     1       1.001   8.912  20.630  0.00  0.00    +0.000 A 
ATOM      7  N   UNL     1       1.806   7.929  20.081  0.00  0.00    +0.000 NA
ATOM      8  C   UNL     1       2.155   8.259  18.861  0.00  0.00    +0.000 A 
ATOM      9  N   UNL     1       3.015   7.566  18.099  0.00  0.00    +0.000 N 
ATOM     10  S   UNL     1       1.461   9.718  18.270  0.00  0.00    +0.000 S 
ATOM     11  C   UNL     1       0.673   9.968  19.777  0.00  0.00    +0.000 A 
ATOM     12  C   UNL     1      -0.164  11.019  20.188  0.00  0.00    +0.000 A 
ATOM     13  H   UNL     1       3.034   7.723  17.102  0.00  0.00    +0.000 HD
BRANCH   3  15
ATOM     14  C   UNL     1      -2.149  12.020  23.061  0.00  0.00    +0.000 C 
ATOM     15  O   UNL     1      -1.490  12.060  21.799  0.00  0.00    +0.000 OA
ENDBRANCH   3  15
ENDBRANCH   1   9
BRANCH   1  16
ATOM     16  C   UNL     1       4.691   5.735  17.348  0.00  0.00    +0.000 A 
ATOM     17  C   UNL     1       4.685   4.962  16.171  0.00  0.00    +0.000 A 
ATOM     18  C   UNL     1       5.791   4.984  15.323  0.00  0.00    +0.000 A 
ATOM     19  C   UNL     1       6.917   5.733  15.672  0.00  0.00    +0.000 A 
ATOM     20  C   UNL     1       6.947   6.444  16.876  0.00  0.00    +0.000 A 
ATOM     21  C   UNL     1       5.836   6.450  17.721  0.00  0.00    +0.000 A 
ENDBRANCH   1  16
BRANCH   1  22
ATOM     22  C   UNL     1       3.090   4.028  18.812  0.00  0.00    +0.000 A 
ATOM     23  C   UNL     1       1.981   3.195  18.591  0.00  0.00    +0.000 A 
ATOM     24  C   UNL     1       2.009   1.836  18.925  0.00  0.00    +0.000 A 
ATOM     25  C   UNL     1       3.151   1.262  19.489  0.00  0.00    +0.000 A 
ATOM     26  C   UNL     1       4.257   2.056  19.742  0.00  0.00    +0.000 A 
ATOM     27  C   UNL     1       4.207   3.415  19.430  0.00  0.00    +0.000 A 
ENDBRANCH   1  22
TORSDOF 4
ENDMDL
