MODEL 1
REMARK VINA RESULT:      -9.0      0.000      0.000
REMARK  Name = 
REMARK  9 active torsions:
REMARK  status: ('A' for Active; 'I' for Inactive)
REMARK    1  A    between atoms: C_1  and  C_2
REMARK    2  A    between atoms: C_2  and  O_3
REMARK    3  A    between atoms: C_2  and  C_18
REMARK    4  A    between atoms: O_3  and  C_4
REMARK    5  A    between atoms: N_20  and  CA_21
REMARK    6  A    between atoms: CA_21  and  CB_22
REMARK    7  A    between atoms: CA_21  and  C_29
REMARK    8  A    between atoms: CB_22  and  CG_23
REMARK    9  A    between atoms: C_29  and  OXT_31
REMARK                            x       y       z     vdW  Elec       q    Type
REMARK                         _______ _______ _______ _____ _____    ______ ____
ROOT
ATOM      1  C   UNK A   0       2.384   5.088  19.955  0.00  0.00    +0.000 C 
ATOM      2  C   UNK A   0       2.615   5.636  18.548  0.00  0.00    +0.000 C 
ENDROOT
BRANCH   2   3
ATOM      3  C   UNK A   0       3.715   4.837  17.848  0.00  0.00    +0.000 C 
ATOM      4  O   UNK A   0       3.565   3.699  17.407  0.00  0.00    +0.000 OA
ATOM      5  N   PHE A   1       4.892   5.531  17.669  0.00  0.00    +0.000 N 
ATOM      6  H   PHE A   1       5.036   6.400  18.182  0.00  0.00    +0.000 HD
BRANCH   5   7
ATOM      7  CA  PHE A   1       6.058   4.896  17.065  0.00  0.00    +0.000 C 
BRANCH   7   8
ATOM      8  C   PHE A   1       7.122   4.643  18.134  0.00  0.00    +0.000 C 
ATOM      9  O   PHE A   1       6.973   4.899  19.325  0.00  0.00    +0.000 OA
BRANCH   8  10
ATOM     10  OXT PHE A   1       8.249   4.055  17.667  0.00  0.00    +0.000 OA
ATOM     11  HXT PHE A   1       9.027   4.641  17.613  0.00  0.00    +0.000 HD
ENDBRANCH   8  10
ENDBRANCH   7   8
BRANCH   7  12
ATOM     12  CB  PHE A   1       6.599   5.678  15.861  0.00  0.00    +0.000 C 
BRANCH  12  13
ATOM     13  CG  PHE A   1       6.594   4.942  14.541  0.00  0.00    +0.000 A 
ATOM     14  CD1 PHE A   1       5.577   4.027  14.234  0.00  0.00    +0.000 A 
ATOM     15  CE1 PHE A   1       5.532   3.415  12.981  0.00  0.00    +0.000 A 
ATOM     16  CZ  PHE A   1       6.506   3.701  12.028  0.00  0.00    +0.000 A 
ATOM     17  CE2 PHE A   1       7.542   4.581  12.336  0.00  0.00    +0.000 A 
ATOM     18  CD2 PHE A   1       7.589   5.195  13.588  0.00  0.00    +0.000 A 
ENDBRANCH  12  13
ENDBRANCH   7  12
ENDBRANCH   5   7
ENDBRANCH   2   3
BRANCH   2  19
ATOM     19  O   UNK A   0       3.059   6.998  18.593  0.00  0.00    +0.000 OA
BRANCH  19  20
ATOM     20  C   UNK A   0       2.166   7.962  18.963  0.00  0.00    +0.000 A 
ATOM     21  C   UNK A   0       1.582   8.679  17.909  0.00  0.00    +0.000 A 
ATOM     22  C   UNK A   0       0.670   9.717  18.158  0.00  0.00    +0.000 A 
ATOM     23  C   UNK A   0       0.320  10.032  19.469  0.00  0.00    +0.000 A 
ATOM     24  C   UNK A   0      -0.587  11.094  19.850  0.00  0.00    +0.000 A 
ATOM     25  C   UNK A   0      -0.933  11.259  21.129  0.00  0.00    +0.000 A 
ATOM     26  C   UNK A   0      -0.435  10.424  22.219  0.00  0.00    +0.000 A 
ATOM     27  O   UNK A   0      -0.822  10.552  23.373  0.00  0.00    +0.000 OA
ATOM     28  O   UNK A   0       0.534   9.495  21.858  0.00  0.00    +0.000 OA
ATOM     29  C   UNK A   0       0.888   9.284  20.504  0.00  0.00    +0.000 A 
ATOM     30  C   UNK A   0       1.817   8.275  20.271  0.00  0.00    +0.000 A 
ATOM     31  C   UNK A   0      -1.849  12.411  21.329  0.00  0.00    +0.000 C 
ATOM     32  C   UNK A   0      -1.682  13.164  20.006  0.00  0.00    +0.000 C 
ATOM     33  C   UNK A   0      -1.205  12.130  18.976  0.00  0.00    +0.000 C 
ENDBRANCH  19  20
ENDBRANCH   2  19
TORSDOF 8
ENDMDL
MODEL 2
REMARK VINA RESULT:      -8.6      2.540      9.457
REMARK  Name = 
REMARK  9 active torsions:
REMARK  status: ('A' for Active; 'I' for Inactive)
REMARK    1  A    between atoms: C_1  and  C_2
REMARK    2  A    between atoms: C_2  and  O_3
REMARK    3  A    between atoms: C_2  and  C_18
REMARK    4  A    between atoms: O_3  and  C_4
REMARK    5  A    between atoms: N_20  and  CA_21
REMARK    6  A    between atoms: CA_21  and  CB_22
REMARK    7  A    between atoms: CA_21  and  C_29
REMARK    8  A    between atoms: CB_22  and  CG_23
REMARK    9  A    between atoms: C_29  and  OXT_31
REMARK                            x       y       z     vdW  Elec       q    Type
REMARK                         _______ _______ _______ _____ _____    ______ ____
ROOT
ATOM      1  C   UNK A   0       0.441   9.178  22.886  0.00  0.00    +0.000 C 
ATOM      2  C   UNK A   0       1.014   9.738  21.585  0.00  0.00    +0.000 C 
ENDROOT
BRANCH   2   3
ATOM      3  C   UNK A   0       0.502  11.162  21.358  0.00  0.00    +0.000 C 
ATOM      4  O   UNK A   0       1.233  12.139  21.201  0.00  0.00    +0.000 OA
ATOM      5  N   PHE A   1      -0.868  11.262  21.257  0.00  0.00    +0.000 N 
ATOM      6  H   PHE A   1      -1.444  10.474  21.549  0.00  0.00    +0.000 HD
BRANCH   5   7
ATOM      7  CA  PHE A   1      -1.520  12.557  21.093  0.00  0.00    +0.000 C 
BRANCH   7   8
ATOM      8  C   PHE A   1      -2.794  12.606  21.936  0.00  0.00    +0.000 C 
ATOM      9  O   PHE A   1      -3.827  13.167  21.586  0.00  0.00    +0.000 OA
BRANCH   8  10
ATOM     10  OXT PHE A   1      -2.713  11.927  23.105  0.00  0.00    +0.000 OA
ATOM     11  HXT PHE A   1      -3.523  11.446  23.359  0.00  0.00    +0.000 HD
ENDBRANCH   8  10
ENDBRANCH   7   8
BRANCH   7  12
ATOM     12  CB  PHE A   1      -1.766  12.910  19.620  0.00  0.00    +0.000 C 
BRANCH  12  13
ATOM     13  CG  PHE A   1      -2.222  11.772  18.737  0.00  0.00    +0.000 A 
ATOM     14  CD1 PHE A   1      -3.585  11.565  18.480  0.00  0.00    +0.000 A 
ATOM     15  CE1 PHE A   1      -3.994  10.565  17.596  0.00  0.00    +0.000 A 
ATOM     16  CZ  PHE A   1      -3.049   9.756  16.970  0.00  0.00    +0.000 A 
ATOM     17  CE2 PHE A   1      -1.694   9.930  17.246  0.00  0.00    +0.000 A 
ATOM     18  CD2 PHE A   1      -1.282  10.929  18.129  0.00  0.00    +0.000 A 
ENDBRANCH  12  13
ENDBRANCH   7  12
ENDBRANCH   5   7
ENDBRANCH   2   3
BRANCH   2  19
ATOM     19  O   UNK A   0       0.587   8.963  20.458  0.00  0.00    +0.000 OA
BRANCH  19  20
ATOM     20  C   UNK A   0       1.529   8.278  19.745  0.00  0.00    +0.000 A 
ATOM     21  C   UNK A   0       1.934   8.881  18.546  0.00  0.00    +0.000 A 
ATOM     22  C   UNK A   0       2.874   8.264  17.707  0.00  0.00    +0.000 A 
ATOM     23  C   UNK A   0       3.434   7.042  18.074  0.00  0.00    +0.000 A 
ATOM     24  C   UNK A   0       4.391   6.299  17.282  0.00  0.00    +0.000 A 
ATOM     25  C   UNK A   0       4.942   5.182  17.763  0.00  0.00    +0.000 A 
ATOM     26  C   UNK A   0       4.628   4.621  19.075  0.00  0.00    +0.000 A 
ATOM     27  O   UNK A   0       5.198   3.633  19.520  0.00  0.00    +0.000 OA
ATOM     28  O   UNK A   0       3.613   5.270  19.768  0.00  0.00    +0.000 OA
ATOM     29  C   UNK A   0       3.043   6.473  19.290  0.00  0.00    +0.000 A 
ATOM     30  C   UNK A   0       2.087   7.060  20.113  0.00  0.00    +0.000 A 
ATOM     31  C   UNK A   0       5.878   4.547  16.801  0.00  0.00    +0.000 C 
ATOM     32  C   UNK A   0       5.498   5.253  15.496  0.00  0.00    +0.000 C 
ATOM     33  C   UNK A   0       4.858   6.590  15.898  0.00  0.00    +0.000 C 
ENDBRANCH  19  20
ENDBRANCH   2  19
TORSDOF 8
ENDMDL
MODEL 3
REMARK VINA RESULT:      -8.4      1.521      2.351
REMARK  Name = 
REMARK  9 active torsions:
REMARK  status: ('A' for Active; 'I' for Inactive)
REMARK    1  A    between atoms: C_1  and  C_2
REMARK    2  A    between atoms: C_2  and  O_3
REMARK    3  A    between atoms: C_2  and  C_18
REMARK    4  A    between atoms: O_3  and  C_4
REMARK    5  A    between atoms: N_20  and  CA_21
REMARK    6  A    between atoms: CA_21  and  CB_22
REMARK    7  A    between atoms: CA_21  and  C_29
REMARK    8  A    between atoms: CB_22  and  CG_23
REMARK    9  A    between atoms: C_29  and  OXT_31
REMARK                            x       y       z     vdW  Elec       q    Type
REMARK                         _______ _______ _______ _____ _____    ______ ____
ROOT
ATOM      1  C   UNK A   0       1.705   3.416  18.875  0.00  0.00    +0.000 C 
ATOM      2  C   UNK A   0       2.407   4.641  18.293  0.00  0.00    +0.000 C 
ENDROOT
BRANCH   2   3
ATOM      3  C   UNK A   0       3.563   4.204  17.391  0.00  0.00    +0.000 C 
ATOM      4  O   UNK A   0       3.474   3.322  16.538  0.00  0.00    +0.000 OA
ATOM      5  N   PHE A   1       4.715   4.943  17.548  0.00  0.00    +0.000 N 
ATOM      6  H   PHE A   1       4.805   5.549  18.363  0.00  0.00    +0.000 HD
BRANCH   5   7
ATOM      7  CA  PHE A   1       5.925   4.622  16.801  0.00  0.00    +0.000 C 
BRANCH   7   8
ATOM      8  C   PHE A   1       7.113   4.515  17.759  0.00  0.00    +0.000 C 
ATOM      9  O   PHE A   1       8.236   4.157  17.422  0.00  0.00    +0.000 OA
BRANCH   8  10
ATOM     10  OXT PHE A   1       6.838   4.901  19.028  0.00  0.00    +0.000 OA
ATOM     11  HXT PHE A   1       7.494   5.506  19.425  0.00  0.00    +0.000 HD
ENDBRANCH   8  10
ENDBRANCH   7   8
BRANCH   7  12
ATOM     12  CB  PHE A   1       6.180   5.596  15.643  0.00  0.00    +0.000 C 
BRANCH  12  13
ATOM     13  CG  PHE A   1       6.393   4.966  14.287  0.00  0.00    +0.000 A 
ATOM     14  CD1 PHE A   1       7.495   5.321  13.495  0.00  0.00    +0.000 A 
ATOM     15  CE1 PHE A   1       7.732   4.673  12.282  0.00  0.00    +0.000 A 
ATOM     16  CZ  PHE A   1       6.867   3.674  11.842  0.00  0.00    +0.000 A 
ATOM     17  CE2 PHE A   1       5.749   3.339  12.604  0.00  0.00    +0.000 A 
ATOM     18  CD2 PHE A   1       5.510   3.984  13.818  0.00  0.00    +0.000 A 
ENDBRANCH  12  13
ENDBRANCH   7  12
ENDBRANCH   5   7
ENDBRANCH   2   3
BRANCH   2  19
ATOM     19  O   UNK A   0       2.977   5.449  19.330  0.00  0.00    +0.000 OA
BRANCH  19  20
ATOM     20  C   UNK A   0       2.377   6.637  19.633  0.00  0.00    +0.000 A 
ATOM     21  C   UNK A   0       1.712   6.679  20.867  0.00  0.00    +0.000 A 
ATOM     22  C   UNK A   0       1.030   7.833  21.283  0.00  0.00    +0.000 A 
ATOM     23  C   UNK A   0       1.025   8.966  20.471  0.00  0.00    +0.000 A 
ATOM     24  C   UNK A   0       0.338  10.201  20.781  0.00  0.00    +0.000 A 
ATOM     25  C   UNK A   0       0.470  11.264  19.983  0.00  0.00    +0.000 A 
ATOM     26  C   UNK A   0       1.276  11.270  18.765  0.00  0.00    +0.000 A 
ATOM     27  O   UNK A   0       1.436  12.278  18.089  0.00  0.00    +0.000 OA
ATOM     28  O   UNK A   0       1.823  10.042  18.411  0.00  0.00    +0.000 OA
ATOM     29  C   UNK A   0       1.722   8.915  19.260  0.00  0.00    +0.000 A 
ATOM     30  C   UNK A   0       2.373   7.766  18.824  0.00  0.00    +0.000 A 
ATOM     31  C   UNK A   0      -0.326  12.429  20.447  0.00  0.00    +0.000 C 
ATOM     32  C   UNK A   0      -1.281  11.766  21.443  0.00  0.00    +0.000 C 
ATOM     33  C   UNK A   0      -0.592  10.476  21.912  0.00  0.00    +0.000 C 
ENDBRANCH  19  20
ENDBRANCH   2  19
TORSDOF 8
ENDMDL
MODEL 4
REMARK VINA RESULT:      -8.3      3.205      5.665
REMARK  Name = 
REMARK  9 active torsions:
REMARK  status: ('A' for Active; 'I' for Inactive)
REMARK    1  A    between atoms: C_1  and  C_2
REMARK    2  A    between atoms: C_2  and  O_3
REMARK    3  A    between atoms: C_2  and  C_18
REMARK    4  A    between atoms: O_3  and  C_4
REMARK    5  A    between atoms: N_20  and  CA_21
REMARK    6  A    between atoms: CA_21  and  CB_22
REMARK    7  A    between atoms: CA_21  and  C_29
REMARK    8  A    between atoms: CB_22  and  CG_23
REMARK    9  A    between atoms: C_29  and  OXT_31
REMARK                            x       y       z     vdW  Elec       q    Type
REMARK                         _______ _______ _______ _____ _____    ______ ____
ROOT
ATOM      1  C   UNK A   0       2.287  10.778  17.928  0.00  0.00    +0.000 C 
ATOM      2  C   UNK A   0       1.207   9.930  18.598  0.00  0.00    +0.000 C 
ENDROOT
BRANCH   2   3
ATOM      3  C   UNK A   0       1.787   8.578  19.016  0.00  0.00    +0.000 C 
ATOM      4  O   UNK A   0       1.706   8.117  20.154  0.00  0.00    +0.000 OA
ATOM      5  N   PHE A   1       2.349   7.859  17.984  0.00  0.00    +0.000 N 
ATOM      6  H   PHE A   1       2.542   8.330  17.101  0.00  0.00    +0.000 HD
BRANCH   5   7
ATOM      7  CA  PHE A   1       2.992   6.572  18.224  0.00  0.00    +0.000 C 
BRANCH   7   8
ATOM      8  C   PHE A   1       4.288   6.482  17.417  0.00  0.00    +0.000 C 
ATOM      9  O   PHE A   1       5.167   7.338  17.432  0.00  0.00    +0.000 OA
BRANCH   8  10
ATOM     10  OXT PHE A   1       4.420   5.338  16.705  0.00  0.00    +0.000 OA
ATOM     11  HXT PHE A   1       4.911   5.429  15.867  0.00  0.00    +0.000 HD
ENDBRANCH   8  10
ENDBRANCH   7   8
BRANCH   7  12
ATOM     12  CB  PHE A   1       2.051   5.386  17.974  0.00  0.00    +0.000 C 
BRANCH  12  13
ATOM     13  CG  PHE A   1       1.896   4.415  19.122  0.00  0.00    +0.000 A 
ATOM     14  CD1 PHE A   1       2.331   4.753  20.411  0.00  0.00    +0.000 A 
ATOM     15  CE1 PHE A   1       2.107   3.888  21.483  0.00  0.00    +0.000 A 
ATOM     16  CZ  PHE A   1       1.457   2.673  21.276  0.00  0.00    +0.000 A 
ATOM     17  CE2 PHE A   1       1.053   2.312  19.992  0.00  0.00    +0.000 A 
ATOM     18  CD2 PHE A   1       1.275   3.175  18.919  0.00  0.00    +0.000 A 
ENDBRANCH  12  13
ENDBRANCH   7  12
ENDBRANCH   5   7
ENDBRANCH   2   3
BRANCH   2  19
ATOM     19  O   UNK A   0       0.133   9.654  17.691  0.00  0.00    +0.000 OA
BRANCH  19  20
ATOM     20  C   UNK A   0      -1.084  10.227  17.931  0.00  0.00    +0.000 A 
ATOM     21  C   UNK A   0      -2.111   9.851  17.053  0.00  0.00    +0.000 A 
ATOM     22  C   UNK A   0      -3.400  10.391  17.174  0.00  0.00    +0.000 A 
ATOM     23  C   UNK A   0      -3.678  11.300  18.192  0.00  0.00    +0.000 A 
ATOM     24  C   UNK A   0      -4.959  11.942  18.401  0.00  0.00    +0.000 A 
ATOM     25  C   UNK A   0      -5.153  12.729  19.463  0.00  0.00    +0.000 A 
ATOM     26  C   UNK A   0      -4.126  13.015  20.460  0.00  0.00    +0.000 A 
ATOM     27  O   UNK A   0      -4.351  13.684  21.461  0.00  0.00    +0.000 OA
ATOM     28  O   UNK A   0      -2.866  12.500  20.178  0.00  0.00    +0.000 OA
ATOM     29  C   UNK A   0      -2.650  11.638  19.078  0.00  0.00    +0.000 A 
ATOM     30  C   UNK A   0      -1.360  11.133  18.947  0.00  0.00    +0.000 A 
ATOM     31  C   UNK A   0      -6.517  13.316  19.495  0.00  0.00    +0.000 C 
ATOM     32  C   UNK A   0      -6.988  13.070  18.059  0.00  0.00    +0.000 C 
ATOM     33  C   UNK A   0      -6.166  11.886  17.530  0.00  0.00    +0.000 C 
ENDBRANCH  19  20
ENDBRANCH   2  19
TORSDOF 8
ENDMDL
MODEL 5
REMARK VINA RESULT:      -8.2      0.984      1.398
REMARK  Name = 
REMARK  9 active torsions:
REMARK  status: ('A' for Active; 'I' for Inactive)
REMARK    1  A    between atoms: C_1  and  C_2
REMARK    2  A    between atoms: C_2  and  O_3
REMARK    3  A    between atoms: C_2  and  C_18
REMARK    4  A    between atoms: O_3  and  C_4
REMARK    5  A    between atoms: N_20  and  CA_21
REMARK    6  A    between atoms: CA_21  and  CB_22
REMARK    7  A    between atoms: CA_21  and  C_29
REMARK    8  A    between atoms: CB_22  and  CG_23
REMARK    9  A    between atoms: C_29  and  OXT_31
REMARK                            x       y       z     vdW  Elec       q    Type
REMARK                         _______ _______ _______ _____ _____    ______ ____
ROOT
ATOM      1  C   UNK A   0       2.010   4.581  18.648  0.00  0.00    +0.000 C 
ATOM      2  C   UNK A   0       2.489   5.991  18.305  0.00  0.00    +0.000 C 
ENDROOT
BRANCH   2   3
ATOM      3  C   UNK A   0       3.842   5.927  17.595  0.00  0.00    +0.000 C 
ATOM      4  O   UNK A   0       4.569   6.902  17.412  0.00  0.00    +0.000 OA
ATOM      5  N   PHE A   1       4.235   4.656  17.238  0.00  0.00    +0.000 N 
ATOM      6  H   PHE A   1       3.548   3.903  17.257  0.00  0.00    +0.000 HD
BRANCH   5   7
ATOM      7  CA  PHE A   1       5.475   4.428  16.506  0.00  0.00    +0.000 C 
BRANCH   7   8
ATOM      8  C   PHE A   1       6.662   4.478  17.469  0.00  0.00    +0.000 C 
ATOM      9  O   PHE A   1       7.724   5.040  17.221  0.00  0.00    +0.000 OA
BRANCH   8  10
ATOM     10  OXT PHE A   1       6.432   3.884  18.665  0.00  0.00    +0.000 OA
ATOM     11  HXT PHE A   1       5.720   4.290  19.195  0.00  0.00    +0.000 HD
ENDBRANCH   8  10
ENDBRANCH   7   8
BRANCH   7  12
ATOM     12  CB  PHE A   1       5.638   5.376  15.311  0.00  0.00    +0.000 C 
BRANCH  12  13
ATOM     13  CG  PHE A   1       6.029   4.727  14.004  0.00  0.00    +0.000 A 
ATOM     14  CD1 PHE A   1       7.258   5.022  13.396  0.00  0.00    +0.000 A 
ATOM     15  CE1 PHE A   1       7.650   4.355  12.234  0.00  0.00    +0.000 A 
ATOM     16  CZ  PHE A   1       6.816   3.397  11.663  0.00  0.00    +0.000 A 
ATOM     17  CE2 PHE A   1       5.576   3.123  12.238  0.00  0.00    +0.000 A 
ATOM     18  CD2 PHE A   1       5.182   3.787  13.400  0.00  0.00    +0.000 A 
ENDBRANCH  12  13
ENDBRANCH   7  12
ENDBRANCH   5   7
ENDBRANCH   2   3
BRANCH   2  19
ATOM     19  O   UNK A   0       2.682   6.772  19.491  0.00  0.00    +0.000 OA
BRANCH  19  20
ATOM     20  C   UNK A   0       1.925   7.895  19.661  0.00  0.00    +0.000 A 
ATOM     21  C   UNK A   0       1.661   8.628  18.496  0.00  0.00    +0.000 A 
ATOM     22  C   UNK A   0       0.919   9.818  18.541  0.00  0.00    +0.000 A 
ATOM     23  C   UNK A   0       0.416  10.275  19.757  0.00  0.00    +0.000 A 
ATOM     24  C   UNK A   0      -0.340  11.498  19.932  0.00  0.00    +0.000 A 
ATOM     25  C   UNK A   0      -0.861  11.803  21.123  0.00  0.00    +0.000 A 
ATOM     26  C   UNK A   0      -0.708  10.972  22.314  0.00  0.00    +0.000 A 
ATOM     27  O   UNK A   0      -1.254  11.240  23.376  0.00  0.00    +0.000 OA
ATOM     28  O   UNK A   0       0.128   9.871  22.164  0.00  0.00    +0.000 OA
ATOM     29  C   UNK A   0       0.660   9.513  20.903  0.00  0.00    +0.000 A 
ATOM     30  C   UNK A   0       1.422   8.350  20.875  0.00  0.00    +0.000 A 
ATOM     31  C   UNK A   0      -1.578  13.103  21.115  0.00  0.00    +0.000 C 
ATOM     32  C   UNK A   0      -1.062  13.728  19.816  0.00  0.00    +0.000 C 
ATOM     33  C   UNK A   0      -0.609  12.562  18.924  0.00  0.00    +0.000 C 
ENDBRANCH  19  20
ENDBRANCH   2  19
TORSDOF 8
ENDMDL
MODEL 6
REMARK VINA RESULT:      -8.2      7.098      8.967
REMARK  Name = 
REMARK  9 active torsions:
REMARK  status: ('A' for Active; 'I' for Inactive)
REMARK    1  A    between atoms: C_1  and  C_2
REMARK    2  A    between atoms: C_2  and  O_3
REMARK    3  A    between atoms: C_2  and  C_18
REMARK    4  A    between atoms: O_3  and  C_4
REMARK    5  A    between atoms: N_20  and  CA_21
REMARK    6  A    between atoms: CA_21  and  CB_22
REMARK    7  A    between atoms: CA_21  and  C_29
REMARK    8  A    between atoms: CB_22  and  CG_23
REMARK    9  A    between atoms: C_29  and  OXT_31
REMARK                            x       y       z     vdW  Elec       q    Type
REMARK                         _______ _______ _______ _____ _____    ______ ____
ROOT
ATOM      1  C   UNK A   0       7.515  10.082  17.511  0.00  0.00    +0.000 C 
ATOM      2  C   UNK A   0       8.584   9.089  17.964  0.00  0.00    +0.000 C 
ENDROOT
BRANCH   2   3
ATOM      3  C   UNK A   0       7.990   7.683  18.053  0.00  0.00    +0.000 C 
ATOM      4  O   UNK A   0       8.239   6.887  18.957  0.00  0.00    +0.000 OA
ATOM      5  N   PHE A   1       7.070   7.393  17.069  0.00  0.00    +0.000 N 
ATOM      6  H   PHE A   1       7.009   8.004  16.255  0.00  0.00    +0.000 HD
BRANCH   5   7
ATOM      7  CA  PHE A   1       6.450   6.076  16.980  0.00  0.00    +0.000 C 
BRANCH   7   8
ATOM      8  C   PHE A   1       7.296   5.163  16.092  0.00  0.00    +0.000 C 
ATOM      9  O   PHE A   1       7.443   5.324  14.885  0.00  0.00    +0.000 OA
BRANCH   8  10
ATOM     10  OXT PHE A   1       7.927   4.169  16.761  0.00  0.00    +0.000 OA
ATOM     11  HXT PHE A   1       7.801   3.277  16.386  0.00  0.00    +0.000 HD
ENDBRANCH   8  10
ENDBRANCH   7   8
BRANCH   7  12
ATOM     12  CB  PHE A   1       4.982   6.145  16.537  0.00  0.00    +0.000 C 
BRANCH  12  13
ATOM     13  CG  PHE A   1       3.970   6.359  17.638  0.00  0.00    +0.000 A 
ATOM     14  CD1 PHE A   1       3.737   5.368  18.602  0.00  0.00    +0.000 A 
ATOM     15  CE1 PHE A   1       2.865   5.606  19.665  0.00  0.00    +0.000 A 
ATOM     16  CZ  PHE A   1       2.210   6.830  19.771  0.00  0.00    +0.000 A 
ATOM     17  CE2 PHE A   1       2.406   7.809  18.798  0.00  0.00    +0.000 A 
ATOM     18  CD2 PHE A   1       3.278   7.574  17.735  0.00  0.00    +0.000 A 
ENDBRANCH  12  13
ENDBRANCH   7  12
ENDBRANCH   5   7
ENDBRANCH   2   3
BRANCH   2  19
ATOM     19  O   UNK A   0       9.068   9.415  19.272  0.00  0.00    +0.000 OA
BRANCH  19  20
ATOM     20  C   UNK A   0       9.513  10.685  19.504  0.00  0.00    +0.000 A 
ATOM     21  C   UNK A   0       9.337  11.157  20.813  0.00  0.00    +0.000 A 
ATOM     22  C   UNK A   0       9.725  12.456  21.172  0.00  0.00    +0.000 A 
ATOM     23  C   UNK A   0      10.314  13.291  20.225  0.00  0.00    +0.000 A 
ATOM     24  C   UNK A   0      10.731  14.656  20.470  0.00  0.00    +0.000 A 
ATOM     25  C   UNK A   0      11.372  15.345  19.523  0.00  0.00    +0.000 A 
ATOM     26  C   UNK A   0      11.684  14.811  18.200  0.00  0.00    +0.000 A 
ATOM     27  O   UNK A   0      12.333  15.439  17.374  0.00  0.00    +0.000 OA
ATOM     28  O   UNK A   0      11.163  13.549  17.933  0.00  0.00    +0.000 OA
ATOM     29  C   UNK A   0      10.512  12.792  18.934  0.00  0.00    +0.000 A 
ATOM     30  C   UNK A   0      10.101  11.516  18.559  0.00  0.00    +0.000 A 
ATOM     31  C   UNK A   0      11.697  16.731  19.947  0.00  0.00    +0.000 C 
ATOM     32  C   UNK A   0      10.788  16.896  21.168  0.00  0.00    +0.000 C 
ATOM     33  C   UNK A   0      10.502  15.480  21.690  0.00  0.00    +0.000 C 
ENDBRANCH  19  20
ENDBRANCH   2  19
TORSDOF 8
ENDMDL
MODEL 7
REMARK VINA RESULT:      -8.1      5.364      8.449
REMARK  Name = 
REMARK  9 active torsions:
REMARK  status: ('A' for Active; 'I' for Inactive)
REMARK    1  A    between atoms: C_1  and  C_2
REMARK    2  A    between atoms: C_2  and  O_3
REMARK    3  A    between atoms: C_2  and  C_18
REMARK    4  A    between atoms: O_3  and  C_4
REMARK    5  A    between atoms: N_20  and  CA_21
REMARK    6  A    between atoms: CA_21  and  CB_22
REMARK    7  A    between atoms: CA_21  and  C_29
REMARK    8  A    between atoms: CB_22  and  CG_23
REMARK    9  A    between atoms: C_29  and  OXT_31
REMARK                            x       y       z     vdW  Elec       q    Type
REMARK                         _______ _______ _______ _____ _____    ______ ____
ROOT
ATOM      1  C   UNK A   0       7.911   6.565  18.760  0.00  0.00    +0.000 C 
ATOM      2  C   UNK A   0       7.954   7.407  17.486  0.00  0.00    +0.000 C 
ENDROOT
BRANCH   2   3
ATOM      3  C   UNK A   0       7.918   8.895  17.839  0.00  0.00    +0.000 C 
ATOM      4  O   UNK A   0       7.067   9.680  17.424  0.00  0.00    +0.000 OA
ATOM      5  N   PHE A   1       8.882   9.286  18.742  0.00  0.00    +0.000 N 
ATOM      6  H   PHE A   1       9.660   8.657  18.938  0.00  0.00    +0.000 HD
BRANCH   5   7
ATOM      7  CA  PHE A   1       9.018  10.681  19.144  0.00  0.00    +0.000 C 
BRANCH   7   8
ATOM      8  C   PHE A   1       9.593  11.500  17.987  0.00  0.00    +0.000 C 
ATOM      9  O   PHE A   1      10.738  11.379  17.563  0.00  0.00    +0.000 OA
BRANCH   8  10
ATOM     10  OXT PHE A   1       8.709  12.354  17.418  0.00  0.00    +0.000 OA
ATOM     11  HXT PHE A   1       8.109  11.949  16.763  0.00  0.00    +0.000 HD
ENDBRANCH   8  10
ENDBRANCH   7   8
BRANCH   7  12
ATOM     12  CB  PHE A   1       9.815  10.846  20.444  0.00  0.00    +0.000 C 
BRANCH  12  13
ATOM     13  CG  PHE A   1       9.398  11.995  21.332  0.00  0.00    +0.000 A 
ATOM     14  CD1 PHE A   1       8.428  11.817  22.328  0.00  0.00    +0.000 A 
ATOM     15  CE1 PHE A   1       8.109  12.859  23.200  0.00  0.00    +0.000 A 
ATOM     16  CZ  PHE A   1       8.747  14.091  23.079  0.00  0.00    +0.000 A 
ATOM     17  CE2 PHE A   1       9.686  14.290  22.068  0.00  0.00    +0.000 A 
ATOM     18  CD2 PHE A   1      10.008  13.250  21.196  0.00  0.00    +0.000 A 
ENDBRANCH  12  13
ENDBRANCH   7  12
ENDBRANCH   5   7
ENDBRANCH   2   3
BRANCH   2  19
ATOM     19  O   UNK A   0       6.810   7.152  16.661  0.00  0.00    +0.000 OA
BRANCH  19  20
ATOM     20  C   UNK A   0       5.811   6.366  17.160  0.00  0.00    +0.000 A 
ATOM     21  C   UNK A   0       5.762   5.059  16.656  0.00  0.00    +0.000 A 
ATOM     22  C   UNK A   0       4.765   4.161  17.065  0.00  0.00    +0.000 A 
ATOM     23  C   UNK A   0       3.816   4.561  18.003  0.00  0.00    +0.000 A 
ATOM     24  C   UNK A   0       2.728   3.734  18.482  0.00  0.00    +0.000 A 
ATOM     25  C   UNK A   0       1.924   4.175  19.453  0.00  0.00    +0.000 A 
ATOM     26  C   UNK A   0       2.054   5.487  20.083  0.00  0.00    +0.000 A 
ATOM     27  O   UNK A   0       1.346   5.839  21.018  0.00  0.00    +0.000 OA
ATOM     28  O   UNK A   0       3.017   6.319  19.524  0.00  0.00    +0.000 OA
ATOM     29  C   UNK A   0       3.900   5.857  18.520  0.00  0.00    +0.000 A 
ATOM     30  C   UNK A   0       4.865   6.766  18.096  0.00  0.00    +0.000 A 
ATOM     31  C   UNK A   0       0.854   3.203  19.793  0.00  0.00    +0.000 C 
ATOM     32  C   UNK A   0       0.903   2.262  18.586  0.00  0.00    +0.000 C 
ATOM     33  C   UNK A   0       2.315   2.389  17.995  0.00  0.00    +0.000 C 
ENDBRANCH  19  20
ENDBRANCH   2  19
TORSDOF 8
ENDMDL
MODEL 8
REMARK VINA RESULT:      -8.1      1.492      2.093
REMARK  Name = 
REMARK  9 active torsions:
REMARK  status: ('A' for Active; 'I' for Inactive)
REMARK    1  A    between atoms: C_1  and  C_2
REMARK    2  A    between atoms: C_2  and  O_3
REMARK    3  A    between atoms: C_2  and  C_18
REMARK    4  A    between atoms: O_3  and  C_4
REMARK    5  A    between atoms: N_20  and  CA_21
REMARK    6  A    between atoms: CA_21  and  CB_22
REMARK    7  A    between atoms: CA_21  and  C_29
REMARK    8  A    between atoms: CB_22  and  CG_23
REMARK    9  A    between atoms: C_29  and  OXT_31
REMARK                            x       y       z     vdW  Elec       q    Type
REMARK                         _______ _______ _______ _____ _____    ______ ____
ROOT
ATOM      1  C   UNK A   0       1.766   4.699  17.662  0.00  0.00    +0.000 C 
ATOM      2  C   UNK A   0       2.880   5.660  18.075  0.00  0.00    +0.000 C 
ENDROOT
BRANCH   2   3
ATOM      3  C   UNK A   0       4.243   4.989  17.903  0.00  0.00    +0.000 C 
ATOM      4  O   UNK A   0       4.513   3.864  18.321  0.00  0.00    +0.000 OA
ATOM      5  N   PHE A   1       5.143   5.718  17.157  0.00  0.00    +0.000 N 
ATOM      6  H   PHE A   1       4.947   6.700  16.967  0.00  0.00    +0.000 HD
BRANCH   5   7
ATOM      7  CA  PHE A   1       6.506   5.243  16.944  0.00  0.00    +0.000 C 
BRANCH   7   8
ATOM      8  C   PHE A   1       7.366   5.572  18.165  0.00  0.00    +0.000 C 
ATOM      9  O   PHE A   1       7.744   4.739  18.983  0.00  0.00    +0.000 OA
BRANCH   8  10
ATOM     10  OXT PHE A   1       7.732   6.873  18.252  0.00  0.00    +0.000 OA
ATOM     11  HXT PHE A   1       7.391   7.445  17.538  0.00  0.00    +0.000 HD
ENDBRANCH   8  10
ENDBRANCH   7   8
BRANCH   7  12
ATOM     12  CB  PHE A   1       7.112   5.758  15.632  0.00  0.00    +0.000 C 
BRANCH  12  13
ATOM     13  CG  PHE A   1       6.814   4.934  14.401  0.00  0.00    +0.000 A 
ATOM     14  CD1 PHE A   1       5.705   4.077  14.362  0.00  0.00    +0.000 A 
ATOM     15  CE1 PHE A   1       5.387   3.384  13.193  0.00  0.00    +0.000 A 
ATOM     16  CZ  PHE A   1       6.178   3.532  12.056  0.00  0.00    +0.000 A 
ATOM     17  CE2 PHE A   1       7.304   4.353  12.095  0.00  0.00    +0.000 A 
ATOM     18  CD2 PHE A   1       7.623   5.048  13.262  0.00  0.00    +0.000 A 
ENDBRANCH  12  13
ENDBRANCH   7  12
ENDBRANCH   5   7
ENDBRANCH   2   3
BRANCH   2  19
ATOM     19  O   UNK A   0       2.767   6.015  19.458  0.00  0.00    +0.000 OA
BRANCH  19  20
ATOM     20  C   UNK A   0       2.133   7.181  19.781  0.00  0.00    +0.000 A 
ATOM     21  C   UNK A   0       1.538   7.212  21.051  0.00  0.00    +0.000 A 
ATOM     22  C   UNK A   0       0.832   8.341  21.491  0.00  0.00    +0.000 A 
ATOM     23  C   UNK A   0       0.732   9.461  20.668  0.00  0.00    +0.000 A 
ATOM     24  C   UNK A   0       0.010  10.671  21.001  0.00  0.00    +0.000 A 
ATOM     25  C   UNK A   0       0.051  11.727  20.185  0.00  0.00    +0.000 A 
ATOM     26  C   UNK A   0       0.785  11.750  18.923  0.00  0.00    +0.000 A 
ATOM     27  O   UNK A   0       0.863  12.754  18.227  0.00  0.00    +0.000 OA
ATOM     28  O   UNK A   0       1.364  10.541  18.552  0.00  0.00    +0.000 OA
ATOM     29  C   UNK A   0       1.360   9.423  19.419  0.00  0.00    +0.000 A 
ATOM     30  C   UNK A   0       2.035   8.297  18.960  0.00  0.00    +0.000 A 
ATOM     31  C   UNK A   0      -0.768  12.863  20.680  0.00  0.00    +0.000 C 
ATOM     32  C   UNK A   0      -1.636  12.174  21.737  0.00  0.00    +0.000 C 
ATOM     33  C   UNK A   0      -0.866  10.921  22.180  0.00  0.00    +0.000 C 
ENDBRANCH  19  20
ENDBRANCH   2  19
TORSDOF 8
ENDMDL
MODEL 9
REMARK VINA RESULT:      -8.1      1.380      1.609
REMARK  Name = 
REMARK  9 active torsions:
REMARK  status: ('A' for Active; 'I' for Inactive)
REMARK    1  A    between atoms: C_1  and  C_2
REMARK    2  A    between atoms: C_2  and  O_3
REMARK    3  A    between atoms: C_2  and  C_18
REMARK    4  A    between atoms: O_3  and  C_4
REMARK    5  A    between atoms: N_20  and  CA_21
REMARK    6  A    between atoms: CA_21  and  CB_22
REMARK    7  A    between atoms: CA_21  and  C_29
REMARK    8  A    between atoms: CB_22  and  CG_23
REMARK    9  A    between atoms: C_29  and  OXT_31
REMARK                            x       y       z     vdW  Elec       q    Type
REMARK                         _______ _______ _______ _____ _____    ______ ____
ROOT
ATOM      1  C   UNK A   0       1.984   5.494  19.136  0.00  0.00    +0.000 C 
ATOM      2  C   UNK A   0       3.016   5.857  18.070  0.00  0.00    +0.000 C 
ENDROOT
BRANCH   2   3
ATOM      3  C   UNK A   0       4.416   5.460  18.538  0.00  0.00    +0.000 C 
ATOM      4  O   UNK A   0       4.640   4.589  19.378  0.00  0.00    +0.000 OA
ATOM      5  N   PHE A   1       5.439   6.104  17.877  0.00  0.00    +0.000 N 
ATOM      6  H   PHE A   1       5.222   6.924  17.311  0.00  0.00    +0.000 HD
BRANCH   5   7
ATOM      7  CA  PHE A   1       6.833   5.878  18.241  0.00  0.00    +0.000 C 
BRANCH   7   8
ATOM      8  C   PHE A   1       7.642   7.156  18.014  0.00  0.00    +0.000 C 
ATOM      9  O   PHE A   1       7.460   7.925  17.075  0.00  0.00    +0.000 OA
BRANCH   8  10
ATOM     10  OXT PHE A   1       8.562   7.408  18.975  0.00  0.00    +0.000 OA
ATOM     11  HXT PHE A   1       8.285   8.055  19.651  0.00  0.00    +0.000 HD
ENDBRANCH   8  10
ENDBRANCH   7   8
BRANCH   7  12
ATOM     12  CB  PHE A   1       7.437   4.657  17.532  0.00  0.00    +0.000 C 
BRANCH  12  13
ATOM     13  CG  PHE A   1       6.979   4.428  16.111  0.00  0.00    +0.000 A 
ATOM     14  CD1 PHE A   1       5.873   3.611  15.836  0.00  0.00    +0.000 A 
ATOM     15  CE1 PHE A   1       5.403   3.472  14.529  0.00  0.00    +0.000 A 
ATOM     16  CZ  PHE A   1       6.039   4.137  13.484  0.00  0.00    +0.000 A 
ATOM     17  CE2 PHE A   1       7.162   4.922  13.741  0.00  0.00    +0.000 A 
ATOM     18  CD2 PHE A   1       7.633   5.064  15.047  0.00  0.00    +0.000 A 
ENDBRANCH  12  13
ENDBRANCH   7  12
ENDBRANCH   5   7
ENDBRANCH   2   3
BRANCH   2  19
ATOM     19  O   UNK A   0       3.044   7.271  17.840  0.00  0.00    +0.000 OA
BRANCH  19  20
ATOM     20  C   UNK A   0       2.210   8.066  18.573  0.00  0.00    +0.000 A 
ATOM     21  C   UNK A   0       1.353   8.889  17.829  0.00  0.00    +0.000 A 
ATOM     22  C   UNK A   0       0.469   9.774  18.463  0.00  0.00    +0.000 A 
ATOM     23  C   UNK A   0       0.420   9.828  19.855  0.00  0.00    +0.000 A 
ATOM     24  C   UNK A   0      -0.430  10.716  20.619  0.00  0.00    +0.000 A 
ATOM     25  C   UNK A   0      -0.473  10.626  21.951  0.00  0.00    +0.000 A 
ATOM     26  C   UNK A   0       0.316   9.673  22.727  0.00  0.00    +0.000 A 
ATOM     27  O   UNK A   0       0.206   9.566  23.942  0.00  0.00    +0.000 OA
ATOM     28  O   UNK A   0       1.223   8.919  21.992  0.00  0.00    +0.000 OA
ATOM     29  C   UNK A   0       1.258   8.975  20.580  0.00  0.00    +0.000 A 
ATOM     30  C   UNK A   0       2.162   8.118  19.961  0.00  0.00    +0.000 A 
ATOM     31  C   UNK A   0      -1.380  11.632  22.561  0.00  0.00    +0.000 C 
ATOM     32  C   UNK A   0      -1.574  12.611  21.399  0.00  0.00    +0.000 C 
ATOM     33  C   UNK A   0      -1.295  11.818  20.114  0.00  0.00    +0.000 C 
ENDBRANCH  19  20
ENDBRANCH   2  19
TORSDOF 8
ENDMDL
