MODEL 1
REMARK VINA RESULT:      -7.7      0.000      0.000
REMARK  Name = 
REMARK  6 active torsions:
REMARK  status: ('A' for Active; 'I' for Inactive)
REMARK    1  A    between atoms: C_1  and  C_2
REMARK    2  A    between atoms: C_2  and  N_3
REMARK    3  A    between atoms: C_9  and  N_10
REMARK    4  A    between atoms: N_13  and  C_14
REMARK    5  A    between atoms: C_17  and  C_18
REMARK    6  A    between atoms: N_20  and  C_21
REMARK                            x       y       z     vdW  Elec       q    Type
REMARK                         _______ _______ _______ _____ _____    ______ ____
ROOT
ATOM      1  N   UNL     1       6.752   4.137  13.221  0.00  0.00    +0.000 N 
ATOM      2  C   UNL     1       5.804   4.364  14.193  0.00  0.00    +0.000 C 
ATOM      3  O   UNL     1       4.789   3.686  14.302  0.00  0.00    +0.000 OA
ATOM      4  N   UNL     1       6.118   5.471  14.947  0.00  0.00    +0.000 N 
ATOM      5  C   UNL     1       5.263   5.954  15.944  0.00  0.00    +0.000 A 
ATOM      6  C   UNL     1       4.648   5.105  16.853  0.00  0.00    +0.000 A 
ATOM      7  C   UNL     1       3.737   5.583  17.826  0.00  0.00    +0.000 A 
ATOM      8  C   UNL     1       3.441   6.958  17.754  0.00  0.00    +0.000 A 
ATOM      9  C   UNL     1       4.171   7.741  16.848  0.00  0.00    +0.000 A 
ATOM     10  N   UNL     1       5.088   7.282  15.963  0.00  0.00    +0.000 NA
ATOM     11  H   UNL     1       7.699   4.408  13.444  0.00  0.00    +0.000 HD
ATOM     12  H   UNL     1       6.572   6.213  14.436  0.00  0.00    +0.000 HD
ENDROOT
BRANCH   7  13
ATOM     13  N   UNL     1       3.201   4.618  18.673  0.00  0.00    +0.000 N 
ATOM     14  C   UNL     1       1.778   4.233  18.485  0.00  0.00    +0.000 C 
ATOM     15  C   UNL     1       1.153   3.861  19.850  0.00  0.00    +0.000 C 
ATOM     16  N   UNL     1       1.888   2.754  20.496  0.00  0.00    +0.000 NA
ATOM     17  C   UNL     1       1.284   2.399  21.776  0.00  0.00    +0.000 C 
ATOM     18  C   UNL     1       3.305   3.157  20.665  0.00  0.00    +0.000 C 
ATOM     19  C   UNL     1       3.983   3.554  19.323  0.00  0.00    +0.000 C 
ENDBRANCH   7  13
BRANCH   8  20
ATOM     20  C   UNL     1       2.475   7.703  18.615  0.00  0.00    +0.000 C 
ATOM     21  O   UNL     1       2.340   7.384  19.787  0.00  0.00    +0.000 OA
ATOM     22  N   UNL     1       1.837   8.776  17.991  0.00  0.00    +0.000 N 
ATOM     23  H   UNL     1       2.085   8.984  17.031  0.00  0.00    +0.000 HD
BRANCH  22  24
ATOM     24  C   UNL     1       0.859   9.631  18.556  0.00  0.00    +0.000 A 
ATOM     25  C   UNL     1      -0.427   9.805  18.054  0.00  0.00    +0.000 A 
ATOM     26  C   UNL     1      -1.302  10.709  18.667  0.00  0.00    +0.000 A 
ATOM     27  C   UNL     1      -0.868  11.407  19.779  0.00  0.00    +0.000 A 
ATOM     28  N   UNL     1       0.364  11.262  20.312  0.00  0.00    +0.000 NA
ATOM     29  C   UNL     1       1.191  10.385  19.689  0.00  0.00    +0.000 A 
ENDBRANCH  22  24
ENDBRANCH   8  20
BRANCH   1  31
ATOM     30  C   UNL     1       5.156   3.177  11.595  0.00  0.00    +0.000 C 
ATOM     31  C   UNL     1       6.547   3.132  12.199  0.00  0.00    +0.000 C 
ENDBRANCH   1  31
TORSDOF 4
ENDMDL
MODEL 2
REMARK VINA RESULT:      -7.7      1.036      1.110
REMARK  Name = 
REMARK  6 active torsions:
REMARK  status: ('A' for Active; 'I' for Inactive)
REMARK    1  A    between atoms: C_1  and  C_2
REMARK    2  A    between atoms: C_2  and  N_3
REMARK    3  A    between atoms: C_9  and  N_10
REMARK    4  A    between atoms: N_13  and  C_14
REMARK    5  A    between atoms: C_17  and  C_18
REMARK    6  A    between atoms: N_20  and  C_21
REMARK                            x       y       z     vdW  Elec       q    Type
REMARK                         _______ _______ _______ _____ _____    ______ ____
ROOT
ATOM      1  N   UNL     1       6.477   3.351  12.540  0.00  0.00    +0.000 N 
ATOM      2  C   UNL     1       5.634   3.722  13.563  0.00  0.00    +0.000 C 
ATOM      3  O   UNL     1       4.528   3.221  13.727  0.00  0.00    +0.000 OA
ATOM      4  N   UNL     1       6.168   4.754  14.299  0.00  0.00    +0.000 N 
ATOM      5  C   UNL     1       5.460   5.362  15.342  0.00  0.00    +0.000 A 
ATOM      6  C   UNL     1       4.762   4.618  16.284  0.00  0.00    +0.000 A 
ATOM      7  C   UNL     1       3.998   5.229  17.305  0.00  0.00    +0.000 A 
ATOM      8  C   UNL     1       3.931   6.636  17.251  0.00  0.00    +0.000 A 
ATOM      9  C   UNL     1       4.730   7.296  16.307  0.00  0.00    +0.000 A 
ATOM     10  N   UNL     1       5.509   6.700  15.373  0.00  0.00    +0.000 NA
ATOM     11  H   UNL     1       7.467   3.458  12.711  0.00  0.00    +0.000 HD
ATOM     12  H   UNL     1       6.711   5.415  13.765  0.00  0.00    +0.000 HD
ENDROOT
BRANCH   7  13
ATOM     13  N   UNL     1       3.355   4.358  18.180  0.00  0.00    +0.000 N 
ATOM     14  C   UNL     1       1.882   4.205  18.059  0.00  0.00    +0.000 C 
ATOM     15  C   UNL     1       1.269   3.931  19.453  0.00  0.00    +0.000 C 
ATOM     16  N   UNL     1       1.849   2.719  20.067  0.00  0.00    +0.000 NA
ATOM     17  C   UNL     1       1.257   2.458  21.375  0.00  0.00    +0.000 C 
ATOM     18  C   UNL     1       3.318   2.891  20.169  0.00  0.00    +0.000 C 
ATOM     19  C   UNL     1       3.988   3.181  18.795  0.00  0.00    +0.000 C 
ENDBRANCH   7  13
BRANCH   8  20
ATOM     20  C   UNL     1       3.150   7.522  18.164  0.00  0.00    +0.000 C 
ATOM     21  O   UNL     1       3.074   7.248  19.353  0.00  0.00    +0.000 OA
ATOM     22  N   UNL     1       2.609   8.658  17.561  0.00  0.00    +0.000 N 
ATOM     23  H   UNL     1       2.800   8.811  16.579  0.00  0.00    +0.000 HD
BRANCH  22  24
ATOM     24  C   UNL     1       1.806   9.650  18.177  0.00  0.00    +0.000 A 
ATOM     25  C   UNL     1       0.554   9.419  18.737  0.00  0.00    +0.000 A 
ATOM     26  C   UNL     1      -0.175  10.481  19.285  0.00  0.00    +0.000 A 
ATOM     27  C   UNL     1       0.380  11.747  19.269  0.00  0.00    +0.000 A 
ATOM     28  N   UNL     1       1.597  12.019  18.752  0.00  0.00    +0.000 NA
ATOM     29  C   UNL     1       2.273  10.969  18.221  0.00  0.00    +0.000 A 
ENDBRANCH  22  24
ENDBRANCH   8  20
BRANCH   1  31
ATOM     30  C   UNL     1       7.147   1.428  11.137  0.00  0.00    +0.000 C 
ATOM     31  C   UNL     1       6.054   2.404  11.530  0.00  0.00    +0.000 C 
ENDBRANCH   1  31
TORSDOF 4
ENDMDL
MODEL 3
REMARK VINA RESULT:      -7.0      3.028      6.819
REMARK  Name = 
REMARK  6 active torsions:
REMARK  status: ('A' for Active; 'I' for Inactive)
REMARK    1  A    between atoms: C_1  and  C_2
REMARK    2  A    between atoms: C_2  and  N_3
REMARK    3  A    between atoms: C_9  and  N_10
REMARK    4  A    between atoms: N_13  and  C_14
REMARK    5  A    between atoms: C_17  and  C_18
REMARK    6  A    between atoms: N_20  and  C_21
REMARK                            x       y       z     vdW  Elec       q    Type
REMARK                         _______ _______ _______ _____ _____    ______ ____
ROOT
ATOM      1  N   UNL     1       4.162   5.979  17.240  0.00  0.00    +0.000 N 
ATOM      2  C   UNL     1       3.609   7.055  17.895  0.00  0.00    +0.000 C 
ATOM      3  O   UNL     1       4.097   8.179  17.858  0.00  0.00    +0.000 OA
ATOM      4  N   UNL     1       2.511   6.678  18.633  0.00  0.00    +0.000 N 
ATOM      5  C   UNL     1       1.826   7.580  19.455  0.00  0.00    +0.000 A 
ATOM      6  C   UNL     1       1.506   8.862  19.026  0.00  0.00    +0.000 A 
ATOM      7  C   UNL     1       0.866   9.797  19.874  0.00  0.00    +0.000 A 
ATOM      8  C   UNL     1       0.650   9.365  21.197  0.00  0.00    +0.000 A 
ATOM      9  C   UNL     1       0.943   8.029  21.509  0.00  0.00    +0.000 A 
ATOM     10  N   UNL     1       1.497   7.123  20.670  0.00  0.00    +0.000 NA
ATOM     11  H   UNL     1       3.525   5.249  16.955  0.00  0.00    +0.000 HD
ATOM     12  H   UNL     1       2.573   5.757  19.039  0.00  0.00    +0.000 HD
ENDROOT
BRANCH   7  13
ATOM     13  N   UNL     1       0.604  11.041  19.308  0.00  0.00    +0.000 N 
ATOM     14  C   UNL     1       1.757  11.925  18.993  0.00  0.00    +0.000 C 
ATOM     15  C   UNL     1       1.343  13.405  19.168  0.00  0.00    +0.000 C 
ATOM     16  N   UNL     1       0.198  13.750  18.301  0.00  0.00    +0.000 NA
ATOM     17  C   UNL     1      -0.178  15.151  18.460  0.00  0.00    +0.000 C 
ATOM     18  C   UNL     1      -0.936  12.851  18.626  0.00  0.00    +0.000 C 
ATOM     19  C   UNL     1      -0.573  11.346  18.478  0.00  0.00    +0.000 C 
ENDBRANCH   7  13
BRANCH   8  20
ATOM     20  C   UNL     1       0.054  10.168  22.306  0.00  0.00    +0.000 C 
ATOM     21  O   UNL     1       0.329   9.895  23.465  0.00  0.00    +0.000 OA
ATOM     22  N   UNL     1      -0.745  11.236  21.896  0.00  0.00    +0.000 N 
ATOM     23  H   UNL     1      -0.842  11.403  20.902  0.00  0.00    +0.000 HD
BRANCH  22  24
ATOM     24  C   UNL     1      -1.453  12.139  22.727  0.00  0.00    +0.000 A 
ATOM     25  C   UNL     1      -2.699  11.886  23.291  0.00  0.00    +0.000 A 
ATOM     26  C   UNL     1      -3.330  12.866  24.065  0.00  0.00    +0.000 A 
ATOM     27  C   UNL     1      -2.687  14.073  24.264  0.00  0.00    +0.000 A 
ATOM     28  N   UNL     1      -1.472  14.361  23.751  0.00  0.00    +0.000 NA
ATOM     29  C   UNL     1      -0.892  13.393  22.998  0.00  0.00    +0.000 A 
ENDBRANCH  22  24
ENDBRANCH   8  20
BRANCH   1  31
ATOM     30  C   UNL     1       5.394   5.491  15.151  0.00  0.00    +0.000 C 
ATOM     31  C   UNL     1       5.426   6.099  16.541  0.00  0.00    +0.000 C 
ENDBRANCH   1  31
TORSDOF 4
ENDMDL
MODEL 4
REMARK VINA RESULT:      -7.0      1.669      1.769
REMARK  Name = 
REMARK  6 active torsions:
REMARK  status: ('A' for Active; 'I' for Inactive)
REMARK    1  A    between atoms: C_1  and  C_2
REMARK    2  A    between atoms: C_2  and  N_3
REMARK    3  A    between atoms: C_9  and  N_10
REMARK    4  A    between atoms: N_13  and  C_14
REMARK    5  A    between atoms: C_17  and  C_18
REMARK    6  A    between atoms: N_20  and  C_21
REMARK                            x       y       z     vdW  Elec       q    Type
REMARK                         _______ _______ _______ _____ _____    ______ ____
ROOT
ATOM      1  N   UNL     1       6.711   4.276  13.508  0.00  0.00    +0.000 N 
ATOM      2  C   UNL     1       5.734   4.511  14.448  0.00  0.00    +0.000 C 
ATOM      3  O   UNL     1       4.721   3.827  14.539  0.00  0.00    +0.000 OA
ATOM      4  N   UNL     1       6.016   5.634  15.191  0.00  0.00    +0.000 N 
ATOM      5  C   UNL     1       5.129   6.127  16.154  0.00  0.00    +0.000 A 
ATOM      6  C   UNL     1       4.493   5.289  17.060  0.00  0.00    +0.000 A 
ATOM      7  C   UNL     1       3.551   5.776  17.997  0.00  0.00    +0.000 A 
ATOM      8  C   UNL     1       3.247   7.147  17.892  0.00  0.00    +0.000 A 
ATOM      9  C   UNL     1       3.997   7.920  16.994  0.00  0.00    +0.000 A 
ATOM     10  N   UNL     1       4.943   7.454  16.145  0.00  0.00    +0.000 NA
ATOM     11  H   UNL     1       7.650   4.557  13.754  0.00  0.00    +0.000 HD
ATOM     12  H   UNL     1       6.480   6.370  14.680  0.00  0.00    +0.000 HD
ENDROOT
BRANCH   7  13
ATOM     13  N   UNL     1       2.998   4.821  18.844  0.00  0.00    +0.000 N 
ATOM     14  C   UNL     1       1.546   4.527  18.716  0.00  0.00    +0.000 C 
ATOM     15  C   UNL     1       0.964   4.155  20.100  0.00  0.00    +0.000 C 
ATOM     16  N   UNL     1       1.660   2.989  20.682  0.00  0.00    +0.000 NA
ATOM     17  C   UNL     1       1.097   2.634  21.980  0.00  0.00    +0.000 C 
ATOM     18  C   UNL     1       3.106   3.301  20.791  0.00  0.00    +0.000 C 
ATOM     19  C   UNL     1       3.743   3.695  19.428  0.00  0.00    +0.000 C 
ENDBRANCH   7  13
BRANCH   8  20
ATOM     20  C   UNL     1       2.250   7.899  18.710  0.00  0.00    +0.000 C 
ATOM     21  O   UNL     1       1.527   8.725  18.172  0.00  0.00    +0.000 OA
ATOM     22  N   UNL     1       2.193   7.531  20.055  0.00  0.00    +0.000 N 
ATOM     23  H   UNL     1       2.799   6.782  20.368  0.00  0.00    +0.000 HD
BRANCH  22  24
ATOM     24  C   UNL     1       1.367   8.093  21.059  0.00  0.00    +0.000 A 
ATOM     25  C   UNL     1       0.011   7.825  21.211  0.00  0.00    +0.000 A 
ATOM     26  C   UNL     1      -0.723   8.469  22.214  0.00  0.00    +0.000 A 
ATOM     27  C   UNL     1      -0.071   9.356  23.050  0.00  0.00    +0.000 A 
ATOM     28  N   UNL     1       1.246   9.638  22.953  0.00  0.00    +0.000 NA
ATOM     29  C   UNL     1       1.925   9.004  21.964  0.00  0.00    +0.000 A 
ENDBRANCH  22  24
ENDBRANCH   8  20
BRANCH   1  31
ATOM     30  C   UNL     1       5.183   3.294  11.831  0.00  0.00    +0.000 C 
ATOM     31  C   UNL     1       6.545   3.251  12.498  0.00  0.00    +0.000 C 
ENDBRANCH   1  31
TORSDOF 4
ENDMDL
MODEL 5
REMARK VINA RESULT:      -6.9      4.344     10.884
REMARK  Name = 
REMARK  6 active torsions:
REMARK  status: ('A' for Active; 'I' for Inactive)
REMARK    1  A    between atoms: C_1  and  C_2
REMARK    2  A    between atoms: C_2  and  N_3
REMARK    3  A    between atoms: C_9  and  N_10
REMARK    4  A    between atoms: N_13  and  C_14
REMARK    5  A    between atoms: C_17  and  C_18
REMARK    6  A    between atoms: N_20  and  C_21
REMARK                            x       y       z     vdW  Elec       q    Type
REMARK                         _______ _______ _______ _____ _____    ______ ____
ROOT
ATOM      1  N   UNL     1      -5.175  14.126  23.549  0.00  0.00    +0.000 N 
ATOM      2  C   UNL     1      -4.524  13.328  22.637  0.00  0.00    +0.000 C 
ATOM      3  O   UNL     1      -4.973  12.254  22.254  0.00  0.00    +0.000 OA
ATOM      4  N   UNL     1      -3.305  13.861  22.289  0.00  0.00    +0.000 N 
ATOM      5  C   UNL     1      -2.419  13.189  21.439  0.00  0.00    +0.000 A 
ATOM      6  C   UNL     1      -2.850  12.575  20.271  0.00  0.00    +0.000 A 
ATOM      7  C   UNL     1      -1.969  11.846  19.439  0.00  0.00    +0.000 A 
ATOM      8  C   UNL     1      -0.650  11.720  19.917  0.00  0.00    +0.000 A 
ATOM      9  C   UNL     1      -0.297  12.438  21.069  0.00  0.00    +0.000 A 
ATOM     10  N   UNL     1      -1.136  13.187  21.824  0.00  0.00    +0.000 NA
ATOM     11  H   UNL     1      -5.000  15.119  23.485  0.00  0.00    +0.000 HD
ATOM     12  H   UNL     1      -2.830  14.346  23.035  0.00  0.00    +0.000 HD
ENDROOT
BRANCH   7  13
ATOM     13  N   UNL     1      -2.540  11.288  18.299  0.00  0.00    +0.000 N 
ATOM     14  C   UNL     1      -1.985  10.007  17.791  0.00  0.00    +0.000 C 
ATOM     15  C   UNL     1      -2.103   9.961  16.250  0.00  0.00    +0.000 C 
ATOM     16  N   UNL     1      -3.507  10.104  15.813  0.00  0.00    +0.000 NA
ATOM     17  C   UNL     1      -3.613  10.045  14.359  0.00  0.00    +0.000 C 
ATOM     18  C   UNL     1      -4.042  11.383  16.338  0.00  0.00    +0.000 C 
ATOM     19  C   UNL     1      -3.938  11.490  17.886  0.00  0.00    +0.000 C 
ENDBRANCH   7  13
BRANCH   8  20
ATOM     20  C   UNL     1       0.459  10.957  19.271  0.00  0.00    +0.000 C 
ATOM     21  O   UNL     1       1.193  11.519  18.472  0.00  0.00    +0.000 OA
ATOM     22  N   UNL     1       0.597   9.637  19.704  0.00  0.00    +0.000 N 
ATOM     23  H   UNL     1      -0.033   9.306  20.425  0.00  0.00    +0.000 HD
BRANCH  22  24
ATOM     24  C   UNL     1       1.537   8.683  19.245  0.00  0.00    +0.000 A 
ATOM     25  C   UNL     1       2.186   8.738  18.015  0.00  0.00    +0.000 A 
ATOM     26  C   UNL     1       3.068   7.718  17.642  0.00  0.00    +0.000 A 
ATOM     27  C   UNL     1       3.288   6.674  18.520  0.00  0.00    +0.000 A 
ATOM     28  N   UNL     1       2.695   6.583  19.730  0.00  0.00    +0.000 NA
ATOM     29  C   UNL     1       1.839   7.583  20.057  0.00  0.00    +0.000 A 
ENDBRANCH  22  24
ENDBRANCH   8  20
BRANCH   1  31
ATOM     30  C   UNL     1      -7.623  14.438  23.710  0.00  0.00    +0.000 C 
ATOM     31  C   UNL     1      -6.397  13.685  24.190  0.00  0.00    +0.000 C 
ENDBRANCH   1  31
TORSDOF 4
ENDMDL
MODEL 6
REMARK VINA RESULT:      -6.8      8.417     10.551
REMARK  Name = 
REMARK  6 active torsions:
REMARK  status: ('A' for Active; 'I' for Inactive)
REMARK    1  A    between atoms: C_1  and  C_2
REMARK    2  A    between atoms: C_2  and  N_3
REMARK    3  A    between atoms: C_9  and  N_10
REMARK    4  A    between atoms: N_13  and  C_14
REMARK    5  A    between atoms: C_17  and  C_18
REMARK    6  A    between atoms: N_20  and  C_21
REMARK                            x       y       z     vdW  Elec       q    Type
REMARK                         _______ _______ _______ _____ _____    ______ ____
ROOT
ATOM      1  N   UNL     1      -2.401  10.543  15.720  0.00  0.00    +0.000 N 
ATOM      2  C   UNL     1      -2.716  11.294  16.830  0.00  0.00    +0.000 C 
ATOM      3  O   UNL     1      -3.850  11.702  17.056  0.00  0.00    +0.000 OA
ATOM      4  N   UNL     1      -1.597  11.571  17.578  0.00  0.00    +0.000 N 
ATOM      5  C   UNL     1      -1.648  12.392  18.711  0.00  0.00    +0.000 A 
ATOM      6  C   UNL     1      -2.652  12.264  19.661  0.00  0.00    +0.000 A 
ATOM      7  C   UNL     1      -2.741  13.129  20.777  0.00  0.00    +0.000 A 
ATOM      8  C   UNL     1      -1.794  14.172  20.812  0.00  0.00    +0.000 A 
ATOM      9  C   UNL     1      -0.778  14.170  19.845  0.00  0.00    +0.000 A 
ATOM     10  N   UNL     1      -0.666  13.296  18.816  0.00  0.00    +0.000 NA
ATOM     11  H   UNL     1      -1.624   9.905  15.814  0.00  0.00    +0.000 HD
ATOM     12  H   UNL     1      -0.755  11.709  17.040  0.00  0.00    +0.000 HD
ENDROOT
BRANCH   7  13
ATOM     13  N   UNL     1      -3.796  12.880  21.650  0.00  0.00    +0.000 N 
ATOM     14  C   UNL     1      -5.102  12.468  21.070  0.00  0.00    +0.000 C 
ATOM     15  C   UNL     1      -6.256  13.005  21.949  0.00  0.00    +0.000 C 
ATOM     16  N   UNL     1      -6.148  12.512  23.338  0.00  0.00    +0.000 NA
ATOM     17  C   UNL     1      -7.247  13.011  24.158  0.00  0.00    +0.000 C 
ATOM     18  C   UNL     1      -4.836  12.926  23.892  0.00  0.00    +0.000 C 
ATOM     19  C   UNL     1      -3.637  12.423  23.039  0.00  0.00    +0.000 C 
ENDBRANCH   7  13
BRANCH   8  20
ATOM     20  C   UNL     1      -1.702  15.253  21.838  0.00  0.00    +0.000 C 
ATOM     21  O   UNL     1      -2.264  16.321  21.640  0.00  0.00    +0.000 OA
ATOM     22  N   UNL     1      -1.008  14.908  22.997  0.00  0.00    +0.000 N 
ATOM     23  H   UNL     1      -0.645  13.966  23.071  0.00  0.00    +0.000 HD
BRANCH  22  24
ATOM     24  C   UNL     1      -0.744  15.740  24.113  0.00  0.00    +0.000 A 
ATOM     25  C   UNL     1      -1.386  15.643  25.343  0.00  0.00    +0.000 A 
ATOM     26  C   UNL     1      -1.078  16.545  26.367  0.00  0.00    +0.000 A 
ATOM     27  C   UNL     1      -0.122  17.516  26.135  0.00  0.00    +0.000 A 
ATOM     28  N   UNL     1       0.539  17.642  24.964  0.00  0.00    +0.000 NA
ATOM     29  C   UNL     1       0.211  16.757  23.989  0.00  0.00    +0.000 A 
ENDBRANCH  22  24
ENDBRANCH   8  20
BRANCH   1  31
ATOM     30  C   UNL     1      -2.791   9.657  13.445  0.00  0.00    +0.000 C 
ATOM     31  C   UNL     1      -3.388  10.276  14.694  0.00  0.00    +0.000 C 
ENDBRANCH   1  31
TORSDOF 4
ENDMDL
MODEL 7
REMARK VINA RESULT:      -6.7      3.795      7.645
REMARK  Name = 
REMARK  6 active torsions:
REMARK  status: ('A' for Active; 'I' for Inactive)
REMARK    1  A    between atoms: C_1  and  C_2
REMARK    2  A    between atoms: C_2  and  N_3
REMARK    3  A    between atoms: C_9  and  N_10
REMARK    4  A    between atoms: N_13  and  C_14
REMARK    5  A    between atoms: C_17  and  C_18
REMARK    6  A    between atoms: N_20  and  C_21
REMARK                            x       y       z     vdW  Elec       q    Type
REMARK                         _______ _______ _______ _____ _____    ______ ____
ROOT
ATOM      1  N   UNL     1       3.253   5.739  19.696  0.00  0.00    +0.000 N 
ATOM      2  C   UNL     1       2.548   6.920  19.672  0.00  0.00    +0.000 C 
ATOM      3  O   UNL     1       2.581   7.694  18.721  0.00  0.00    +0.000 OA
ATOM      4  N   UNL     1       1.887   7.131  20.859  0.00  0.00    +0.000 N 
ATOM      5  C   UNL     1       1.169   8.306  21.108  0.00  0.00    +0.000 A 
ATOM      6  C   UNL     1       0.319   8.858  20.160  0.00  0.00    +0.000 A 
ATOM      7  C   UNL     1      -0.364  10.077  20.385  0.00  0.00    +0.000 A 
ATOM      8  C   UNL     1      -0.060  10.726  21.597  0.00  0.00    +0.000 A 
ATOM      9  C   UNL     1       0.755  10.051  22.518  0.00  0.00    +0.000 A 
ATOM     10  N   UNL     1       1.353   8.852  22.317  0.00  0.00    +0.000 NA
ATOM     11  H   UNL     1       2.863   4.993  20.255  0.00  0.00    +0.000 HD
ATOM     12  H   UNL     1       2.374   6.796  21.676  0.00  0.00    +0.000 HD
ENDROOT
BRANCH   7  13
ATOM     13  N   UNL     1      -1.186  10.507  19.347  0.00  0.00    +0.000 N 
ATOM     14  C   UNL     1      -1.765  11.873  19.432  0.00  0.00    +0.000 C 
ATOM     15  C   UNL     1      -3.158  11.892  18.760  0.00  0.00    +0.000 C 
ATOM     16  N   UNL     1      -3.080  11.470  17.346  0.00  0.00    +0.000 NA
ATOM     17  C   UNL     1      -4.394  11.505  16.714  0.00  0.00    +0.000 C 
ATOM     18  C   UNL     1      -2.491  10.110  17.286  0.00  0.00    +0.000 C 
ATOM     19  C   UNL     1      -1.092  10.028  17.959  0.00  0.00    +0.000 C 
ENDBRANCH   7  13
BRANCH   8  20
ATOM     20  C   UNL     1      -0.589  12.045  22.054  0.00  0.00    +0.000 C 
ATOM     21  O   UNL     1       0.081  13.054  21.888  0.00  0.00    +0.000 OA
ATOM     22  N   UNL     1      -1.875  12.010  22.594  0.00  0.00    +0.000 N 
ATOM     23  H   UNL     1      -2.357  11.119  22.615  0.00  0.00    +0.000 HD
BRANCH  22  24
ATOM     24  C   UNL     1      -2.606  13.099  23.128  0.00  0.00    +0.000 A 
ATOM     25  C   UNL     1      -2.147  13.945  24.132  0.00  0.00    +0.000 A 
ATOM     26  C   UNL     1      -2.969  14.969  24.616  0.00  0.00    +0.000 A 
ATOM     27  C   UNL     1      -4.229  15.126  24.069  0.00  0.00    +0.000 A 
ATOM     28  N   UNL     1      -4.714  14.341  23.084  0.00  0.00    +0.000 NA
ATOM     29  C   UNL     1      -3.895  13.353  22.643  0.00  0.00    +0.000 A 
ENDBRANCH  22  24
ENDBRANCH   8  20
BRANCH   1  31
ATOM     30  C   UNL     1       5.616   5.372  19.064  0.00  0.00    +0.000 C 
ATOM     31  C   UNL     1       4.163   5.390  18.625  0.00  0.00    +0.000 C 
ENDBRANCH   1  31
TORSDOF 4
ENDMDL
MODEL 8
REMARK VINA RESULT:      -6.7      3.687      7.646
REMARK  Name = 
REMARK  6 active torsions:
REMARK  status: ('A' for Active; 'I' for Inactive)
REMARK    1  A    between atoms: C_1  and  C_2
REMARK    2  A    between atoms: C_2  and  N_3
REMARK    3  A    between atoms: C_9  and  N_10
REMARK    4  A    between atoms: N_13  and  C_14
REMARK    5  A    between atoms: C_17  and  C_18
REMARK    6  A    between atoms: N_20  and  C_21
REMARK                            x       y       z     vdW  Elec       q    Type
REMARK                         _______ _______ _______ _____ _____    ______ ____
ROOT
ATOM      1  N   UNL     1       3.213   5.870  19.885  0.00  0.00    +0.000 N 
ATOM      2  C   UNL     1       2.486   7.035  19.801  0.00  0.00    +0.000 C 
ATOM      3  O   UNL     1       2.549   7.790  18.837  0.00  0.00    +0.000 OA
ATOM      4  N   UNL     1       1.763   7.256  20.950  0.00  0.00    +0.000 N 
ATOM      5  C   UNL     1       1.010   8.419  21.140  0.00  0.00    +0.000 A 
ATOM      6  C   UNL     1       0.195   8.933  20.140  0.00  0.00    +0.000 A 
ATOM      7  C   UNL     1      -0.523  10.141  20.306  0.00  0.00    +0.000 A 
ATOM      8  C   UNL     1      -0.292  10.821  21.518  0.00  0.00    +0.000 A 
ATOM      9  C   UNL     1       0.491  10.182  22.491  0.00  0.00    +0.000 A 
ATOM     10  N   UNL     1       1.123   8.994  22.344  0.00  0.00    +0.000 NA
ATOM     11  H   UNL     1       2.812   5.128  20.440  0.00  0.00    +0.000 HD
ATOM     12  H   UNL     1       2.217   6.948  21.797  0.00  0.00    +0.000 HD
ENDROOT
BRANCH   7  13
ATOM     13  N   UNL     1      -1.302  10.532  19.221  0.00  0.00    +0.000 N 
ATOM     14  C   UNL     1      -2.018  11.832  19.304  0.00  0.00    +0.000 C 
ATOM     15  C   UNL     1      -3.351  11.745  18.524  0.00  0.00    +0.000 C 
ATOM     16  N   UNL     1      -3.124  11.390  17.108  0.00  0.00    +0.000 NA
ATOM     17  C   UNL     1      -4.384  11.324  16.375  0.00  0.00    +0.000 C 
ATOM     18  C   UNL     1      -2.403  10.095  17.051  0.00  0.00    +0.000 C 
ATOM     19  C   UNL     1      -1.057  10.120  17.830  0.00  0.00    +0.000 C 
ENDBRANCH   7  13
BRANCH   8  20
ATOM     20  C   UNL     1      -0.870  12.137  21.920  0.00  0.00    +0.000 C 
ATOM     21  O   UNL     1      -0.213  13.157  21.767  0.00  0.00    +0.000 OA
ATOM     22  N   UNL     1      -2.181  12.085  22.396  0.00  0.00    +0.000 N 
ATOM     23  H   UNL     1      -2.645  11.185  22.411  0.00  0.00    +0.000 HD
BRANCH  22  24
ATOM     24  C   UNL     1      -2.960  13.169  22.870  0.00  0.00    +0.000 A 
ATOM     25  C   UNL     1      -3.949  13.815  22.136  0.00  0.00    +0.000 A 
ATOM     26  C   UNL     1      -4.632  14.904  22.687  0.00  0.00    +0.000 A 
ATOM     27  C   UNL     1      -4.313  15.310  23.970  0.00  0.00    +0.000 A 
ATOM     28  N   UNL     1      -3.372  14.707  24.727  0.00  0.00    +0.000 NA
ATOM     29  C   UNL     1      -2.723  13.660  24.160  0.00  0.00    +0.000 A 
ENDBRANCH  22  24
ENDBRANCH   8  20
BRANCH   1  31
ATOM     30  C   UNL     1       3.611   4.609  17.794  0.00  0.00    +0.000 C 
ATOM     31  C   UNL     1       4.182   5.520  18.866  0.00  0.00    +0.000 C 
ENDBRANCH   1  31
TORSDOF 4
ENDMDL
MODEL 9
REMARK VINA RESULT:      -6.7      3.590     10.423
REMARK  Name = 
REMARK  6 active torsions:
REMARK  status: ('A' for Active; 'I' for Inactive)
REMARK    1  A    between atoms: C_1  and  C_2
REMARK    2  A    between atoms: C_2  and  N_3
REMARK    3  A    between atoms: C_9  and  N_10
REMARK    4  A    between atoms: N_13  and  C_14
REMARK    5  A    between atoms: C_17  and  C_18
REMARK    6  A    between atoms: N_20  and  C_21
REMARK                            x       y       z     vdW  Elec       q    Type
REMARK                         _______ _______ _______ _____ _____    ______ ____
ROOT
ATOM      1  N   UNL     1      -3.784  12.372  24.099  0.00  0.00    +0.000 N 
ATOM      2  C   UNL     1      -2.877  12.229  23.074  0.00  0.00    +0.000 C 
ATOM      3  O   UNL     1      -2.922  12.900  22.049  0.00  0.00    +0.000 OA
ATOM      4  N   UNL     1      -1.992  11.208  23.330  0.00  0.00    +0.000 N 
ATOM      5  C   UNL     1      -1.027  10.814  22.397  0.00  0.00    +0.000 A 
ATOM      6  C   UNL     1      -0.262  11.740  21.701  0.00  0.00    +0.000 A 
ATOM      7  C   UNL     1       0.674  11.349  20.715  0.00  0.00    +0.000 A 
ATOM      8  C   UNL     1       0.717   9.969  20.434  0.00  0.00    +0.000 A 
ATOM      9  C   UNL     1      -0.042   9.110  21.243  0.00  0.00    +0.000 A 
ATOM     10  N   UNL     1      -0.888   9.492  22.229  0.00  0.00    +0.000 NA
ATOM     11  H   UNL     1      -3.456  12.140  25.026  0.00  0.00    +0.000 HD
ATOM     12  H   UNL     1      -2.386  10.426  23.831  0.00  0.00    +0.000 HD
ENDROOT
BRANCH   7  13
ATOM     13  N   UNL     1       1.372  12.386  20.102  0.00  0.00    +0.000 N 
ATOM     14  C   UNL     1       0.906  12.854  18.771  0.00  0.00    +0.000 C 
ATOM     15  C   UNL     1       2.114  13.329  17.931  0.00  0.00    +0.000 C 
ATOM     16  N   UNL     1       2.850  14.415  18.613  0.00  0.00    +0.000 NA
ATOM     17  C   UNL     1       3.980  14.868  17.809  0.00  0.00    +0.000 C 
ATOM     18  C   UNL     1       3.298  13.928  19.940  0.00  0.00    +0.000 C 
ATOM     19  C   UNL     1       2.122  13.424  20.826  0.00  0.00    +0.000 C 
ENDBRANCH   7  13
BRANCH   8  20
ATOM     20  C   UNL     1       1.564   9.299  19.404  0.00  0.00    +0.000 C 
ATOM     21  O   UNL     1       1.878   9.908  18.392  0.00  0.00    +0.000 OA
ATOM     22  N   UNL     1       1.985   8.010  19.734  0.00  0.00    +0.000 N 
ATOM     23  H   UNL     1       1.714   7.639  20.636  0.00  0.00    +0.000 HD
BRANCH  22  24
ATOM     24  C   UNL     1       2.767   7.139  18.937  0.00  0.00    +0.000 A 
ATOM     25  C   UNL     1       3.450   7.516  17.785  0.00  0.00    +0.000 A 
ATOM     26  C   UNL     1       4.161   6.564  17.048  0.00  0.00    +0.000 A 
ATOM     27  C   UNL     1       4.181   5.255  17.494  0.00  0.00    +0.000 A 
ATOM     28  N   UNL     1       3.548   4.842  18.613  0.00  0.00    +0.000 NA
ATOM     29  C   UNL     1       2.860   5.789  19.300  0.00  0.00    +0.000 A 
ENDBRANCH  22  24
ENDBRANCH   8  20
BRANCH   1  31
ATOM     30  C   UNL     1      -6.249  12.564  24.154  0.00  0.00    +0.000 C 
ATOM     31  C   UNL     1      -4.916  13.267  23.976  0.00  0.00    +0.000 C 
ENDBRANCH   1  31
TORSDOF 4
ENDMDL
