MODEL 1
REMARK VINA RESULT:      -8.5      0.000      0.000
REMARK  Name = 
REMARK  6 active torsions:
REMARK  status: ('A' for Active; 'I' for Inactive)
REMARK    1  A    between atoms: C_1  and  C_2
REMARK    2  A    between atoms: N_7  and  C_8
REMARK    3  A    between atoms: C_11  and  C_12
REMARK    4  A    between atoms: C_13  and  C_14
REMARK    5  A    between atoms: C_16  and  O_17
REMARK    6  A    between atoms: C_19  and  N_20
REMARK                            x       y       z     vdW  Elec       q    Type
REMARK                         _______ _______ _______ _____ _____    ______ ____
ROOT
ATOM      1  C   UNL     1       0.337  10.602  21.093  0.00  0.00    +0.000 A 
ATOM      2  C   UNL     1       0.541  10.696  19.711  0.00  0.00    +0.000 A 
ATOM      3  C   UNL     1       1.119   9.651  18.977  0.00  0.00    +0.000 A 
ATOM      4  C   UNL     1       1.520   8.472  19.610  0.00  0.00    +0.000 A 
ATOM      5  C   UNL     1       1.296   8.350  20.980  0.00  0.00    +0.000 A 
ATOM      6  C   UNL     1       0.721   9.400  21.704  0.00  0.00    +0.000 A 
ENDROOT
BRANCH   1  13
ATOM      7  C   UNL     1      -3.333  14.321  24.683  0.00  0.00    +0.000 C 
ATOM      8  C   UNL     1      -2.575  14.648  23.423  0.00  0.00    +0.000 C 
ATOM      9  O   UNL     1      -2.362  15.822  23.117  0.00  0.00    +0.000 OA
ATOM     10  N   UNL     1      -2.105  13.587  22.676  0.00  0.00    +0.000 N 
ATOM     11  C   UNL     1      -1.246  13.843  21.513  0.00  0.00    +0.000 C 
ATOM     12  C   UNL     1       0.069  13.038  21.599  0.00  0.00    +0.000 C 
ATOM     13  N   UNL     1      -0.243  11.615  21.824  0.00  0.00    +0.000 N 
ATOM     14  C   UNL     1      -1.083  11.344  23.002  0.00  0.00    +0.000 C 
ATOM     15  C   UNL     1      -2.384  12.163  22.920  0.00  0.00    +0.000 C 
ENDBRANCH   1  13
BRANCH   4  16
ATOM     16  C   UNL     1       2.121   7.396  18.812  0.00  0.00    +0.000 C 
ATOM     17  C   UNL     1       2.291   6.139  19.259  0.00  0.00    +0.000 C 
BRANCH  17  18
ATOM     18  C   UNL     1       2.939   5.071  18.487  0.00  0.00    +0.000 A 
ATOM     19  C   UNL     1       2.567   3.744  18.715  0.00  0.00    +0.000 A 
ATOM     20  C   UNL     1       3.203   2.720  18.021  0.00  0.00    +0.000 A 
ATOM     21  C   UNL     1       4.205   2.990  17.092  0.00  0.00    +0.000 A 
ATOM     22  C   UNL     1       4.614   4.311  16.875  0.00  0.00    +0.000 A 
ATOM     23  C   UNL     1       3.978   5.344  17.581  0.00  0.00    +0.000 A 
BRANCH  22  24
ATOM     24  N   UNL     1       5.677   4.608  15.974  0.00  0.00    +0.000 N 
ATOM     25  C   UNL     1       5.753   4.286  14.634  0.00  0.00    +0.000 A 
ATOM     26  C   UNL     1       6.942   4.804  14.181  0.00  0.00    +0.000 A 
ATOM     27  N   UNL     1       7.615   5.424  15.190  0.00  0.00    +0.000 NA
ATOM     28  C   UNL     1       6.843   5.291  16.247  0.00  0.00    +0.000 A 
ENDBRANCH  22  24
BRANCH  20  29
ATOM     29  O   UNL     1       2.880   1.412  18.234  0.00  0.00    +0.000 OA
ATOM     30  H   UNL     1       3.441   0.854  17.671  0.00  0.00    +0.000 HD
ENDBRANCH  20  29
ENDBRANCH  17  18
ENDBRANCH   4  16
TORSDOF 5
ENDMDL
MODEL 2
REMARK VINA RESULT:      -8.4      1.508      2.267
REMARK  Name = 
REMARK  6 active torsions:
REMARK  status: ('A' for Active; 'I' for Inactive)
REMARK    1  A    between atoms: C_1  and  C_2
REMARK    2  A    between atoms: N_7  and  C_8
REMARK    3  A    between atoms: C_11  and  C_12
REMARK    4  A    between atoms: C_13  and  C_14
REMARK    5  A    between atoms: C_16  and  O_17
REMARK    6  A    between atoms: C_19  and  N_20
REMARK                            x       y       z     vdW  Elec       q    Type
REMARK                         _______ _______ _______ _____ _____    ______ ____
ROOT
ATOM      1  C   UNL     1      -0.882  11.492  22.259  0.00  0.00    +0.000 A 
ATOM      2  C   UNL     1      -0.215  11.353  21.036  0.00  0.00    +0.000 A 
ATOM      3  C   UNL     1       0.484  10.184  20.705  0.00  0.00    +0.000 A 
ATOM      4  C   UNL     1       0.543   9.112  21.598  0.00  0.00    +0.000 A 
ATOM      5  C   UNL     1      -0.141   9.222  22.807  0.00  0.00    +0.000 A 
ATOM      6  C   UNL     1      -0.833  10.394  23.129  0.00  0.00    +0.000 A 
ENDROOT
BRANCH   1  13
ATOM      7  C   UNL     1      -3.024  16.976  24.609  0.00  0.00    +0.000 C 
ATOM      8  C   UNL     1      -3.762  15.690  24.348  0.00  0.00    +0.000 C 
ATOM      9  O   UNL     1      -4.992  15.682  24.302  0.00  0.00    +0.000 OA
ATOM     10  N   UNL     1      -3.001  14.561  24.122  0.00  0.00    +0.000 N 
ATOM     11  C   UNL     1      -3.661  13.308  23.729  0.00  0.00    +0.000 C 
ATOM     12  C   UNL     1      -3.047  12.734  22.435  0.00  0.00    +0.000 C 
ATOM     13  N   UNL     1      -1.585  12.629  22.591  0.00  0.00    +0.000 N 
ATOM     14  C   UNL     1      -0.910  13.884  22.960  0.00  0.00    +0.000 C 
ATOM     15  C   UNL     1      -1.538  14.462  24.241  0.00  0.00    +0.000 C 
ENDBRANCH   1  13
BRANCH   4  16
ATOM     16  C   UNL     1       1.283   7.900  21.221  0.00  0.00    +0.000 C 
ATOM     17  C   UNL     1       1.845   7.712  20.015  0.00  0.00    +0.000 C 
BRANCH  17  18
ATOM     18  C   UNL     1       2.541   6.482  19.613  0.00  0.00    +0.000 A 
ATOM     19  C   UNL     1       2.337   5.312  20.349  0.00  0.00    +0.000 A 
ATOM     20  C   UNL     1       3.022   4.152  20.005  0.00  0.00    +0.000 A 
ATOM     21  C   UNL     1       3.910   4.128  18.933  0.00  0.00    +0.000 A 
ATOM     22  C   UNL     1       4.153   5.299  18.205  0.00  0.00    +0.000 A 
ATOM     23  C   UNL     1       3.467   6.472  18.556  0.00  0.00    +0.000 A 
BRANCH  22  24
ATOM     24  N   UNL     1       5.100   5.315  17.141  0.00  0.00    +0.000 N 
ATOM     25  C   UNL     1       6.184   4.477  16.972  0.00  0.00    +0.000 A 
ATOM     26  C   UNL     1       6.780   4.853  15.792  0.00  0.00    +0.000 A 
ATOM     27  N   UNL     1       6.117   5.900  15.227  0.00  0.00    +0.000 NA
ATOM     28  C   UNL     1       5.123   6.158  16.050  0.00  0.00    +0.000 A 
ENDBRANCH  22  24
BRANCH  20  29
ATOM     29  O   UNL     1       2.864   2.998  20.715  0.00  0.00    +0.000 OA
ATOM     30  H   UNL     1       1.977   2.992  21.113  0.00  0.00    +0.000 HD
ENDBRANCH  20  29
ENDBRANCH  17  18
ENDBRANCH   4  16
TORSDOF 5
ENDMDL
MODEL 3
REMARK VINA RESULT:      -8.3      1.466      1.971
REMARK  Name = 
REMARK  6 active torsions:
REMARK  status: ('A' for Active; 'I' for Inactive)
REMARK    1  A    between atoms: C_1  and  C_2
REMARK    2  A    between atoms: N_7  and  C_8
REMARK    3  A    between atoms: C_11  and  C_12
REMARK    4  A    between atoms: C_13  and  C_14
REMARK    5  A    between atoms: C_16  and  O_17
REMARK    6  A    between atoms: C_19  and  N_20
REMARK                            x       y       z     vdW  Elec       q    Type
REMARK                         _______ _______ _______ _____ _____    ______ ____
ROOT
ATOM      1  C   UNL     1      -0.849  11.118  21.638  0.00  0.00    +0.000 A 
ATOM      2  C   UNL     1      -0.447  10.206  22.621  0.00  0.00    +0.000 A 
ATOM      3  C   UNL     1       0.340   9.087  22.313  0.00  0.00    +0.000 A 
ATOM      4  C   UNL     1       0.745   8.840  20.999  0.00  0.00    +0.000 A 
ATOM      5  C   UNL     1       0.378   9.754  20.013  0.00  0.00    +0.000 A 
ATOM      6  C   UNL     1      -0.409  10.866  20.331  0.00  0.00    +0.000 A 
ENDROOT
BRANCH   1  13
ATOM      7  C   UNL     1      -3.902  16.008  24.275  0.00  0.00    +0.000 C 
ATOM      8  C   UNL     1      -4.373  15.033  23.228  0.00  0.00    +0.000 C 
ATOM      9  O   UNL     1      -5.362  15.294  22.543  0.00  0.00    +0.000 OA
ATOM     10  N   UNL     1      -3.627  13.886  23.053  0.00  0.00    +0.000 N 
ATOM     11  C   UNL     1      -3.958  12.965  21.958  0.00  0.00    +0.000 C 
ATOM     12  C   UNL     1      -2.725  12.675  21.076  0.00  0.00    +0.000 C 
ATOM     13  N   UNL     1      -1.608  12.230  21.929  0.00  0.00    +0.000 N 
ATOM     14  C   UNL     1      -1.250  13.157  23.015  0.00  0.00    +0.000 C 
ATOM     15  C   UNL     1      -2.488  13.457  23.880  0.00  0.00    +0.000 C 
ENDBRANCH   1  13
BRANCH   4  16
ATOM     16  C   UNL     1       1.568   7.659  20.709  0.00  0.00    +0.000 C 
ATOM     17  C   UNL     1       2.157   7.431  19.523  0.00  0.00    +0.000 C 
BRANCH  17  18
ATOM     18  C   UNL     1       2.938   6.227  19.209  0.00  0.00    +0.000 A 
ATOM     19  C   UNL     1       2.792   5.092  20.011  0.00  0.00    +0.000 A 
ATOM     20  C   UNL     1       3.558   3.961  19.751  0.00  0.00    +0.000 A 
ATOM     21  C   UNL     1       4.469   3.930  18.698  0.00  0.00    +0.000 A 
ATOM     22  C   UNL     1       4.653   5.070  17.905  0.00  0.00    +0.000 A 
ATOM     23  C   UNL     1       3.886   6.215  18.172  0.00  0.00    +0.000 A 
BRANCH  22  24
ATOM     24  N   UNL     1       5.621   5.084  16.859  0.00  0.00    +0.000 N 
ATOM     25  C   UNL     1       5.622   4.321  15.710  0.00  0.00    +0.000 A 
ATOM     26  C   UNL     1       6.732   4.703  14.995  0.00  0.00    +0.000 A 
ATOM     27  N   UNL     1       7.428   5.665  15.662  0.00  0.00    +0.000 NA
ATOM     28  C   UNL     1       6.748   5.872  16.770  0.00  0.00    +0.000 A 
ENDBRANCH  22  24
BRANCH  20  29
ATOM     29  O   UNL     1       3.458   2.843  20.526  0.00  0.00    +0.000 OA
ATOM     30  H   UNL     1       2.736   2.288  20.186  0.00  0.00    +0.000 HD
ENDBRANCH  20  29
ENDBRANCH  17  18
ENDBRANCH   4  16
TORSDOF 5
ENDMDL
MODEL 4
REMARK VINA RESULT:      -8.3      1.390      2.069
REMARK  Name = 
REMARK  6 active torsions:
REMARK  status: ('A' for Active; 'I' for Inactive)
REMARK    1  A    between atoms: C_1  and  C_2
REMARK    2  A    between atoms: N_7  and  C_8
REMARK    3  A    between atoms: C_11  and  C_12
REMARK    4  A    between atoms: C_13  and  C_14
REMARK    5  A    between atoms: C_16  and  O_17
REMARK    6  A    between atoms: C_19  and  N_20
REMARK                            x       y       z     vdW  Elec       q    Type
REMARK                         _______ _______ _______ _____ _____    ______ ____
ROOT
ATOM      1  C   UNL     1      -0.767  11.320  22.403  0.00  0.00    +0.000 A 
ATOM      2  C   UNL     1      -0.762  10.139  23.155  0.00  0.00    +0.000 A 
ATOM      3  C   UNL     1      -0.053   9.003  22.741  0.00  0.00    +0.000 A 
ATOM      4  C   UNL     1       0.674   9.012  21.549  0.00  0.00    +0.000 A 
ATOM      5  C   UNL     1       0.705  10.189  20.803  0.00  0.00    +0.000 A 
ATOM      6  C   UNL     1      -0.009  11.316  21.224  0.00  0.00    +0.000 A 
ENDROOT
BRANCH   1  13
ATOM      7  C   UNL     1      -5.021  15.761  23.940  0.00  0.00    +0.000 C 
ATOM      8  C   UNL     1      -3.712  15.898  23.207  0.00  0.00    +0.000 C 
ATOM      9  O   UNL     1      -3.187  17.004  23.082  0.00  0.00    +0.000 OA
ATOM     10  N   UNL     1      -3.129  14.739  22.737  0.00  0.00    +0.000 N 
ATOM     11  C   UNL     1      -1.790  14.793  22.135  0.00  0.00    +0.000 C 
ATOM     12  C   UNL     1      -0.831  13.788  22.808  0.00  0.00    +0.000 C 
ATOM     13  N   UNL     1      -1.446  12.449  22.805  0.00  0.00    +0.000 N 
ATOM     14  C   UNL     1      -2.777  12.377  23.429  0.00  0.00    +0.000 C 
ATOM     15  C   UNL     1      -3.724  13.394  22.767  0.00  0.00    +0.000 C 
ENDBRANCH   1  13
BRANCH   4  16
ATOM     16  C   UNL     1       1.407   7.805  21.143  0.00  0.00    +0.000 C 
ATOM     17  C   UNL     1       1.842   7.580  19.892  0.00  0.00    +0.000 C 
BRANCH  17  18
ATOM     18  C   UNL     1       2.530   6.353  19.468  0.00  0.00    +0.000 A 
ATOM     19  C   UNL     1       2.443   5.211  20.268  0.00  0.00    +0.000 A 
ATOM     20  C   UNL     1       3.124   4.056  19.900  0.00  0.00    +0.000 A 
ATOM     21  C   UNL     1       3.892   4.009  18.739  0.00  0.00    +0.000 A 
ATOM     22  C   UNL     1       4.018   5.154  17.942  0.00  0.00    +0.000 A 
ATOM     23  C   UNL     1       3.337   6.322  18.318  0.00  0.00    +0.000 A 
BRANCH  22  24
ATOM     24  N   UNL     1       4.845   5.148  16.782  0.00  0.00    +0.000 N 
ATOM     25  C   UNL     1       5.452   4.058  16.192  0.00  0.00    +0.000 A 
ATOM     26  C   UNL     1       6.116   4.539  15.088  0.00  0.00    +0.000 A 
ATOM     27  N   UNL     1       5.955   5.887  14.976  0.00  0.00    +0.000 NA
ATOM     28  C   UNL     1       5.197   6.226  15.997  0.00  0.00    +0.000 A 
ENDBRANCH  22  24
BRANCH  20  29
ATOM     29  O   UNL     1       3.079   2.930  20.669  0.00  0.00    +0.000 OA
ATOM     30  H   UNL     1       2.733   2.197  20.134  0.00  0.00    +0.000 HD
ENDBRANCH  20  29
ENDBRANCH  17  18
ENDBRANCH   4  16
TORSDOF 5
ENDMDL
MODEL 5
REMARK VINA RESULT:      -8.2      1.561      2.529
REMARK  Name = 
REMARK  6 active torsions:
REMARK  status: ('A' for Active; 'I' for Inactive)
REMARK    1  A    between atoms: C_1  and  C_2
REMARK    2  A    between atoms: N_7  and  C_8
REMARK    3  A    between atoms: C_11  and  C_12
REMARK    4  A    between atoms: C_13  and  C_14
REMARK    5  A    between atoms: C_16  and  O_17
REMARK    6  A    between atoms: C_19  and  N_20
REMARK                            x       y       z     vdW  Elec       q    Type
REMARK                         _______ _______ _______ _____ _____    ______ ____
ROOT
ATOM      1  C   UNL     1      -0.923  11.325  22.175  0.00  0.00    +0.000 A 
ATOM      2  C   UNL     1      -0.776  10.324  23.143  0.00  0.00    +0.000 A 
ATOM      3  C   UNL     1      -0.128   9.113  22.860  0.00  0.00    +0.000 A 
ATOM      4  C   UNL     1       0.390   8.862  21.588  0.00  0.00    +0.000 A 
ATOM      5  C   UNL     1       0.279   9.860  20.621  0.00  0.00    +0.000 A 
ATOM      6  C   UNL     1      -0.372  11.063  20.913  0.00  0.00    +0.000 A 
ENDROOT
BRANCH   1  13
ATOM      7  C   UNL     1      -2.623  17.107  24.140  0.00  0.00    +0.000 C 
ATOM      8  C   UNL     1      -3.443  15.848  24.037  0.00  0.00    +0.000 C 
ATOM      9  O   UNL     1      -4.673  15.908  24.061  0.00  0.00    +0.000 OA
ATOM     10  N   UNL     1      -2.759  14.661  23.871  0.00  0.00    +0.000 N 
ATOM     11  C   UNL     1      -3.507  13.420  23.630  0.00  0.00    +0.000 C 
ATOM     12  C   UNL     1      -3.004  12.701  22.360  0.00  0.00    +0.000 C 
ATOM     13  N   UNL     1      -1.543  12.525  22.443  0.00  0.00    +0.000 N 
ATOM     14  C   UNL     1      -0.781  13.766  22.660  0.00  0.00    +0.000 C 
ATOM     15  C   UNL     1      -1.299  14.488  23.917  0.00  0.00    +0.000 C 
ENDBRANCH   1  13
BRANCH   4  16
ATOM     16  C   UNL     1       1.064   7.584  21.324  0.00  0.00    +0.000 C 
ATOM     17  C   UNL     1       1.785   7.333  20.218  0.00  0.00    +0.000 C 
BRANCH  17  18
ATOM     18  C   UNL     1       2.418   6.040  19.923  0.00  0.00    +0.000 A 
ATOM     19  C   UNL     1       1.965   4.894  20.581  0.00  0.00    +0.000 A 
ATOM     20  C   UNL     1       2.584   3.672  20.342  0.00  0.00    +0.000 A 
ATOM     21  C   UNL     1       3.649   3.562  19.451  0.00  0.00    +0.000 A 
ATOM     22  C   UNL     1       4.138   4.706  18.809  0.00  0.00    +0.000 A 
ATOM     23  C   UNL     1       3.519   5.941  19.056  0.00  0.00    +0.000 A 
BRANCH  22  24
ATOM     24  N   UNL     1       5.264   4.629  17.939  0.00  0.00    +0.000 N 
ATOM     25  C   UNL     1       6.584   4.879  18.254  0.00  0.00    +0.000 A 
ATOM     26  C   UNL     1       7.303   4.647  17.106  0.00  0.00    +0.000 A 
ATOM     27  N   UNL     1       6.480   4.276  16.086  0.00  0.00    +0.000 NA
ATOM     28  C   UNL     1       5.271   4.275  16.607  0.00  0.00    +0.000 A 
ENDBRANCH  22  24
BRANCH  20  29
ATOM     29  O   UNL     1       2.181   2.536  20.983  0.00  0.00    +0.000 OA
ATOM     30  H   UNL     1       2.175   2.700  21.940  0.00  0.00    +0.000 HD
ENDBRANCH  20  29
ENDBRANCH  17  18
ENDBRANCH   4  16
TORSDOF 5
ENDMDL
MODEL 6
REMARK VINA RESULT:      -8.2      1.227      1.665
REMARK  Name = 
REMARK  6 active torsions:
REMARK  status: ('A' for Active; 'I' for Inactive)
REMARK    1  A    between atoms: C_1  and  C_2
REMARK    2  A    between atoms: N_7  and  C_8
REMARK    3  A    between atoms: C_11  and  C_12
REMARK    4  A    between atoms: C_13  and  C_14
REMARK    5  A    between atoms: C_16  and  O_17
REMARK    6  A    between atoms: C_19  and  N_20
REMARK                            x       y       z     vdW  Elec       q    Type
REMARK                         _______ _______ _______ _____ _____    ______ ____
ROOT
ATOM      1  C   UNL     1      -0.614  10.901  21.406  0.00  0.00    +0.000 A 
ATOM      2  C   UNL     1      -0.049  10.691  20.142  0.00  0.00    +0.000 A 
ATOM      3  C   UNL     1       0.760   9.580  19.869  0.00  0.00    +0.000 A 
ATOM      4  C   UNL     1       1.038   8.639  20.864  0.00  0.00    +0.000 A 
ATOM      5  C   UNL     1       0.459   8.816  22.120  0.00  0.00    +0.000 A 
ATOM      6  C   UNL     1      -0.345   9.931  22.382  0.00  0.00    +0.000 A 
ENDROOT
BRANCH   1  13
ATOM      7  C   UNL     1      -3.840  16.357  21.479  0.00  0.00    +0.000 C 
ATOM      8  C   UNL     1      -3.135  15.642  22.602  0.00  0.00    +0.000 C 
ATOM      9  O   UNL     1      -3.383  15.936  23.772  0.00  0.00    +0.000 OA
ATOM     10  N   UNL     1      -2.257  14.636  22.257  0.00  0.00    +0.000 N 
ATOM     11  C   UNL     1      -1.643  13.816  23.309  0.00  0.00    +0.000 C 
ATOM     12  C   UNL     1      -1.867  12.311  23.049  0.00  0.00    +0.000 C 
ATOM     13  N   UNL     1      -1.424  11.980  21.683  0.00  0.00    +0.000 N 
ATOM     14  C   UNL     1      -2.051  12.779  20.617  0.00  0.00    +0.000 C 
ATOM     15  C   UNL     1      -1.840  14.279  20.892  0.00  0.00    +0.000 C 
ENDBRANCH   1  13
BRANCH   4  16
ATOM     16  C   UNL     1       1.889   7.485  20.547  0.00  0.00    +0.000 C 
ATOM     17  C   UNL     1       2.294   7.173  19.304  0.00  0.00    +0.000 C 
BRANCH  17  18
ATOM     18  C   UNL     1       3.101   5.992  18.973  0.00  0.00    +0.000 A 
ATOM     19  C   UNL     1       3.032   4.866  19.798  0.00  0.00    +0.000 A 
ATOM     20  C   UNL     1       3.823   3.757  19.520  0.00  0.00    +0.000 A 
ATOM     21  C   UNL     1       4.686   3.740  18.426  0.00  0.00    +0.000 A 
ATOM     22  C   UNL     1       4.794   4.872  17.609  0.00  0.00    +0.000 A 
ATOM     23  C   UNL     1       4.001   5.994  17.894  0.00  0.00    +0.000 A 
BRANCH  22  24
ATOM     24  N   UNL     1       5.711   4.900  16.519  0.00  0.00    +0.000 N 
ATOM     25  C   UNL     1       5.614   4.218  15.324  0.00  0.00    +0.000 A 
ATOM     26  C   UNL     1       6.711   4.583  14.581  0.00  0.00    +0.000 A 
ATOM     27  N   UNL     1       7.494   5.457  15.274  0.00  0.00    +0.000 NA
ATOM     28  C   UNL     1       6.879   5.627  16.425  0.00  0.00    +0.000 A 
ENDBRANCH  22  24
BRANCH  20  29
ATOM     29  O   UNL     1       3.797   2.649  20.316  0.00  0.00    +0.000 OA
ATOM     30  H   UNL     1       3.152   2.019  19.957  0.00  0.00    +0.000 HD
ENDBRANCH  20  29
ENDBRANCH  17  18
ENDBRANCH   4  16
TORSDOF 5
ENDMDL
MODEL 7
REMARK VINA RESULT:      -8.2      0.867      1.613
REMARK  Name = 
REMARK  6 active torsions:
REMARK  status: ('A' for Active; 'I' for Inactive)
REMARK    1  A    between atoms: C_1  and  C_2
REMARK    2  A    between atoms: N_7  and  C_8
REMARK    3  A    between atoms: C_11  and  C_12
REMARK    4  A    between atoms: C_13  and  C_14
REMARK    5  A    between atoms: C_16  and  O_17
REMARK    6  A    between atoms: C_19  and  N_20
REMARK                            x       y       z     vdW  Elec       q    Type
REMARK                         _______ _______ _______ _____ _____    ______ ____
ROOT
ATOM      1  C   UNL     1       0.213  11.084  20.442  0.00  0.00    +0.000 A 
ATOM      2  C   UNL     1       0.546   9.905  21.119  0.00  0.00    +0.000 A 
ATOM      3  C   UNL     1       1.185   8.837  20.474  0.00  0.00    +0.000 A 
ATOM      4  C   UNL     1       1.506   8.915  19.116  0.00  0.00    +0.000 A 
ATOM      5  C   UNL     1       1.208  10.093  18.434  0.00  0.00    +0.000 A 
ATOM      6  C   UNL     1       0.568  11.151  19.087  0.00  0.00    +0.000 A 
ENDROOT
BRANCH   1  13
ATOM      7  C   UNL     1      -1.366  16.578  23.182  0.00  0.00    +0.000 C 
ATOM      8  C   UNL     1      -1.722  15.169  23.579  0.00  0.00    +0.000 C 
ATOM      9  O   UNL     1      -2.649  14.964  24.363  0.00  0.00    +0.000 OA
ATOM     10  N   UNL     1      -1.002  14.148  22.994  0.00  0.00    +0.000 N 
ATOM     11  C   UNL     1      -1.391  12.753  23.239  0.00  0.00    +0.000 C 
ATOM     12  C   UNL     1      -1.597  11.988  21.914  0.00  0.00    +0.000 C 
ATOM     13  N   UNL     1      -0.401  12.147  21.067  0.00  0.00    +0.000 N 
ATOM     14  C   UNL     1      -0.016  13.541  20.794  0.00  0.00    +0.000 C 
ATOM     15  C   UNL     1       0.170  14.304  22.118  0.00  0.00    +0.000 C 
ENDBRANCH   1  13
BRANCH   4  16
ATOM     16  C   UNL     1       2.176   7.779  18.469  0.00  0.00    +0.000 C 
ATOM     17  C   UNL     1       2.030   6.502  18.861  0.00  0.00    +0.000 C 
BRANCH  17  18
ATOM     18  C   UNL     1       2.737   5.368  18.252  0.00  0.00    +0.000 A 
ATOM     19  C   UNL     1       2.370   4.067  18.605  0.00  0.00    +0.000 A 
ATOM     20  C   UNL     1       3.060   2.985  18.068  0.00  0.00    +0.000 A 
ATOM     21  C   UNL     1       4.112   3.170  17.175  0.00  0.00    +0.000 A 
ATOM     22  C   UNL     1       4.516   4.467  16.836  0.00  0.00    +0.000 A 
ATOM     23  C   UNL     1       3.825   5.559  17.383  0.00  0.00    +0.000 A 
BRANCH  22  24
ATOM     24  N   UNL     1       5.627   4.683  15.970  0.00  0.00    +0.000 N 
ATOM     25  C   UNL     1       5.822   4.154  14.710  0.00  0.00    +0.000 A 
ATOM     26  C   UNL     1       7.013   4.669  14.257  0.00  0.00    +0.000 A 
ATOM     27  N   UNL     1       7.573   5.488  15.192  0.00  0.00    +0.000 NA
ATOM     28  C   UNL     1       6.730   5.477  16.203  0.00  0.00    +0.000 A 
ENDBRANCH  22  24
BRANCH  20  29
ATOM     29  O   UNL     1       2.743   1.703  18.408  0.00  0.00    +0.000 OA
ATOM     30  H   UNL     1       1.861   1.694  18.815  0.00  0.00    +0.000 HD
ENDBRANCH  20  29
ENDBRANCH  17  18
ENDBRANCH   4  16
TORSDOF 5
ENDMDL
MODEL 8
REMARK VINA RESULT:      -8.1      1.666      2.032
REMARK  Name = 
REMARK  6 active torsions:
REMARK  status: ('A' for Active; 'I' for Inactive)
REMARK    1  A    between atoms: C_1  and  C_2
REMARK    2  A    between atoms: N_7  and  C_8
REMARK    3  A    between atoms: C_11  and  C_12
REMARK    4  A    between atoms: C_13  and  C_14
REMARK    5  A    between atoms: C_16  and  O_17
REMARK    6  A    between atoms: C_19  and  N_20
REMARK                            x       y       z     vdW  Elec       q    Type
REMARK                         _______ _______ _______ _____ _____    ______ ____
ROOT
ATOM      1  C   UNL     1      -0.580  10.807  21.235  0.00  0.00    +0.000 A 
ATOM      2  C   UNL     1      -0.116   9.864  22.160  0.00  0.00    +0.000 A 
ATOM      3  C   UNL     1       0.724   8.808  21.780  0.00  0.00    +0.000 A 
ATOM      4  C   UNL     1       1.123   8.658  20.450  0.00  0.00    +0.000 A 
ATOM      5  C   UNL     1       0.694   9.605  19.522  0.00  0.00    +0.000 A 
ATOM      6  C   UNL     1      -0.147  10.654  19.911  0.00  0.00    +0.000 A 
ENDROOT
BRANCH   1  13
ATOM      7  C   UNL     1      -4.569  14.866  24.028  0.00  0.00    +0.000 C 
ATOM      8  C   UNL     1      -4.462  14.468  22.579  0.00  0.00    +0.000 C 
ATOM      9  O   UNL     1      -4.994  15.157  21.709  0.00  0.00    +0.000 OA
ATOM     10  N   UNL     1      -3.716  13.344  22.287  0.00  0.00    +0.000 N 
ATOM     11  C   UNL     1      -3.465  12.984  20.886  0.00  0.00    +0.000 C 
ATOM     12  C   UNL     1      -1.956  12.803  20.616  0.00  0.00    +0.000 C 
ATOM     13  N   UNL     1      -1.393  11.858  21.598  0.00  0.00    +0.000 N 
ATOM     14  C   UNL     1      -1.618  12.222  23.006  0.00  0.00    +0.000 C 
ATOM     15  C   UNL     1      -3.123  12.419  23.265  0.00  0.00    +0.000 C 
ENDBRANCH   1  13
BRANCH   4  16
ATOM     16  C   UNL     1       2.004   7.542  20.084  0.00  0.00    +0.000 C 
ATOM     17  C   UNL     1       1.811   6.274  20.484  0.00  0.00    +0.000 C 
BRANCH  17  18
ATOM     18  C   UNL     1       2.716   5.162  20.165  0.00  0.00    +0.000 A 
ATOM     19  C   UNL     1       2.684   4.009  20.954  0.00  0.00    +0.000 A 
ATOM     20  C   UNL     1       3.565   2.967  20.688  0.00  0.00    +0.000 A 
ATOM     21  C   UNL     1       4.482   3.043  19.643  0.00  0.00    +0.000 A 
ATOM     22  C   UNL     1       4.552   4.205  18.864  0.00  0.00    +0.000 A 
ATOM     23  C   UNL     1       3.668   5.260  19.136  0.00  0.00    +0.000 A 
BRANCH  22  24
ATOM     24  N   UNL     1       5.521   4.331  17.827  0.00  0.00    +0.000 N 
ATOM     25  C   UNL     1       5.333   4.121  16.475  0.00  0.00    +0.000 A 
ATOM     26  C   UNL     1       6.538   4.393  15.873  0.00  0.00    +0.000 A 
ATOM     27  N   UNL     1       7.471   4.751  16.798  0.00  0.00    +0.000 NA
ATOM     28  C   UNL     1       6.842   4.704  17.954  0.00  0.00    +0.000 A 
ENDBRANCH  22  24
BRANCH  20  29
ATOM     29  O   UNL     1       3.577   1.836  21.451  0.00  0.00    +0.000 OA
ATOM     30  H   UNL     1       4.474   1.698  21.797  0.00  0.00    +0.000 HD
ENDBRANCH  20  29
ENDBRANCH  17  18
ENDBRANCH   4  16
TORSDOF 5
ENDMDL
MODEL 9
REMARK VINA RESULT:      -8.0      1.760      2.487
REMARK  Name = 
REMARK  6 active torsions:
REMARK  status: ('A' for Active; 'I' for Inactive)
REMARK    1  A    between atoms: C_1  and  C_2
REMARK    2  A    between atoms: N_7  and  C_8
REMARK    3  A    between atoms: C_11  and  C_12
REMARK    4  A    between atoms: C_13  and  C_14
REMARK    5  A    between atoms: C_16  and  O_17
REMARK    6  A    between atoms: C_19  and  N_20
REMARK                            x       y       z     vdW  Elec       q    Type
REMARK                         _______ _______ _______ _____ _____    ______ ____
ROOT
ATOM      1  C   UNL     1      -0.727  11.475  21.880  0.00  0.00    +0.000 A 
ATOM      2  C   UNL     1      -0.285  11.333  20.559  0.00  0.00    +0.000 A 
ATOM      3  C   UNL     1       0.460  10.219  20.145  0.00  0.00    +0.000 A 
ATOM      4  C   UNL     1       0.794   9.209  21.050  0.00  0.00    +0.000 A 
ATOM      5  C   UNL     1       0.337   9.320  22.362  0.00  0.00    +0.000 A 
ATOM      6  C   UNL     1      -0.403  10.437  22.765  0.00  0.00    +0.000 A 
ENDROOT
BRANCH   1  13
ATOM      7  C   UNL     1      -3.062  16.692  24.621  0.00  0.00    +0.000 C 
ATOM      8  C   UNL     1      -3.749  15.396  24.281  0.00  0.00    +0.000 C 
ATOM      9  O   UNL     1      -4.979  15.339  24.249  0.00  0.00    +0.000 OA
ATOM     10  N   UNL     1      -2.946  14.318  23.971  0.00  0.00    +0.000 N 
ATOM     11  C   UNL     1      -3.558  13.068  23.501  0.00  0.00    +0.000 C 
ATOM     12  C   UNL     1      -2.939  12.608  22.164  0.00  0.00    +0.000 C 
ATOM     13  N   UNL     1      -1.472  12.556  22.296  0.00  0.00    +0.000 N 
ATOM     14  C   UNL     1      -0.845  13.811  22.742  0.00  0.00    +0.000 C 
ATOM     15  C   UNL     1      -1.478  14.274  24.067  0.00  0.00    +0.000 C 
ENDBRANCH   1  13
BRANCH   4  16
ATOM     16  C   UNL     1       1.575   8.055  20.585  0.00  0.00    +0.000 C 
ATOM     17  C   UNL     1       1.199   6.777  20.764  0.00  0.00    +0.000 C 
BRANCH  17  18
ATOM     18  C   UNL     1       2.000   5.618  20.348  0.00  0.00    +0.000 A 
ATOM     19  C   UNL     1       1.541   4.331  20.645  0.00  0.00    +0.000 A 
ATOM     20  C   UNL     1       2.310   3.227  20.294  0.00  0.00    +0.000 A 
ATOM     21  C   UNL     1       3.534   3.374  19.645  0.00  0.00    +0.000 A 
ATOM     22  C   UNL     1       4.025   4.657  19.371  0.00  0.00    +0.000 A 
ATOM     23  C   UNL     1       3.253   5.772  19.731  0.00  0.00    +0.000 A 
BRANCH  22  24
ATOM     24  N   UNL     1       5.300   4.835  18.760  0.00  0.00    +0.000 N 
ATOM     25  C   UNL     1       6.421   5.415  19.317  0.00  0.00    +0.000 A 
ATOM     26  C   UNL     1       7.410   5.333  18.366  0.00  0.00    +0.000 A 
ATOM     27  N   UNL     1       6.942   4.736  17.234  0.00  0.00    +0.000 NA
ATOM     28  C   UNL     1       5.684   4.452  17.493  0.00  0.00    +0.000 A 
ENDBRANCH  22  24
BRANCH  20  29
ATOM     29  O   UNL     1       1.904   1.958  20.587  0.00  0.00    +0.000 OA
ATOM     30  H   UNL     1       0.937   1.912  20.510  0.00  0.00    +0.000 HD
ENDBRANCH  20  29
ENDBRANCH  17  18
ENDBRANCH   4  16
TORSDOF 5
ENDMDL
