MODEL 1
REMARK VINA RESULT:      -8.9      0.000      0.000
REMARK  Name = 
REMARK  6 active torsions:
REMARK  status: ('A' for Active; 'I' for Inactive)
REMARK    1  A    between atoms: C_2  and  C_3
REMARK    2  A    between atoms: C_3  and  N_4
REMARK    3  A    between atoms: C_6  and  C_7
REMARK    4  A    between atoms: C_7  and  C_9
REMARK    5  A    between atoms: N_21  and  C_22
REMARK    6  A    between atoms: C_22  and  C_23
REMARK                            x       y       z     vdW  Elec       q    Type
REMARK                         _______ _______ _______ _____ _____    ______ ____
ROOT
ATOM      1  N   UNL     1       6.571   5.761  17.932  0.00  0.00    +0.000 N 
ATOM      2  C   UNL     1       5.389   5.580  18.613  0.00  0.00    +0.000 A 
ATOM      3  C   UNL     1       4.452   5.054  17.736  0.00  0.00    +0.000 A 
ATOM      4  C   UNL     1       5.163   4.767  16.520  0.00  0.00    +0.000 A 
ATOM      5  C   UNL     1       4.801   4.178  15.287  0.00  0.00    +0.000 A 
ATOM      6  C   UNL     1       5.742   4.040  14.267  0.00  0.00    +0.000 A 
ATOM      7  C   UNL     1       7.045   4.492  14.444  0.00  0.00    +0.000 A 
ATOM      8  C   UNL     1       7.436   5.091  15.645  0.00  0.00    +0.000 A 
ATOM      9  C   UNL     1       6.479   5.215  16.668  0.00  0.00    +0.000 A 
ENDROOT
BRANCH   3  10
ATOM     10  C   UNL     1       3.025   4.807  18.008  0.00  0.00    +0.000 C 
ATOM     11  O   UNL     1       2.237   5.747  18.116  0.00  0.00    +0.000 OA
BRANCH  10  12
ATOM     12  C   UNL     1       2.531   3.353  18.164  0.00  0.00    +0.000 C 
ATOM     13  C   UNL     1       3.455   2.500  19.046  0.00  0.00    +0.000 C 
ATOM     14  C   UNL     1       3.259   2.695  20.546  0.00  0.00    +0.000 C 
ATOM     15  C   UNL     1       1.805   2.593  20.983  0.00  0.00    +0.000 C 
ATOM     16  C   UNL     1       0.869   3.448  20.140  0.00  0.00    +0.000 C 
ATOM     17  C   UNL     1       1.070   3.258  18.636  0.00  0.00    +0.000 C 
ENDBRANCH  10  12
ENDBRANCH   3  10
BRANCH   1  18
ATOM     18  C   UNL     1       7.753   6.411  18.482  0.00  0.00    +0.000 C 
BRANCH  18  20
ATOM     19  O   UNL     1       7.362   8.268  17.004  0.00  0.00    +0.000 OA
ATOM     20  C   UNL     1       7.886   7.863  18.044  0.00  0.00    +0.000 C 
ATOM     21  N   UNL     1       8.696   8.641  18.831  0.00  0.00    +0.000 N 
ATOM     22  H   UNL     1       9.104   8.267  19.682  0.00  0.00    +0.000 HD
BRANCH  21  23
ATOM     23  C   UNL     1       8.978  10.043  18.547  0.00  0.00    +0.000 C 
BRANCH  23  24
ATOM     24  C   UNL     1       9.926  10.647  19.586  0.00  0.00    +0.000 C 
ATOM     25  C   UNL     1       9.227  11.217  20.811  0.00  0.00    +0.000 C 
ATOM     26  C   UNL     1      10.171  12.308  21.244  0.00  0.00    +0.000 C 
ATOM     27  C   UNL     1      10.711  12.821  19.926  0.00  0.00    +0.000 C 
ATOM     28  O   UNL     1      10.674  11.732  18.996  0.00  0.00    +0.000 OA
ENDBRANCH  23  24
ENDBRANCH  21  23
ENDBRANCH  18  20
ENDBRANCH   1  18
TORSDOF 6
ENDMDL
MODEL 2
REMARK VINA RESULT:      -8.8      1.138      1.546
REMARK  Name = 
REMARK  6 active torsions:
REMARK  status: ('A' for Active; 'I' for Inactive)
REMARK    1  A    between atoms: C_2  and  C_3
REMARK    2  A    between atoms: C_3  and  N_4
REMARK    3  A    between atoms: C_6  and  C_7
REMARK    4  A    between atoms: C_7  and  C_9
REMARK    5  A    between atoms: N_21  and  C_22
REMARK    6  A    between atoms: C_22  and  C_23
REMARK                            x       y       z     vdW  Elec       q    Type
REMARK                         _______ _______ _______ _____ _____    ______ ____
ROOT
ATOM      1  N   UNL     1       6.800   5.171  17.799  0.00  0.00    +0.000 N 
ATOM      2  C   UNL     1       5.809   4.579  18.547  0.00  0.00    +0.000 A 
ATOM      3  C   UNL     1       4.889   4.003  17.683  0.00  0.00    +0.000 A 
ATOM      4  C   UNL     1       5.449   4.131  16.364  0.00  0.00    +0.000 A 
ATOM      5  C   UNL     1       5.042   3.706  15.079  0.00  0.00    +0.000 A 
ATOM      6  C   UNL     1       5.821   3.996  13.959  0.00  0.00    +0.000 A 
ATOM      7  C   UNL     1       7.000   4.720  14.090  0.00  0.00    +0.000 A 
ATOM      8  C   UNL     1       7.429   5.168  15.343  0.00  0.00    +0.000 A 
ATOM      9  C   UNL     1       6.638   4.859  16.465  0.00  0.00    +0.000 A 
ENDROOT
BRANCH   3  10
ATOM     10  C   UNL     1       3.613   3.361  18.045  0.00  0.00    +0.000 C 
ATOM     11  O   UNL     1       3.585   2.185  18.408  0.00  0.00    +0.000 OA
BRANCH  10  12
ATOM     12  C   UNL     1       2.308   4.181  17.956  0.00  0.00    +0.000 C 
ATOM     13  C   UNL     1       1.197   3.635  18.864  0.00  0.00    +0.000 C 
ATOM     14  C   UNL     1       1.316   4.044  20.329  0.00  0.00    +0.000 C 
ATOM     15  C   UNL     1       1.526   5.538  20.524  0.00  0.00    +0.000 C 
ATOM     16  C   UNL     1       2.638   6.102  19.651  0.00  0.00    +0.000 C 
ATOM     17  C   UNL     1       2.523   5.687  18.184  0.00  0.00    +0.000 C 
ENDBRANCH  10  12
ENDBRANCH   3  10
BRANCH   1  18
ATOM     18  C   UNL     1       7.877   5.984  18.347  0.00  0.00    +0.000 C 
BRANCH  18  20
ATOM     19  O   UNL     1       6.910   7.855  17.183  0.00  0.00    +0.000 OA
ATOM     20  C   UNL     1       7.720   7.464  18.028  0.00  0.00    +0.000 C 
ATOM     21  N   UNL     1       8.597   8.300  18.671  0.00  0.00    +0.000 N 
ATOM     22  H   UNL     1       9.245   7.936  19.363  0.00  0.00    +0.000 HD
BRANCH  21  23
ATOM     23  C   UNL     1       8.628   9.742  18.461  0.00  0.00    +0.000 C 
BRANCH  23  24
ATOM     24  C   UNL     1       9.774  10.398  19.234  0.00  0.00    +0.000 C 
ATOM     25  C   UNL     1       9.360  11.010  20.563  0.00  0.00    +0.000 C 
ATOM     26  C   UNL     1      10.356  12.128  20.730  0.00  0.00    +0.000 C 
ATOM     27  C   UNL     1      10.571  12.593  19.306  0.00  0.00    +0.000 C 
ATOM     28  O   UNL     1      10.346  11.467  18.449  0.00  0.00    +0.000 OA
ENDBRANCH  23  24
ENDBRANCH  21  23
ENDBRANCH  18  20
ENDBRANCH   1  18
TORSDOF 6
ENDMDL
MODEL 3
REMARK VINA RESULT:      -8.7      0.908      1.535
REMARK  Name = 
REMARK  6 active torsions:
REMARK  status: ('A' for Active; 'I' for Inactive)
REMARK    1  A    between atoms: C_2  and  C_3
REMARK    2  A    between atoms: C_3  and  N_4
REMARK    3  A    between atoms: C_6  and  C_7
REMARK    4  A    between atoms: C_7  and  C_9
REMARK    5  A    between atoms: N_21  and  C_22
REMARK    6  A    between atoms: C_22  and  C_23
REMARK                            x       y       z     vdW  Elec       q    Type
REMARK                         _______ _______ _______ _____ _____    ______ ____
ROOT
ATOM      1  N   UNL     1       6.841   5.965  18.356  0.00  0.00    +0.000 N 
ATOM      2  C   UNL     1       5.779   5.880  19.228  0.00  0.00    +0.000 A 
ATOM      3  C   UNL     1       4.702   5.320  18.557  0.00  0.00    +0.000 A 
ATOM      4  C   UNL     1       5.203   4.915  17.271  0.00  0.00    +0.000 A 
ATOM      5  C   UNL     1       4.634   4.244  16.164  0.00  0.00    +0.000 A 
ATOM      6  C   UNL     1       5.396   3.993  15.023  0.00  0.00    +0.000 A 
ATOM      7  C   UNL     1       6.720   4.412  14.954  0.00  0.00    +0.000 A 
ATOM      8  C   UNL     1       7.312   5.089  16.024  0.00  0.00    +0.000 A 
ATOM      9  C   UNL     1       6.535   5.326  17.172  0.00  0.00    +0.000 A 
ENDROOT
BRANCH   3  10
ATOM     10  C   UNL     1       3.332   5.146  19.070  0.00  0.00    +0.000 C 
ATOM     11  O   UNL     1       2.431   5.908  18.720  0.00  0.00    +0.000 OA
BRANCH  10  12
ATOM     12  C   UNL     1       3.042   3.999  20.062  0.00  0.00    +0.000 C 
ATOM     13  C   UNL     1       1.541   3.723  20.233  0.00  0.00    +0.000 C 
ATOM     14  C   UNL     1       0.920   2.879  19.124  0.00  0.00    +0.000 C 
ATOM     15  C   UNL     1       1.700   1.608  18.824  0.00  0.00    +0.000 C 
ATOM     16  C   UNL     1       3.190   1.856  18.627  0.00  0.00    +0.000 C 
ATOM     17  C   UNL     1       3.811   2.708  19.735  0.00  0.00    +0.000 C 
ENDBRANCH  10  12
ENDBRANCH   3  10
BRANCH   1  18
ATOM     18  C   UNL     1       8.110   6.615  18.656  0.00  0.00    +0.000 C 
BRANCH  18  20
ATOM     19  O   UNL     1       7.650   8.433  17.149  0.00  0.00    +0.000 OA
ATOM     20  C   UNL     1       8.144   8.073  18.220  0.00  0.00    +0.000 C 
ATOM     21  N   UNL     1       8.838   8.916  19.051  0.00  0.00    +0.000 N 
ATOM     22  H   UNL     1       9.225   8.578  19.926  0.00  0.00    +0.000 HD
BRANCH  21  23
ATOM     23  C   UNL     1       9.016  10.337  18.778  0.00  0.00    +0.000 C 
BRANCH  23  24
ATOM     24  C   UNL     1      10.459  10.781  19.029  0.00  0.00    +0.000 C 
ATOM     25  C   UNL     1      10.623  11.740  20.198  0.00  0.00    +0.000 C 
ATOM     26  C   UNL     1      11.837  12.536  19.796  0.00  0.00    +0.000 C 
ATOM     27  C   UNL     1      11.692  12.623  18.292  0.00  0.00    +0.000 C 
ATOM     28  O   UNL     1      10.974  11.460  17.863  0.00  0.00    +0.000 OA
ENDBRANCH  23  24
ENDBRANCH  21  23
ENDBRANCH  18  20
ENDBRANCH   1  18
TORSDOF 6
ENDMDL
MODEL 4
REMARK VINA RESULT:      -8.6      1.369      1.756
REMARK  Name = 
REMARK  6 active torsions:
REMARK  status: ('A' for Active; 'I' for Inactive)
REMARK    1  A    between atoms: C_2  and  C_3
REMARK    2  A    between atoms: C_3  and  N_4
REMARK    3  A    between atoms: C_6  and  C_7
REMARK    4  A    between atoms: C_7  and  C_9
REMARK    5  A    between atoms: N_21  and  C_22
REMARK    6  A    between atoms: C_22  and  C_23
REMARK                            x       y       z     vdW  Elec       q    Type
REMARK                         _______ _______ _______ _____ _____    ______ ____
ROOT
ATOM      1  N   UNL     1       7.196   5.839  18.353  0.00  0.00    +0.000 N 
ATOM      2  C   UNL     1       6.396   5.367  19.368  0.00  0.00    +0.000 A 
ATOM      3  C   UNL     1       5.401   4.575  18.813  0.00  0.00    +0.000 A 
ATOM      4  C   UNL     1       5.725   4.452  17.417  0.00  0.00    +0.000 A 
ATOM      5  C   UNL     1       5.151   3.745  16.335  0.00  0.00    +0.000 A 
ATOM      6  C   UNL     1       5.708   3.833  15.059  0.00  0.00    +0.000 A 
ATOM      7  C   UNL     1       6.825   4.629  14.832  0.00  0.00    +0.000 A 
ATOM      8  C   UNL     1       7.411   5.352  15.873  0.00  0.00    +0.000 A 
ATOM      9  C   UNL     1       6.845   5.246  17.157  0.00  0.00    +0.000 A 
ENDROOT
BRANCH   3  10
ATOM     10  C   UNL     1       4.263   3.958  19.517  0.00  0.00    +0.000 C 
ATOM     11  O   UNL     1       4.360   2.825  19.988  0.00  0.00    +0.000 OA
BRANCH  10  12
ATOM     12  C   UNL     1       2.944   4.749  19.649  0.00  0.00    +0.000 C 
ATOM     13  C   UNL     1       2.086   4.693  18.376  0.00  0.00    +0.000 C 
ATOM     14  C   UNL     1       1.268   3.416  18.217  0.00  0.00    +0.000 C 
ATOM     15  C   UNL     1       0.467   3.053  19.459  0.00  0.00    +0.000 C 
ATOM     16  C   UNL     1       1.299   3.077  20.733  0.00  0.00    +0.000 C 
ATOM     17  C   UNL     1       2.125   4.356  20.889  0.00  0.00    +0.000 C 
ENDBRANCH  10  12
ENDBRANCH   3  10
BRANCH   1  18
ATOM     18  C   UNL     1       8.272   6.805  18.527  0.00  0.00    +0.000 C 
BRANCH  18  20
ATOM     19  O   UNL     1       7.070   8.330  17.108  0.00  0.00    +0.000 OA
ATOM     20  C   UNL     1       7.920   8.185  17.989  0.00  0.00    +0.000 C 
ATOM     21  N   UNL     1       8.676   9.217  18.484  0.00  0.00    +0.000 N 
ATOM     22  H   UNL     1       9.363   9.053  19.213  0.00  0.00    +0.000 HD
BRANCH  21  23
ATOM     23  C   UNL     1       8.514  10.601  18.056  0.00  0.00    +0.000 C 
BRANCH  23  24
ATOM     24  C   UNL     1       9.852  11.345  18.042  0.00  0.00    +0.000 C 
ATOM     25  C   UNL     1      10.605  11.299  19.362  0.00  0.00    +0.000 C 
ATOM     26  C   UNL     1      11.388  12.586  19.334  0.00  0.00    +0.000 C 
ATOM     27  C   UNL     1      10.446  13.530  18.619  0.00  0.00    +0.000 C 
ATOM     28  O   UNL     1       9.634  12.741  17.740  0.00  0.00    +0.000 OA
ENDBRANCH  23  24
ENDBRANCH  21  23
ENDBRANCH  18  20
ENDBRANCH   1  18
TORSDOF 6
ENDMDL
MODEL 5
REMARK VINA RESULT:      -8.3      0.781      1.408
REMARK  Name = 
REMARK  6 active torsions:
REMARK  status: ('A' for Active; 'I' for Inactive)
REMARK    1  A    between atoms: C_2  and  C_3
REMARK    2  A    between atoms: C_3  and  N_4
REMARK    3  A    between atoms: C_6  and  C_7
REMARK    4  A    between atoms: C_7  and  C_9
REMARK    5  A    between atoms: N_21  and  C_22
REMARK    6  A    between atoms: C_22  and  C_23
REMARK                            x       y       z     vdW  Elec       q    Type
REMARK                         _______ _______ _______ _____ _____    ______ ____
ROOT
ATOM      1  N   UNL     1       6.584   5.955  18.168  0.00  0.00    +0.000 N 
ATOM      2  C   UNL     1       5.414   5.982  18.892  0.00  0.00    +0.000 A 
ATOM      3  C   UNL     1       4.393   5.480  18.098  0.00  0.00    +0.000 A 
ATOM      4  C   UNL     1       5.024   4.990  16.902  0.00  0.00    +0.000 A 
ATOM      5  C   UNL     1       4.554   4.323  15.748  0.00  0.00    +0.000 A 
ATOM      6  C   UNL     1       5.437   3.972  14.726  0.00  0.00    +0.000 A 
ATOM      7  C   UNL     1       6.788   4.288  14.824  0.00  0.00    +0.000 A 
ATOM      8  C   UNL     1       7.286   4.958  15.944  0.00  0.00    +0.000 A 
ATOM      9  C   UNL     1       6.386   5.296  16.971  0.00  0.00    +0.000 A 
ENDROOT
BRANCH   3  10
ATOM     10  C   UNL     1       2.957   5.428  18.428  0.00  0.00    +0.000 C 
ATOM     11  O   UNL     1       2.194   6.313  18.041  0.00  0.00    +0.000 OA
BRANCH  10  12
ATOM     12  C   UNL     1       2.424   4.253  19.276  0.00  0.00    +0.000 C 
ATOM     13  C   UNL     1       1.564   3.274  18.463  0.00  0.00    +0.000 C 
ATOM     14  C   UNL     1       2.357   2.272  17.630  0.00  0.00    +0.000 C 
ATOM     15  C   UNL     1       3.441   1.555  18.421  0.00  0.00    +0.000 C 
ATOM     16  C   UNL     1       4.324   2.504  19.218  0.00  0.00    +0.000 C 
ATOM     17  C   UNL     1       3.529   3.513  20.048  0.00  0.00    +0.000 C 
ENDBRANCH  10  12
ENDBRANCH   3  10
BRANCH   1  18
ATOM     18  C   UNL     1       7.850   6.518  18.617  0.00  0.00    +0.000 C 
BRANCH  18  20
ATOM     19  O   UNL     1       7.699   8.306  17.015  0.00  0.00    +0.000 OA
ATOM     20  C   UNL     1       8.064   7.946  18.137  0.00  0.00    +0.000 C 
ATOM     21  N   UNL     1       8.765   8.754  18.995  0.00  0.00    +0.000 N 
ATOM     22  H   UNL     1       9.043   8.417  19.912  0.00  0.00    +0.000 HD
BRANCH  21  23
ATOM     23  C   UNL     1       9.105  10.139  18.692  0.00  0.00    +0.000 C 
BRANCH  23  24
ATOM     24  C   UNL     1       9.902  10.784  19.827  0.00  0.00    +0.000 C 
ATOM     25  C   UNL     1       9.208  11.969  20.482  0.00  0.00    +0.000 C 
ATOM     26  C   UNL     1      10.370  12.802  20.958  0.00  0.00    +0.000 C 
ATOM     27  C   UNL     1      11.406  12.572  19.879  0.00  0.00    +0.000 C 
ATOM     28  O   UNL     1      11.165  11.273  19.324  0.00  0.00    +0.000 OA
ENDBRANCH  23  24
ENDBRANCH  21  23
ENDBRANCH  18  20
ENDBRANCH   1  18
TORSDOF 6
ENDMDL
MODEL 6
REMARK VINA RESULT:      -8.2      1.463      1.910
REMARK  Name = 
REMARK  6 active torsions:
REMARK  status: ('A' for Active; 'I' for Inactive)
REMARK    1  A    between atoms: C_2  and  C_3
REMARK    2  A    between atoms: C_3  and  N_4
REMARK    3  A    between atoms: C_6  and  C_7
REMARK    4  A    between atoms: C_7  and  C_9
REMARK    5  A    between atoms: N_21  and  C_22
REMARK    6  A    between atoms: C_22  and  C_23
REMARK                            x       y       z     vdW  Elec       q    Type
REMARK                         _______ _______ _______ _____ _____    ______ ____
ROOT
ATOM      1  N   UNL     1       7.073   5.831  18.207  0.00  0.00    +0.000 N 
ATOM      2  C   UNL     1       6.224   5.272  19.134  0.00  0.00    +0.000 A 
ATOM      3  C   UNL     1       5.325   4.451  18.470  0.00  0.00    +0.000 A 
ATOM      4  C   UNL     1       5.765   4.406  17.101  0.00  0.00    +0.000 A 
ATOM      5  C   UNL     1       5.322   3.715  15.951  0.00  0.00    +0.000 A 
ATOM      6  C   UNL     1       5.972   3.888  14.729  0.00  0.00    +0.000 A 
ATOM      7  C   UNL     1       7.054   4.754  14.624  0.00  0.00    +0.000 A 
ATOM      8  C   UNL     1       7.513   5.464  15.737  0.00  0.00    +0.000 A 
ATOM      9  C   UNL     1       6.854   5.272  16.965  0.00  0.00    +0.000 A 
ENDROOT
BRANCH   3  10
ATOM     10  C   UNL     1       4.173   3.742  19.055  0.00  0.00    +0.000 C 
ATOM     11  O   UNL     1       4.345   2.799  19.826  0.00  0.00    +0.000 OA
BRANCH  10  12
ATOM     12  C   UNL     1       2.744   4.193  18.680  0.00  0.00    +0.000 C 
ATOM     13  C   UNL     1       1.701   3.811  19.739  0.00  0.00    +0.000 C 
ATOM     14  C   UNL     1       1.646   4.746  20.943  0.00  0.00    +0.000 C 
ATOM     15  C   UNL     1       1.556   6.216  20.562  0.00  0.00    +0.000 C 
ATOM     16  C   UNL     1       2.596   6.628  19.529  0.00  0.00    +0.000 C 
ATOM     17  C   UNL     1       2.655   5.686  18.325  0.00  0.00    +0.000 C 
ENDBRANCH  10  12
ENDBRANCH   3  10
BRANCH   1  18
ATOM     18  C   UNL     1       8.073   6.847  18.506  0.00  0.00    +0.000 C 
BRANCH  18  20
ATOM     19  O   UNL     1       6.892   8.304  16.998  0.00  0.00    +0.000 OA
ATOM     20  C   UNL     1       7.751   8.195  17.876  0.00  0.00    +0.000 C 
ATOM     21  N   UNL     1       8.543   9.238  18.286  0.00  0.00    +0.000 N 
ATOM     22  H   UNL     1       9.237   9.105  19.016  0.00  0.00    +0.000 HD
BRANCH  21  23
ATOM     23  C   UNL     1       8.414  10.593  17.764  0.00  0.00    +0.000 C 
BRANCH  23  24
ATOM     24  C   UNL     1       9.292  11.579  18.538  0.00  0.00    +0.000 C 
ATOM     25  C   UNL     1      10.775  11.481  18.216  0.00  0.00    +0.000 C 
ATOM     26  C   UNL     1      11.416  11.933  19.502  0.00  0.00    +0.000 C 
ATOM     27  C   UNL     1      10.464  11.402  20.551  0.00  0.00    +0.000 C 
ATOM     28  O   UNL     1       9.161  11.343  19.957  0.00  0.00    +0.000 OA
ENDBRANCH  23  24
ENDBRANCH  21  23
ENDBRANCH  18  20
ENDBRANCH   1  18
TORSDOF 6
ENDMDL
MODEL 7
REMARK VINA RESULT:      -8.1      0.674      1.027
REMARK  Name = 
REMARK  6 active torsions:
REMARK  status: ('A' for Active; 'I' for Inactive)
REMARK    1  A    between atoms: C_2  and  C_3
REMARK    2  A    between atoms: C_3  and  N_4
REMARK    3  A    between atoms: C_6  and  C_7
REMARK    4  A    between atoms: C_7  and  C_9
REMARK    5  A    between atoms: N_21  and  C_22
REMARK    6  A    between atoms: C_22  and  C_23
REMARK                            x       y       z     vdW  Elec       q    Type
REMARK                         _______ _______ _______ _____ _____    ______ ____
ROOT
ATOM      1  N   UNL     1       6.819   5.917  17.990  0.00  0.00    +0.000 N 
ATOM      2  C   UNL     1       5.707   5.626  18.746  0.00  0.00    +0.000 A 
ATOM      3  C   UNL     1       4.769   5.007  17.931  0.00  0.00    +0.000 A 
ATOM      4  C   UNL     1       5.425   4.785  16.671  0.00  0.00    +0.000 A 
ATOM      5  C   UNL     1       5.042   4.157  15.463  0.00  0.00    +0.000 A 
ATOM      6  C   UNL     1       5.924   4.105  14.384  0.00  0.00    +0.000 A 
ATOM      7  C   UNL     1       7.185   4.683  14.476  0.00  0.00    +0.000 A 
ATOM      8  C   UNL     1       7.594   5.322  15.650  0.00  0.00    +0.000 A 
ATOM      9  C   UNL     1       6.698   5.358  16.733  0.00  0.00    +0.000 A 
ENDROOT
BRANCH   3  10
ATOM     10  C   UNL     1       3.394   4.624  18.295  0.00  0.00    +0.000 C 
ATOM     11  O   UNL     1       2.432   5.254  17.854  0.00  0.00    +0.000 OA
BRANCH  10  12
ATOM     12  C   UNL     1       3.173   3.428  19.245  0.00  0.00    +0.000 C 
ATOM     13  C   UNL     1       2.498   3.830  20.564  0.00  0.00    +0.000 C 
ATOM     14  C   UNL     1       0.984   3.998  20.477  0.00  0.00    +0.000 C 
ATOM     15  C   UNL     1       0.283   2.822  19.815  0.00  0.00    +0.000 C 
ATOM     16  C   UNL     1       0.918   2.417  18.493  0.00  0.00    +0.000 C 
ATOM     17  C   UNL     1       2.437   2.254  18.578  0.00  0.00    +0.000 C 
ENDBRANCH  10  12
ENDBRANCH   3  10
BRANCH   1  18
ATOM     18  C   UNL     1       7.965   6.681  18.462  0.00  0.00    +0.000 C 
BRANCH  18  20
ATOM     19  O   UNL     1       7.210   8.501  17.081  0.00  0.00    +0.000 OA
ATOM     20  C   UNL     1       7.931   8.135  18.012  0.00  0.00    +0.000 C 
ATOM     21  N   UNL     1       8.818   8.966  18.648  0.00  0.00    +0.000 N 
ATOM     22  H   UNL     1       9.391   8.623  19.414  0.00  0.00    +0.000 HD
BRANCH  21  23
ATOM     23  C   UNL     1       8.961  10.380  18.324  0.00  0.00    +0.000 C 
BRANCH  23  24
ATOM     24  C   UNL     1      10.128  11.016  19.084  0.00  0.00    +0.000 C 
ATOM     25  C   UNL     1       9.787  11.449  20.501  0.00  0.00    +0.000 C 
ATOM     26  C   UNL     1      10.732  12.600  20.725  0.00  0.00    +0.000 C 
ATOM     27  C   UNL     1      10.812  13.233  19.352  0.00  0.00    +0.000 C 
ATOM     28  O   UNL     1      10.580  12.198  18.389  0.00  0.00    +0.000 OA
ENDBRANCH  23  24
ENDBRANCH  21  23
ENDBRANCH  18  20
ENDBRANCH   1  18
TORSDOF 6
ENDMDL
MODEL 8
REMARK VINA RESULT:      -8.0      1.478      1.996
REMARK  Name = 
REMARK  6 active torsions:
REMARK  status: ('A' for Active; 'I' for Inactive)
REMARK    1  A    between atoms: C_2  and  C_3
REMARK    2  A    between atoms: C_3  and  N_4
REMARK    3  A    between atoms: C_6  and  C_7
REMARK    4  A    between atoms: C_7  and  C_9
REMARK    5  A    between atoms: N_21  and  C_22
REMARK    6  A    between atoms: C_22  and  C_23
REMARK                            x       y       z     vdW  Elec       q    Type
REMARK                         _______ _______ _______ _____ _____    ______ ____
ROOT
ATOM      1  N   UNL     1       6.492   6.630  17.327  0.00  0.00    +0.000 N 
ATOM      2  C   UNL     1       5.961   6.166  18.508  0.00  0.00    +0.000 A 
ATOM      3  C   UNL     1       5.339   4.950  18.265  0.00  0.00    +0.000 A 
ATOM      4  C   UNL     1       5.656   4.608  16.904  0.00  0.00    +0.000 A 
ATOM      5  C   UNL     1       5.378   3.492  16.083  0.00  0.00    +0.000 A 
ATOM      6  C   UNL     1       5.829   3.456  14.763  0.00  0.00    +0.000 A 
ATOM      7  C   UNL     1       6.544   4.525  14.234  0.00  0.00    +0.000 A 
ATOM      8  C   UNL     1       6.826   5.651  15.012  0.00  0.00    +0.000 A 
ATOM      9  C   UNL     1       6.374   5.669  16.344  0.00  0.00    +0.000 A 
ENDROOT
BRANCH   3  10
ATOM     10  C   UNL     1       4.546   4.153  19.217  0.00  0.00    +0.000 C 
ATOM     11  O   UNL     1       4.970   3.077  19.638  0.00  0.00    +0.000 OA
BRANCH  10  12
ATOM     12  C   UNL     1       3.169   4.682  19.674  0.00  0.00    +0.000 C 
ATOM     13  C   UNL     1       2.238   5.015  18.499  0.00  0.00    +0.000 C 
ATOM     14  C   UNL     1       1.535   3.809  17.884  0.00  0.00    +0.000 C 
ATOM     15  C   UNL     1       0.856   2.918  18.912  0.00  0.00    +0.000 C 
ATOM     16  C   UNL     1       1.764   2.552  20.078  0.00  0.00    +0.000 C 
ATOM     17  C   UNL     1       2.474   3.761  20.690  0.00  0.00    +0.000 C 
ENDBRANCH  10  12
ENDBRANCH   3  10
BRANCH   1  18
ATOM     18  C   UNL     1       7.112   7.936  17.154  0.00  0.00    +0.000 C 
BRANCH  18  20
ATOM     19  O   UNL     1       8.618   7.350  18.936  0.00  0.00    +0.000 OA
ATOM     20  C   UNL     1       8.154   8.241  18.221  0.00  0.00    +0.000 C 
ATOM     21  N   UNL     1       8.455   9.570  18.384  0.00  0.00    +0.000 N 
ATOM     22  H   UNL     1       8.052  10.271  17.769  0.00  0.00    +0.000 HD
BRANCH  21  23
ATOM     23  C   UNL     1       9.395  10.059  19.384  0.00  0.00    +0.000 C 
BRANCH  23  24
ATOM     24  C   UNL     1       9.925  11.450  19.025  0.00  0.00    +0.000 C 
ATOM     25  C   UNL     1      10.665  11.512  17.698  0.00  0.00    +0.000 C 
ATOM     26  C   UNL     1      11.637  12.642  17.922  0.00  0.00    +0.000 C 
ATOM     27  C   UNL     1      11.983  12.494  19.388  0.00  0.00    +0.000 C 
ATOM     28  O   UNL     1      10.853  11.898  20.037  0.00  0.00    +0.000 OA
ENDBRANCH  23  24
ENDBRANCH  21  23
ENDBRANCH  18  20
ENDBRANCH   1  18
TORSDOF 6
ENDMDL
MODEL 9
REMARK VINA RESULT:      -8.0      4.205      7.347
REMARK  Name = 
REMARK  6 active torsions:
REMARK  status: ('A' for Active; 'I' for Inactive)
REMARK    1  A    between atoms: C_2  and  C_3
REMARK    2  A    between atoms: C_3  and  N_4
REMARK    3  A    between atoms: C_6  and  C_7
REMARK    4  A    between atoms: C_7  and  C_9
REMARK    5  A    between atoms: N_21  and  C_22
REMARK    6  A    between atoms: C_22  and  C_23
REMARK                            x       y       z     vdW  Elec       q    Type
REMARK                         _______ _______ _______ _____ _____    ______ ____
ROOT
ATOM      1  N   UNL     1       2.017   6.024  20.229  0.00  0.00    +0.000 N 
ATOM      2  C   UNL     1       3.238   6.537  19.855  0.00  0.00    +0.000 A 
ATOM      3  C   UNL     1       4.026   5.497  19.383  0.00  0.00    +0.000 A 
ATOM      4  C   UNL     1       3.171   4.342  19.334  0.00  0.00    +0.000 A 
ATOM      5  C   UNL     1       3.347   3.008  18.900  0.00  0.00    +0.000 A 
ATOM      6  C   UNL     1       2.299   2.092  18.988  0.00  0.00    +0.000 A 
ATOM      7  C   UNL     1       1.072   2.475  19.517  0.00  0.00    +0.000 A 
ATOM      8  C   UNL     1       0.864   3.781  19.969  0.00  0.00    +0.000 A 
ATOM      9  C   UNL     1       1.927   4.697  19.865  0.00  0.00    +0.000 A 
ENDROOT
BRANCH   3  10
ATOM     10  C   UNL     1       5.442   5.570  18.981  0.00  0.00    +0.000 C 
ATOM     11  O   UNL     1       6.324   5.133  19.719  0.00  0.00    +0.000 OA
BRANCH  10  12
ATOM     12  C   UNL     1       5.805   6.211  17.625  0.00  0.00    +0.000 C 
ATOM     13  C   UNL     1       7.239   5.890  17.178  0.00  0.00    +0.000 C 
ATOM     14  C   UNL     1       7.412   4.516  16.539  0.00  0.00    +0.000 C 
ATOM     15  C   UNL     1       6.398   4.228  15.443  0.00  0.00    +0.000 C 
ATOM     16  C   UNL     1       4.964   4.515  15.866  0.00  0.00    +0.000 C 
ATOM     17  C   UNL     1       4.792   5.891  16.513  0.00  0.00    +0.000 C 
ENDBRANCH  10  12
ENDBRANCH   3  10
BRANCH   1  18
ATOM     18  C   UNL     1       0.966   6.787  20.890  0.00  0.00    +0.000 C 
BRANCH  18  20
ATOM     19  O   UNL     1       1.672   8.836  21.935  0.00  0.00    +0.000 OA
ATOM     20  C   UNL     1       1.249   8.282  20.917  0.00  0.00    +0.000 C 
ATOM     21  N   UNL     1       0.913   8.963  19.774  0.00  0.00    +0.000 N 
ATOM     22  H   UNL     1       0.572   8.466  18.957  0.00  0.00    +0.000 HD
BRANCH  21  23
ATOM     23  C   UNL     1       1.071  10.404  19.627  0.00  0.00    +0.000 C 
BRANCH  23  24
ATOM     24  C   UNL     1      -0.036  11.005  18.757  0.00  0.00    +0.000 C 
ATOM     25  C   UNL     1      -1.228  11.533  19.540  0.00  0.00    +0.000 C 
ATOM     26  C   UNL     1      -2.359  11.366  18.560  0.00  0.00    +0.000 C 
ATOM     27  C   UNL     1      -1.978  10.097  17.828  0.00  0.00    +0.000 C 
ATOM     28  O   UNL     1      -0.548  10.002  17.853  0.00  0.00    +0.000 OA
ENDBRANCH  23  24
ENDBRANCH  21  23
ENDBRANCH  18  20
ENDBRANCH   1  18
TORSDOF 6
ENDMDL
