MODEL 1
REMARK VINA RESULT:      -7.7      0.000      0.000
REMARK  Name = 
REMARK  7 active torsions:
REMARK  status: ('A' for Active; 'I' for Inactive)
REMARK    1  A    between atoms: C_1  and  C_2
REMARK    2  A    between atoms: N_4  and  C_5
REMARK    3  A    between atoms: C_8  and  N_9
REMARK    4  A    between atoms: C_10  and  C_12
REMARK    5  A    between atoms: N_16  and  S_17
REMARK    6  A    between atoms: S_17  and  C_20
REMARK    7  A    between atoms: C_24  and  C_25
REMARK                            x       y       z     vdW  Elec       q    Type
REMARK                         _______ _______ _______ _____ _____    ______ ____
ROOT
ATOM      1  C   UNL     1      -0.502  12.123  19.045  0.00  0.00    +0.000 C 
ATOM      2  C   UNL     1       0.586  13.131  18.640  0.00  0.00    +0.000 C 
ATOM      3  C   UNL     1      -0.067  14.486  18.842  0.00  0.00    +0.000 C 
ATOM      4  C   UNL     1      -1.161  14.259  19.882  0.00  0.00    +0.000 C 
ATOM      5  N   UNL     1      -1.122  12.793  20.241  0.00  0.00    +0.000 NA
ENDROOT
BRANCH   1   7
ATOM      6  N   UNL     1       1.181  10.277  19.400  0.00  0.00    +0.000 N 
ATOM      7  C   UNL     1      -0.011  10.686  18.821  0.00  0.00    +0.000 C 
ATOM      8  O   UNL     1      -0.741   9.901  18.205  0.00  0.00    +0.000 OA
ATOM      9  H   UNL     1       1.887  11.012  19.482  0.00  0.00    +0.000 HD
BRANCH   6  13
ATOM     10  C   UNL     1       2.579   6.273  18.751  0.00  0.00    +0.000 A 
ATOM     11  C   UNL     1       2.709   7.278  17.789  0.00  0.00    +0.000 A 
ATOM     12  C   UNL     1       2.297   8.601  18.041  0.00  0.00    +0.000 A 
ATOM     13  C   UNL     1       1.686   8.946  19.245  0.00  0.00    +0.000 A 
ATOM     14  C   UNL     1       1.592   7.957  20.233  0.00  0.00    +0.000 A 
ATOM     15  C   UNL     1       2.048   6.638  19.994  0.00  0.00    +0.000 A 
BRANCH  10  19
ATOM     16  C   UNL     1       2.702   2.555  17.949  0.00  0.00    +0.000 C 
ATOM     17  C   UNL     1       2.127   3.951  17.889  0.00  0.00    +0.000 C 
ATOM     18  O   UNL     1       1.057   4.148  17.320  0.00  0.00    +0.000 OA
ATOM     19  N   UNL     1       2.916   4.910  18.518  0.00  0.00    +0.000 N 
ATOM     20  H   UNL     1       3.811   4.601  18.878  0.00  0.00    +0.000 HD
ENDBRANCH  10  19
ENDBRANCH   6  13
ENDBRANCH   1   7
BRANCH   5  21
ATOM     21  S   UNL     1      -0.444  12.487  21.764  0.00  0.00    +0.000 S 
ATOM     22  O   UNL     1      -0.564  11.068  22.016  0.00  0.00    +0.000 OA
ATOM     23  O   UNL     1       0.837  13.150  21.835  0.00  0.00    +0.000 OA
BRANCH  21  24
ATOM     24  C   UNL     1      -1.561  13.312  22.899  0.00  0.00    +0.000 A 
ATOM     25  C   UNL     1      -1.129  14.397  23.672  0.00  0.00    +0.000 A 
ATOM     26  C   UNL     1      -2.006  14.992  24.585  0.00  0.00    +0.000 A 
ATOM     27  C   UNL     1      -3.319  14.531  24.700  0.00  0.00    +0.000 A 
ATOM     28  C   UNL     1      -3.776  13.474  23.896  0.00  0.00    +0.000 A 
ATOM     29  C   UNL     1      -2.876  12.845  23.015  0.00  0.00    +0.000 A 
BRANCH  28  30
ATOM     30  C   UNL     1      -5.224  13.049  23.922  0.00  0.00    +0.000 C 
ATOM     31  F   UNL     1      -5.655  12.492  22.756  0.00  0.00    +0.000 F 
ATOM     32  F   UNL     1      -5.456  12.115  24.887  0.00  0.00    +0.000 F 
ATOM     33  F   UNL     1      -6.075  14.078  24.186  0.00  0.00    +0.000 F 
ENDBRANCH  28  30
ENDBRANCH  21  24
ENDBRANCH   5  21
TORSDOF 6
ENDMDL
MODEL 2
REMARK VINA RESULT:      -7.6      6.383     11.083
REMARK  Name = 
REMARK  7 active torsions:
REMARK  status: ('A' for Active; 'I' for Inactive)
REMARK    1  A    between atoms: C_1  and  C_2
REMARK    2  A    between atoms: N_4  and  C_5
REMARK    3  A    between atoms: C_8  and  N_9
REMARK    4  A    between atoms: C_10  and  C_12
REMARK    5  A    between atoms: N_16  and  S_17
REMARK    6  A    between atoms: S_17  and  C_20
REMARK    7  A    between atoms: C_24  and  C_25
REMARK                            x       y       z     vdW  Elec       q    Type
REMARK                         _______ _______ _______ _____ _____    ______ ____
ROOT
ATOM      1  C   UNL     1       2.046   3.723  18.236  0.00  0.00    +0.000 C 
ATOM      2  C   UNL     1       1.160   3.084  19.318  0.00  0.00    +0.000 C 
ATOM      3  C   UNL     1       1.519   1.610  19.272  0.00  0.00    +0.000 C 
ATOM      4  C   UNL     1       2.931   1.554  18.696  0.00  0.00    +0.000 C 
ATOM      5  N   UNL     1       3.342   2.979  18.413  0.00  0.00    +0.000 NA
ENDROOT
BRANCH   1   7
ATOM      6  N   UNL     1       2.329   6.114  18.990  0.00  0.00    +0.000 N 
ATOM      7  C   UNL     1       1.739   5.222  18.108  0.00  0.00    +0.000 C 
ATOM      8  O   UNL     1       1.045   5.603  17.160  0.00  0.00    +0.000 OA
ATOM      9  H   UNL     1       2.487   5.741  19.928  0.00  0.00    +0.000 HD
BRANCH   6  13
ATOM     10  C   UNL     1       1.428  10.304  18.806  0.00  0.00    +0.000 A 
ATOM     11  C   UNL     1       1.104   9.516  19.913  0.00  0.00    +0.000 A 
ATOM     12  C   UNL     1       1.459   8.155  19.981  0.00  0.00    +0.000 A 
ATOM     13  C   UNL     1       2.098   7.525  18.914  0.00  0.00    +0.000 A 
ATOM     14  C   UNL     1       2.467   8.317  17.818  0.00  0.00    +0.000 A 
ATOM     15  C   UNL     1       2.149   9.696  17.772  0.00  0.00    +0.000 A 
BRANCH  10  19
ATOM     16  C   UNL     1      -0.374  13.629  18.373  0.00  0.00    +0.000 C 
ATOM     17  C   UNL     1      -0.266  12.166  18.736  0.00  0.00    +0.000 C 
ATOM     18  O   UNL     1      -1.272  11.540  19.056  0.00  0.00    +0.000 OA
ATOM     19  N   UNL     1       1.030  11.664  18.663  0.00  0.00    +0.000 N 
ATOM     20  H   UNL     1       1.766  12.327  18.454  0.00  0.00    +0.000 HD
ENDBRANCH  10  19
ENDBRANCH   6  13
ENDBRANCH   1   7
BRANCH   5  21
ATOM     21  S   UNL     1       4.467   3.593  19.523  0.00  0.00    +0.000 S 
ATOM     22  O   UNL     1       3.776   4.552  20.355  0.00  0.00    +0.000 OA
ATOM     23  O   UNL     1       5.185   2.483  20.105  0.00  0.00    +0.000 OA
BRANCH  21  24
ATOM     24  C   UNL     1       5.611   4.520  18.500  0.00  0.00    +0.000 A 
ATOM     25  C   UNL     1       6.532   5.406  19.072  0.00  0.00    +0.000 A 
ATOM     26  C   UNL     1       7.380   6.154  18.248  0.00  0.00    +0.000 A 
ATOM     27  C   UNL     1       7.336   5.991  16.862  0.00  0.00    +0.000 A 
ATOM     28  C   UNL     1       6.449   5.070  16.281  0.00  0.00    +0.000 A 
ATOM     29  C   UNL     1       5.561   4.357  17.109  0.00  0.00    +0.000 A 
BRANCH  28  30
ATOM     30  C   UNL     1       6.477   4.795  14.797  0.00  0.00    +0.000 C 
ATOM     31  F   UNL     1       6.398   3.472  14.481  0.00  0.00    +0.000 F 
ATOM     32  F   UNL     1       5.434   5.392  14.155  0.00  0.00    +0.000 F 
ATOM     33  F   UNL     1       7.604   5.260  14.192  0.00  0.00    +0.000 F 
ENDBRANCH  28  30
ENDBRANCH  21  24
ENDBRANCH   5  21
TORSDOF 6
ENDMDL
MODEL 3
REMARK VINA RESULT:      -7.5      0.297      1.132
REMARK  Name = 
REMARK  7 active torsions:
REMARK  status: ('A' for Active; 'I' for Inactive)
REMARK    1  A    between atoms: C_1  and  C_2
REMARK    2  A    between atoms: N_4  and  C_5
REMARK    3  A    between atoms: C_8  and  N_9
REMARK    4  A    between atoms: C_10  and  C_12
REMARK    5  A    between atoms: N_16  and  S_17
REMARK    6  A    between atoms: S_17  and  C_20
REMARK    7  A    between atoms: C_24  and  C_25
REMARK                            x       y       z     vdW  Elec       q    Type
REMARK                         _______ _______ _______ _____ _____    ______ ____
ROOT
ATOM      1  C   UNL     1      -0.492  12.244  18.949  0.00  0.00    +0.000 C 
ATOM      2  C   UNL     1       0.612  13.238  18.555  0.00  0.00    +0.000 C 
ATOM      3  C   UNL     1      -0.005  14.601  18.809  0.00  0.00    +0.000 C 
ATOM      4  C   UNL     1      -1.085  14.367  19.863  0.00  0.00    +0.000 C 
ATOM      5  N   UNL     1      -1.074  12.891  20.176  0.00  0.00    +0.000 NA
ENDROOT
BRANCH   1   7
ATOM      6  N   UNL     1       1.138  10.340  19.239  0.00  0.00    +0.000 N 
ATOM      7  C   UNL     1      -0.039  10.802  18.673  0.00  0.00    +0.000 C 
ATOM      8  O   UNL     1      -0.788  10.062  18.025  0.00  0.00    +0.000 OA
ATOM      9  H   UNL     1       1.863  11.051  19.352  0.00  0.00    +0.000 HD
BRANCH   6  13
ATOM     10  C   UNL     1       2.668   6.355  18.807  0.00  0.00    +0.000 A 
ATOM     11  C   UNL     1       2.078   6.807  19.990  0.00  0.00    +0.000 A 
ATOM     12  C   UNL     1       1.529   8.100  20.096  0.00  0.00    +0.000 A 
ATOM     13  C   UNL     1       1.607   9.002  19.036  0.00  0.00    +0.000 A 
ATOM     14  C   UNL     1       2.155   8.543  17.831  0.00  0.00    +0.000 A 
ATOM     15  C   UNL     1       2.666   7.228  17.713  0.00  0.00    +0.000 A 
BRANCH  10  19
ATOM     16  C   UNL     1       3.613   2.710  18.252  0.00  0.00    +0.000 C 
ATOM     17  C   UNL     1       2.760   3.946  18.082  0.00  0.00    +0.000 C 
ATOM     18  O   UNL     1       1.701   3.877  17.464  0.00  0.00    +0.000 OA
ATOM     19  N   UNL     1       3.297   5.084  18.675  0.00  0.00    +0.000 N 
ATOM     20  H   UNL     1       4.218   4.995  19.086  0.00  0.00    +0.000 HD
ENDBRANCH  10  19
ENDBRANCH   6  13
ENDBRANCH   1   7
BRANCH   5  21
ATOM     21  S   UNL     1      -0.377  12.522  21.676  0.00  0.00    +0.000 S 
ATOM     22  O   UNL     1      -0.508  11.096  21.878  0.00  0.00    +0.000 OA
ATOM     23  O   UNL     1       0.913  13.169  21.751  0.00  0.00    +0.000 OA
BRANCH  21  24
ATOM     24  C   UNL     1      -1.467  13.317  22.858  0.00  0.00    +0.000 A 
ATOM     25  C   UNL     1      -1.017  14.381  23.649  0.00  0.00    +0.000 A 
ATOM     26  C   UNL     1      -1.872  14.952  24.597  0.00  0.00    +0.000 A 
ATOM     27  C   UNL     1      -3.182  14.488  24.730  0.00  0.00    +0.000 A 
ATOM     28  C   UNL     1      -3.658  13.453  23.909  0.00  0.00    +0.000 A 
ATOM     29  C   UNL     1      -2.780  12.847  22.992  0.00  0.00    +0.000 A 
BRANCH  28  30
ATOM     30  C   UNL     1      -5.106  13.027  23.958  0.00  0.00    +0.000 C 
ATOM     31  F   UNL     1      -5.378  12.113  24.931  0.00  0.00    +0.000 F 
ATOM     32  F   UNL     1      -5.933  14.083  24.201  0.00  0.00    +0.000 F 
ATOM     33  F   UNL     1      -5.537  12.475  22.791  0.00  0.00    +0.000 F 
ENDBRANCH  28  30
ENDBRANCH  21  24
ENDBRANCH   5  21
TORSDOF 6
ENDMDL
MODEL 4
REMARK VINA RESULT:      -7.5      6.482     11.120
REMARK  Name = 
REMARK  7 active torsions:
REMARK  status: ('A' for Active; 'I' for Inactive)
REMARK    1  A    between atoms: C_1  and  C_2
REMARK    2  A    between atoms: N_4  and  C_5
REMARK    3  A    between atoms: C_8  and  N_9
REMARK    4  A    between atoms: C_10  and  C_12
REMARK    5  A    between atoms: N_16  and  S_17
REMARK    6  A    between atoms: S_17  and  C_20
REMARK    7  A    between atoms: C_24  and  C_25
REMARK                            x       y       z     vdW  Elec       q    Type
REMARK                         _______ _______ _______ _____ _____    ______ ____
ROOT
ATOM      1  C   UNL     1       1.992   3.825  18.330  0.00  0.00    +0.000 C 
ATOM      2  C   UNL     1       1.139   3.240  19.468  0.00  0.00    +0.000 C 
ATOM      3  C   UNL     1       1.470   1.759  19.458  0.00  0.00    +0.000 C 
ATOM      4  C   UNL     1       2.856   1.657  18.827  0.00  0.00    +0.000 C 
ATOM      5  N   UNL     1       3.280   3.063  18.479  0.00  0.00    +0.000 NA
ENDROOT
BRANCH   1   7
ATOM      6  N   UNL     1       2.265   6.226  19.056  0.00  0.00    +0.000 N 
ATOM      7  C   UNL     1       1.707   5.325  18.163  0.00  0.00    +0.000 C 
ATOM      8  O   UNL     1       1.060   5.697  17.178  0.00  0.00    +0.000 OA
ATOM      9  H   UNL     1       2.377   5.868  20.007  0.00  0.00    +0.000 HD
BRANCH   6  13
ATOM     10  C   UNL     1       1.418  10.422  18.765  0.00  0.00    +0.000 A 
ATOM     11  C   UNL     1       1.053   9.659  19.877  0.00  0.00    +0.000 A 
ATOM     12  C   UNL     1       1.390   8.295  19.981  0.00  0.00    +0.000 A 
ATOM     13  C   UNL     1       2.053   7.638  18.946  0.00  0.00    +0.000 A 
ATOM     14  C   UNL     1       2.463   8.405  17.847  0.00  0.00    +0.000 A 
ATOM     15  C   UNL     1       2.163   9.786  17.765  0.00  0.00    +0.000 A 
BRANCH  10  19
ATOM     16  C   UNL     1       0.748  14.161  19.001  0.00  0.00    +0.000 C 
ATOM     17  C   UNL     1       1.461  12.873  19.340  0.00  0.00    +0.000 C 
ATOM     18  O   UNL     1       2.323  12.863  20.215  0.00  0.00    +0.000 OA
ATOM     19  N   UNL     1       1.040  11.782  18.584  0.00  0.00    +0.000 N 
ATOM     20  H   UNL     1       0.370  11.968  17.848  0.00  0.00    +0.000 HD
ENDBRANCH  10  19
ENDBRANCH   6  13
ENDBRANCH   1   7
BRANCH   5  21
ATOM     21  S   UNL     1       4.460   3.692  19.521  0.00  0.00    +0.000 S 
ATOM     22  O   UNL     1       3.818   4.677  20.361  0.00  0.00    +0.000 OA
ATOM     23  O   UNL     1       5.195   2.589  20.095  0.00  0.00    +0.000 OA
BRANCH  21  24
ATOM     24  C   UNL     1       5.564   4.584  18.424  0.00  0.00    +0.000 A 
ATOM     25  C   UNL     1       6.476   5.519  18.926  0.00  0.00    +0.000 A 
ATOM     26  C   UNL     1       7.291   6.237  18.045  0.00  0.00    +0.000 A 
ATOM     27  C   UNL     1       7.224   5.995  16.672  0.00  0.00    +0.000 A 
ATOM     28  C   UNL     1       6.346   5.025  16.161  0.00  0.00    +0.000 A 
ATOM     29  C   UNL     1       5.491   4.342  17.046  0.00  0.00    +0.000 A 
BRANCH  28  30
ATOM     30  C   UNL     1       6.352   4.668  14.694  0.00  0.00    +0.000 C 
ATOM     31  F   UNL     1       5.201   4.999  14.044  0.00  0.00    +0.000 F 
ATOM     32  F   UNL     1       7.352   5.307  14.025  0.00  0.00    +0.000 F 
ATOM     33  F   UNL     1       6.542   3.339  14.472  0.00  0.00    +0.000 F 
ENDBRANCH  28  30
ENDBRANCH  21  24
ENDBRANCH   5  21
TORSDOF 6
ENDMDL
MODEL 5
REMARK VINA RESULT:      -7.5      1.737      2.236
REMARK  Name = 
REMARK  7 active torsions:
REMARK  status: ('A' for Active; 'I' for Inactive)
REMARK    1  A    between atoms: C_1  and  C_2
REMARK    2  A    between atoms: N_4  and  C_5
REMARK    3  A    between atoms: C_8  and  N_9
REMARK    4  A    between atoms: C_10  and  C_12
REMARK    5  A    between atoms: N_16  and  S_17
REMARK    6  A    between atoms: S_17  and  C_20
REMARK    7  A    between atoms: C_24  and  C_25
REMARK                            x       y       z     vdW  Elec       q    Type
REMARK                         _______ _______ _______ _____ _____    ______ ____
ROOT
ATOM      1  C   UNL     1      -0.508  11.857  18.964  0.00  0.00    +0.000 C 
ATOM      2  C   UNL     1       0.498  12.970  18.628  0.00  0.00    +0.000 C 
ATOM      3  C   UNL     1      -0.262  14.254  18.902  0.00  0.00    +0.000 C 
ATOM      4  C   UNL     1      -1.337  13.882  19.918  0.00  0.00    +0.000 C 
ATOM      5  N   UNL     1      -1.184  12.405  20.192  0.00  0.00    +0.000 NA
ENDROOT
BRANCH   1   7
ATOM      6  N   UNL     1       1.187  10.039  19.396  0.00  0.00    +0.000 N 
ATOM      7  C   UNL     1       0.097  10.478  18.662  0.00  0.00    +0.000 C 
ATOM      8  O   UNL     1      -0.466   9.756  17.831  0.00  0.00    +0.000 OA
ATOM      9  H   UNL     1       1.823  10.780  19.696  0.00  0.00    +0.000 HD
BRANCH   6  13
ATOM     10  C   UNL     1       2.873   6.185  18.549  0.00  0.00    +0.000 A 
ATOM     11  C   UNL     1       2.947   7.250  17.648  0.00  0.00    +0.000 A 
ATOM     12  C   UNL     1       2.438   8.525  17.966  0.00  0.00    +0.000 A 
ATOM     13  C   UNL     1       1.786   8.757  19.176  0.00  0.00    +0.000 A 
ATOM     14  C   UNL     1       1.747   7.708  20.105  0.00  0.00    +0.000 A 
ATOM     15  C   UNL     1       2.299   6.440  19.801  0.00  0.00    +0.000 A 
BRANCH  10  19
ATOM     16  C   UNL     1       3.253   2.496  17.695  0.00  0.00    +0.000 C 
ATOM     17  C   UNL     1       2.531   3.822  17.750  0.00  0.00    +0.000 C 
ATOM     18  O   UNL     1       1.365   3.900  17.375  0.00  0.00    +0.000 OA
ATOM     19  N   UNL     1       3.309   4.864  18.247  0.00  0.00    +0.000 N 
ATOM     20  H   UNL     1       4.280   4.656  18.445  0.00  0.00    +0.000 HD
ENDBRANCH  10  19
ENDBRANCH   6  13
ENDBRANCH   1   7
BRANCH   5  21
ATOM     21  S   UNL     1      -0.490  12.065  21.700  0.00  0.00    +0.000 S 
ATOM     22  O   UNL     1      -0.564  10.635  21.901  0.00  0.00    +0.000 OA
ATOM     23  O   UNL     1       0.771  12.764  21.790  0.00  0.00    +0.000 OA
BRANCH  21  24
ATOM     24  C   UNL     1      -1.625  12.813  22.869  0.00  0.00    +0.000 A 
ATOM     25  C   UNL     1      -2.887  12.254  23.104  0.00  0.00    +0.000 A 
ATOM     26  C   UNL     1      -3.773  12.884  23.985  0.00  0.00    +0.000 A 
ATOM     27  C   UNL     1      -3.388  14.046  24.656  0.00  0.00    +0.000 A 
ATOM     28  C   UNL     1      -2.107  14.589  24.463  0.00  0.00    +0.000 A 
ATOM     29  C   UNL     1      -1.237  13.981  23.538  0.00  0.00    +0.000 A 
BRANCH  28  30
ATOM     30  C   UNL     1      -1.635  15.772  25.273  0.00  0.00    +0.000 C 
ATOM     31  F   UNL     1      -1.560  15.527  26.611  0.00  0.00    +0.000 F 
ATOM     32  F   UNL     1      -0.387  16.172  24.900  0.00  0.00    +0.000 F 
ATOM     33  F   UNL     1      -2.435  16.865  25.134  0.00  0.00    +0.000 F 
ENDBRANCH  28  30
ENDBRANCH  21  24
ENDBRANCH   5  21
TORSDOF 6
ENDMDL
MODEL 6
REMARK VINA RESULT:      -7.4      6.312     11.278
REMARK  Name = 
REMARK  7 active torsions:
REMARK  status: ('A' for Active; 'I' for Inactive)
REMARK    1  A    between atoms: C_1  and  C_2
REMARK    2  A    between atoms: N_4  and  C_5
REMARK    3  A    between atoms: C_8  and  N_9
REMARK    4  A    between atoms: C_10  and  C_12
REMARK    5  A    between atoms: N_16  and  S_17
REMARK    6  A    between atoms: S_17  and  C_20
REMARK    7  A    between atoms: C_24  and  C_25
REMARK                            x       y       z     vdW  Elec       q    Type
REMARK                         _______ _______ _______ _____ _____    ______ ____
ROOT
ATOM      1  C   UNL     1       1.964   4.251  19.019  0.00  0.00    +0.000 C 
ATOM      2  C   UNL     1       1.636   3.035  19.902  0.00  0.00    +0.000 C 
ATOM      3  C   UNL     1       2.019   1.840  19.048  0.00  0.00    +0.000 C 
ATOM      4  C   UNL     1       3.068   2.360  18.069  0.00  0.00    +0.000 C 
ATOM      5  N   UNL     1       3.253   3.828  18.368  0.00  0.00    +0.000 NA
ENDROOT
BRANCH   1   7
ATOM      6  N   UNL     1       1.975   6.767  19.206  0.00  0.00    +0.000 N 
ATOM      7  C   UNL     1       1.556   5.552  19.725  0.00  0.00    +0.000 C 
ATOM      8  O   UNL     1       0.786   5.483  20.689  0.00  0.00    +0.000 OA
ATOM      9  H   UNL     1       2.889   6.742  18.751  0.00  0.00    +0.000 HD
BRANCH   6  13
ATOM     10  C   UNL     1       0.750  10.403  21.126  0.00  0.00    +0.000 A 
ATOM     11  C   UNL     1       1.163   9.278  21.844  0.00  0.00    +0.000 A 
ATOM     12  C   UNL     1       1.617   8.113  21.197  0.00  0.00    +0.000 A 
ATOM     13  C   UNL     1       1.615   8.016  19.806  0.00  0.00    +0.000 A 
ATOM     14  C   UNL     1       1.246   9.154  19.076  0.00  0.00    +0.000 A 
ATOM     15  C   UNL     1       0.833  10.340  19.729  0.00  0.00    +0.000 A 
BRANCH  10  19
ATOM     16  C   UNL     1      -1.260  13.048  22.983  0.00  0.00    +0.000 C 
ATOM     17  C   UNL     1      -0.820  11.639  22.656  0.00  0.00    +0.000 C 
ATOM     18  O   UNL     1      -1.375  10.686  23.194  0.00  0.00    +0.000 OA
ATOM     19  N   UNL     1       0.219  11.576  21.733  0.00  0.00    +0.000 N 
ATOM     20  H   UNL     1       0.621  12.457  21.436  0.00  0.00    +0.000 HD
ENDBRANCH  10  19
ENDBRANCH   6  13
ENDBRANCH   1   7
BRANCH   5  21
ATOM     21  S   UNL     1       4.703   4.177  19.175  0.00  0.00    +0.000 S 
ATOM     22  O   UNL     1       4.434   5.247  20.109  0.00  0.00    +0.000 OA
ATOM     23  O   UNL     1       5.290   2.933  19.615  0.00  0.00    +0.000 OA
BRANCH  21  24
ATOM     24  C   UNL     1       5.749   4.862  17.889  0.00  0.00    +0.000 A 
ATOM     25  C   UNL     1       6.724   5.820  18.190  0.00  0.00    +0.000 A 
ATOM     26  C   UNL     1       7.494   6.374  17.162  0.00  0.00    +0.000 A 
ATOM     27  C   UNL     1       7.319   5.946  15.844  0.00  0.00    +0.000 A 
ATOM     28  C   UNL     1       6.377   4.950  15.539  0.00  0.00    +0.000 A 
ATOM     29  C   UNL     1       5.568   4.432  16.568  0.00  0.00    +0.000 A 
BRANCH  28  30
ATOM     30  C   UNL     1       6.264   4.391  14.140  0.00  0.00    +0.000 C 
ATOM     31  F   UNL     1       7.173   4.907  13.267  0.00  0.00    +0.000 F 
ATOM     32  F   UNL     1       6.457   3.042  14.121  0.00  0.00    +0.000 F 
ATOM     33  F   UNL     1       5.042   4.602  13.581  0.00  0.00    +0.000 F 
ENDBRANCH  28  30
ENDBRANCH  21  24
ENDBRANCH   5  21
TORSDOF 6
ENDMDL
MODEL 7
REMARK VINA RESULT:      -7.4      1.497      2.157
REMARK  Name = 
REMARK  7 active torsions:
REMARK  status: ('A' for Active; 'I' for Inactive)
REMARK    1  A    between atoms: C_1  and  C_2
REMARK    2  A    between atoms: N_4  and  C_5
REMARK    3  A    between atoms: C_8  and  N_9
REMARK    4  A    between atoms: C_10  and  C_12
REMARK    5  A    between atoms: N_16  and  S_17
REMARK    6  A    between atoms: S_17  and  C_20
REMARK    7  A    between atoms: C_24  and  C_25
REMARK                            x       y       z     vdW  Elec       q    Type
REMARK                         _______ _______ _______ _____ _____    ______ ____
ROOT
ATOM      1  C   UNL     1      -0.120  12.312  19.068  0.00  0.00    +0.000 C 
ATOM      2  C   UNL     1       1.113  13.121  18.634  0.00  0.00    +0.000 C 
ATOM      3  C   UNL     1       0.677  14.568  18.770  0.00  0.00    +0.000 C 
ATOM      4  C   UNL     1      -0.444  14.559  19.806  0.00  0.00    +0.000 C 
ATOM      5  N   UNL     1      -0.635  13.121  20.227  0.00  0.00    +0.000 NA
ENDROOT
BRANCH   1   7
ATOM      6  N   UNL     1       1.401  10.304  19.204  0.00  0.00    +0.000 N 
ATOM      7  C   UNL     1       0.143  10.807  18.911  0.00  0.00    +0.000 C 
ATOM      8  O   UNL     1      -0.804  10.070  18.616  0.00  0.00    +0.000 OA
ATOM      9  H   UNL     1       2.172  10.943  19.002  0.00  0.00    +0.000 HD
BRANCH   6  13
ATOM     10  C   UNL     1       2.452   6.147  19.050  0.00  0.00    +0.000 A 
ATOM     11  C   UNL     1       1.973   6.756  20.212  0.00  0.00    +0.000 A 
ATOM     12  C   UNL     1       1.578   8.108  20.230  0.00  0.00    +0.000 A 
ATOM     13  C   UNL     1       1.707   8.909  19.096  0.00  0.00    +0.000 A 
ATOM     14  C   UNL     1       2.144   8.296  17.914  0.00  0.00    +0.000 A 
ATOM     15  C   UNL     1       2.497   6.925  17.888  0.00  0.00    +0.000 A 
BRANCH  10  19
ATOM     16  C   UNL     1       2.980   2.397  18.667  0.00  0.00    +0.000 C 
ATOM     17  C   UNL     1       2.301   3.720  18.398  0.00  0.00    +0.000 C 
ATOM     18  O   UNL     1       1.291   3.758  17.701  0.00  0.00    +0.000 OA
ATOM     19  N   UNL     1       2.928   4.806  19.002  0.00  0.00    +0.000 N 
ATOM     20  H   UNL     1       3.798   4.620  19.485  0.00  0.00    +0.000 HD
ENDBRANCH  10  19
ENDBRANCH   6  13
ENDBRANCH   1   7
BRANCH   5  21
ATOM     21  S   UNL     1      -0.021  12.781  21.770  0.00  0.00    +0.000 S 
ATOM     22  O   UNL     1       0.271  11.366  21.819  0.00  0.00    +0.000 OA
ATOM     23  O   UNL     1       0.992  13.761  22.084  0.00  0.00    +0.000 OA
BRANCH  21  24
ATOM     24  C   UNL     1      -1.421  13.061  22.855  0.00  0.00    +0.000 A 
ATOM     25  C   UNL     1      -2.397  12.074  23.039  0.00  0.00    +0.000 A 
ATOM     26  C   UNL     1      -3.504  12.335  23.853  0.00  0.00    +0.000 A 
ATOM     27  C   UNL     1      -3.618  13.562  24.511  0.00  0.00    +0.000 A 
ATOM     28  C   UNL     1      -2.621  14.541  24.370  0.00  0.00    +0.000 A 
ATOM     29  C   UNL     1      -1.534  14.294  23.510  0.00  0.00    +0.000 A 
BRANCH  28  30
ATOM     30  C   UNL     1      -2.670  15.820  25.171  0.00  0.00    +0.000 C 
ATOM     31  F   UNL     1      -3.933  16.224  25.484  0.00  0.00    +0.000 F 
ATOM     32  F   UNL     1      -2.016  15.695  26.360  0.00  0.00    +0.000 F 
ATOM     33  F   UNL     1      -2.087  16.870  24.532  0.00  0.00    +0.000 F 
ENDBRANCH  28  30
ENDBRANCH  21  24
ENDBRANCH   5  21
TORSDOF 6
ENDMDL
MODEL 8
REMARK VINA RESULT:      -7.3      8.551     11.109
REMARK  Name = 
REMARK  7 active torsions:
REMARK  status: ('A' for Active; 'I' for Inactive)
REMARK    1  A    between atoms: C_1  and  C_2
REMARK    2  A    between atoms: N_4  and  C_5
REMARK    3  A    between atoms: C_8  and  N_9
REMARK    4  A    between atoms: C_10  and  C_12
REMARK    5  A    between atoms: N_16  and  S_17
REMARK    6  A    between atoms: S_17  and  C_20
REMARK    7  A    between atoms: C_24  and  C_25
REMARK                            x       y       z     vdW  Elec       q    Type
REMARK                         _______ _______ _______ _____ _____    ______ ____
ROOT
ATOM      1  C   UNL     1       7.213   6.374  17.851  0.00  0.00    +0.000 C 
ATOM      2  C   UNL     1       7.496   5.796  16.455  0.00  0.00    +0.000 C 
ATOM      3  C   UNL     1       7.223   4.311  16.604  0.00  0.00    +0.000 C 
ATOM      4  C   UNL     1       6.249   4.192  17.773  0.00  0.00    +0.000 C 
ATOM      5  N   UNL     1       5.997   5.594  18.273  0.00  0.00    +0.000 NA
ENDROOT
BRANCH   1   7
ATOM      6  N   UNL     1       8.526   8.350  18.709  0.00  0.00    +0.000 N 
ATOM      7  C   UNL     1       7.520   7.879  17.880  0.00  0.00    +0.000 C 
ATOM      8  O   UNL     1       6.922   8.619  17.092  0.00  0.00    +0.000 OA
ATOM      9  H   UNL     1       8.639   7.826  19.579  0.00  0.00    +0.000 HD
BRANCH   6  13
ATOM     10  C   UNL     1       9.453  12.523  19.078  0.00  0.00    +0.000 A 
ATOM     11  C   UNL     1       9.701  11.607  20.103  0.00  0.00    +0.000 A 
ATOM     12  C   UNL     1       9.443  10.231  19.943  0.00  0.00    +0.000 A 
ATOM     13  C   UNL     1       8.874   9.738  18.771  0.00  0.00    +0.000 A 
ATOM     14  C   UNL     1       8.664  10.642  17.720  0.00  0.00    +0.000 A 
ATOM     15  C   UNL     1       8.966  12.017  17.867  0.00  0.00    +0.000 A 
BRANCH  10  19
ATOM     16  C   UNL     1      10.695  16.115  19.272  0.00  0.00    +0.000 C 
ATOM     17  C   UNL     1      10.747  14.669  18.836  0.00  0.00    +0.000 C 
ATOM     18  O   UNL     1      11.716  14.255  18.206  0.00  0.00    +0.000 OA
ATOM     19  N   UNL     1       9.632  13.929  19.216  0.00  0.00    +0.000 N 
ATOM     20  H   UNL     1       8.880  14.434  19.668  0.00  0.00    +0.000 HD
ENDBRANCH  10  19
ENDBRANCH   6  13
ENDBRANCH   1   7
BRANCH   5  21
ATOM     21  S   UNL     1       4.474   6.202  17.846  0.00  0.00    +0.000 S 
ATOM     22  O   UNL     1       4.189   7.315  18.724  0.00  0.00    +0.000 OA
ATOM     23  O   UNL     1       4.430   6.356  16.411  0.00  0.00    +0.000 OA
BRANCH  21  24
ATOM     24  C   UNL     1       3.348   4.882  18.299  0.00  0.00    +0.000 A 
ATOM     25  C   UNL     1       2.649   4.166  17.320  0.00  0.00    +0.000 A 
ATOM     26  C   UNL     1       1.740   3.173  17.702  0.00  0.00    +0.000 A 
ATOM     27  C   UNL     1       1.557   2.870  19.053  0.00  0.00    +0.000 A 
ATOM     28  C   UNL     1       2.289   3.550  20.040  0.00  0.00    +0.000 A 
ATOM     29  C   UNL     1       3.164   4.583  19.655  0.00  0.00    +0.000 A 
BRANCH  28  30
ATOM     30  C   UNL     1       2.192   3.149  21.493  0.00  0.00    +0.000 C 
ATOM     31  F   UNL     1       2.387   4.179  22.362  0.00  0.00    +0.000 F 
ATOM     32  F   UNL     1       0.964   2.639  21.792  0.00  0.00    +0.000 F 
ATOM     33  F   UNL     1       3.091   2.188  21.839  0.00  0.00    +0.000 F 
ENDBRANCH  28  30
ENDBRANCH  21  24
ENDBRANCH   5  21
TORSDOF 6
ENDMDL
MODEL 9
REMARK VINA RESULT:      -7.3      6.784     11.018
REMARK  Name = 
REMARK  7 active torsions:
REMARK  status: ('A' for Active; 'I' for Inactive)
REMARK    1  A    between atoms: C_1  and  C_2
REMARK    2  A    between atoms: N_4  and  C_5
REMARK    3  A    between atoms: C_8  and  N_9
REMARK    4  A    between atoms: C_10  and  C_12
REMARK    5  A    between atoms: N_16  and  S_17
REMARK    6  A    between atoms: S_17  and  C_20
REMARK    7  A    between atoms: C_24  and  C_25
REMARK                            x       y       z     vdW  Elec       q    Type
REMARK                         _______ _______ _______ _____ _____    ______ ____
ROOT
ATOM      1  C   UNL     1       1.920   4.718  19.777  0.00  0.00    +0.000 C 
ATOM      2  C   UNL     1       1.922   4.021  21.147  0.00  0.00    +0.000 C 
ATOM      3  C   UNL     1       2.035   2.545  20.814  0.00  0.00    +0.000 C 
ATOM      4  C   UNL     1       2.700   2.487  19.442  0.00  0.00    +0.000 C 
ATOM      5  N   UNL     1       2.939   3.916  19.014  0.00  0.00    +0.000 NA
ENDROOT
BRANCH   1   7
ATOM      6  N   UNL     1       1.796   7.054  18.832  0.00  0.00    +0.000 N 
ATOM      7  C   UNL     1       1.734   6.233  19.946  0.00  0.00    +0.000 C 
ATOM      8  O   UNL     1       1.440   6.670  21.065  0.00  0.00    +0.000 OA
ATOM      9  H   UNL     1       2.438   6.735  18.104  0.00  0.00    +0.000 HD
BRANCH   6  13
ATOM     10  C   UNL     1       1.463  11.326  19.059  0.00  0.00    +0.000 A 
ATOM     11  C   UNL     1       2.043  10.676  17.966  0.00  0.00    +0.000 A 
ATOM     12  C   UNL     1       2.092   9.271  17.882  0.00  0.00    +0.000 A 
ATOM     13  C   UNL     1       1.613   8.472  18.919  0.00  0.00    +0.000 A 
ATOM     14  C   UNL     1       0.989   9.113  19.998  0.00  0.00    +0.000 A 
ATOM     15  C   UNL     1       0.901  10.524  20.059  0.00  0.00    +0.000 A 
BRANCH  10  19
ATOM     16  C   UNL     1       0.899  15.086  18.894  0.00  0.00    +0.000 C 
ATOM     17  C   UNL     1       0.538  13.635  18.674  0.00  0.00    +0.000 C 
ATOM     18  O   UNL     1      -0.484  13.347  18.058  0.00  0.00    +0.000 OA
ATOM     19  N   UNL     1       1.453  12.740  19.220  0.00  0.00    +0.000 N 
ATOM     20  H   UNL     1       2.209  13.135  19.765  0.00  0.00    +0.000 HD
ENDBRANCH  10  19
ENDBRANCH   6  13
ENDBRANCH   1   7
BRANCH   5  21
ATOM     21  S   UNL     1       4.563   4.390  19.116  0.00  0.00    +0.000 S 
ATOM     22  O   UNL     1       4.654   5.417  20.129  0.00  0.00    +0.000 OA
ATOM     23  O   UNL     1       5.381   3.201  19.186  0.00  0.00    +0.000 OA
BRANCH  21  24
ATOM     24  C   UNL     1       4.873   5.186  17.540  0.00  0.00    +0.000 A 
ATOM     25  C   UNL     1       4.782   6.577  17.406  0.00  0.00    +0.000 A 
ATOM     26  C   UNL     1       4.981   7.169  16.155  0.00  0.00    +0.000 A 
ATOM     27  C   UNL     1       5.305   6.382  15.049  0.00  0.00    +0.000 A 
ATOM     28  C   UNL     1       5.444   4.990  15.181  0.00  0.00    +0.000 A 
ATOM     29  C   UNL     1       5.194   4.393  16.431  0.00  0.00    +0.000 A 
BRANCH  28  30
ATOM     30  C   UNL     1       5.914   4.143  14.023  0.00  0.00    +0.000 C 
ATOM     31  F   UNL     1       4.960   3.933  13.073  0.00  0.00    +0.000 F 
ATOM     32  F   UNL     1       6.964   4.719  13.372  0.00  0.00    +0.000 F 
ATOM     33  F   UNL     1       6.343   2.910  14.406  0.00  0.00    +0.000 F 
ENDBRANCH  28  30
ENDBRANCH  21  24
ENDBRANCH   5  21
TORSDOF 6
ENDMDL
