MODEL 1
REMARK VINA RESULT:      -8.0      0.000      0.000
REMARK  Name = 
REMARK  8 active torsions:
REMARK  status: ('A' for Active; 'I' for Inactive)
REMARK    1  A    between atoms: C_1  and  O_2
REMARK    2  A    between atoms: O_2  and  C_3
REMARK    3  A    between atoms: C_8  and  N_9
REMARK    4  A    between atoms: C_10  and  C_12
REMARK    5  A    between atoms: C_12  and  O_13
REMARK    6  A    between atoms: O_13  and  C_14
REMARK    7  A    between atoms: C_17  and  C_18
REMARK    8  A    between atoms: C_18  and  C_20
REMARK                            x       y       z     vdW  Elec       q    Type
REMARK                         _______ _______ _______ _____ _____    ______ ____
ROOT
ATOM      1  C   UNL     1       7.440   7.056  18.206  0.00  0.00    +0.000 A 
ATOM      2  C   UNL     1       7.353   5.860  18.916  0.00  0.00    +0.000 A 
ATOM      3  C   UNL     1       6.251   5.025  18.731  0.00  0.00    +0.000 A 
ATOM      4  C   UNL     1       5.227   5.385  17.846  0.00  0.00    +0.000 A 
ATOM      5  C   UNL     1       5.296   6.611  17.175  0.00  0.00    +0.000 A 
ATOM      6  C   UNL     1       6.408   7.436  17.349  0.00  0.00    +0.000 A 
ENDROOT
BRANCH   4   7
ATOM      7  C   UNL     1       4.101   4.428  17.663  0.00  0.00    +0.000 C 
ATOM      8  O   UNL     1       3.937   3.924  16.555  0.00  0.00    +0.000 OA
BRANCH   7   9
ATOM      9  C   UNL     1       3.133   4.148  18.756  0.00  0.00    +0.000 A 
ATOM     10  C   UNL     1       2.441   5.227  19.335  0.00  0.00    +0.000 A 
ATOM     11  C   UNL     1       1.513   5.016  20.352  0.00  0.00    +0.000 A 
ATOM     12  C   UNL     1       1.228   3.722  20.772  0.00  0.00    +0.000 A 
ATOM     13  C   UNL     1       1.883   2.638  20.183  0.00  0.00    +0.000 A 
ATOM     14  C   UNL     1       2.843   2.843  19.183  0.00  0.00    +0.000 A 
ATOM     15 BR   UNL     1       3.720   1.291  18.529  0.00  0.00    +0.000 Br
ENDBRANCH   7   9
ENDBRANCH   4   7
BRANCH   1  16
ATOM     16  O   UNL     1       8.471   7.945  18.294  0.00  0.00    +0.000 OA
BRANCH  16  17
ATOM     17  C   UNL     1       8.173   9.259  17.839  0.00  0.00    +0.000 C 
BRANCH  17  19
ATOM     18  N   UNL     1       9.270  11.441  17.859  0.00  0.00    +0.000 N 
ATOM     19  C   UNL     1       9.009  10.289  18.581  0.00  0.00    +0.000 C 
ATOM     20  O   UNL     1       9.391  10.059  19.725  0.00  0.00    +0.000 OA
ATOM     21  H   UNL     1       8.758  11.569  16.986  0.00  0.00    +0.000 HD
BRANCH  18  27
ATOM     22  C   UNL     1       9.546  13.691  18.759  0.00  0.00    +0.000 A 
ATOM     23  C   UNL     1      10.395  14.711  19.187  0.00  0.00    +0.000 A 
ATOM     24  C   UNL     1      11.764  14.540  19.059  0.00  0.00    +0.000 A 
ATOM     25  N   UNL     1      12.333  13.444  18.539  0.00  0.00    +0.000 NA
ATOM     26  C   UNL     1      11.496  12.450  18.155  0.00  0.00    +0.000 A 
ATOM     27  C   UNL     1      10.108  12.505  18.257  0.00  0.00    +0.000 A 
BRANCH  22  29
ATOM     28  C   UNL     1       7.554  14.654  17.891  0.00  0.00    +0.000 C 
ATOM     29  O   UNL     1       8.169  13.762  18.818  0.00  0.00    +0.000 OA
ENDBRANCH  22  29
ENDBRANCH  18  27
ENDBRANCH  17  19
ENDBRANCH  16  17
ENDBRANCH   1  16
TORSDOF 7
ENDMDL
MODEL 2
REMARK VINA RESULT:      -8.0      1.917      2.398
REMARK  Name = 
REMARK  8 active torsions:
REMARK  status: ('A' for Active; 'I' for Inactive)
REMARK    1  A    between atoms: C_1  and  O_2
REMARK    2  A    between atoms: O_2  and  C_3
REMARK    3  A    between atoms: C_8  and  N_9
REMARK    4  A    between atoms: C_10  and  C_12
REMARK    5  A    between atoms: C_12  and  O_13
REMARK    6  A    between atoms: O_13  and  C_14
REMARK    7  A    between atoms: C_17  and  C_18
REMARK    8  A    between atoms: C_18  and  C_20
REMARK                            x       y       z     vdW  Elec       q    Type
REMARK                         _______ _______ _______ _____ _____    ______ ____
ROOT
ATOM      1  C   UNL     1       6.446   6.854  17.250  0.00  0.00    +0.000 A 
ATOM      2  C   UNL     1       5.076   6.896  16.994  0.00  0.00    +0.000 A 
ATOM      3  C   UNL     1       4.292   5.768  17.239  0.00  0.00    +0.000 A 
ATOM      4  C   UNL     1       4.874   4.592  17.730  0.00  0.00    +0.000 A 
ATOM      5  C   UNL     1       6.257   4.541  17.936  0.00  0.00    +0.000 A 
ATOM      6  C   UNL     1       7.036   5.675  17.706  0.00  0.00    +0.000 A 
ENDROOT
BRANCH   4   7
ATOM      7  C   UNL     1       3.974   3.440  18.011  0.00  0.00    +0.000 C 
ATOM      8  O   UNL     1       3.929   2.521  17.198  0.00  0.00    +0.000 OA
BRANCH   7   9
ATOM      9  C   UNL     1       3.076   3.426  19.196  0.00  0.00    +0.000 A 
ATOM     10  C   UNL     1       1.876   4.158  19.138  0.00  0.00    +0.000 A 
ATOM     11  C   UNL     1       0.993   4.166  20.216  0.00  0.00    +0.000 A 
ATOM     12  C   UNL     1       1.273   3.406  21.345  0.00  0.00    +0.000 A 
ATOM     13  C   UNL     1       2.444   2.647  21.403  0.00  0.00    +0.000 A 
ATOM     14  C   UNL     1       3.354   2.660  20.338  0.00  0.00    +0.000 A 
ATOM     15 BR   UNL     1       4.946   1.653  20.581  0.00  0.00    +0.000 Br
ENDBRANCH   7   9
ENDBRANCH   4   7
BRANCH   1  16
ATOM     16  O   UNL     1       7.309   7.893  17.061  0.00  0.00    +0.000 OA
BRANCH  16  17
ATOM     17  C   UNL     1       8.296   8.046  18.072  0.00  0.00    +0.000 C 
BRANCH  17  19
ATOM     18  N   UNL     1       9.322   9.742  19.501  0.00  0.00    +0.000 N 
ATOM     19  C   UNL     1       8.493   9.515  18.416  0.00  0.00    +0.000 C 
ATOM     20  O   UNL     1       7.936  10.380  17.746  0.00  0.00    +0.000 OA
ATOM     21  H   UNL     1       9.845   8.945  19.862  0.00  0.00    +0.000 HD
BRANCH  18  27
ATOM     22  C   UNL     1      10.554  11.846  19.550  0.00  0.00    +0.000 A 
ATOM     23  C   UNL     1      10.767  13.093  20.136  0.00  0.00    +0.000 A 
ATOM     24  C   UNL     1      10.050  13.429  21.272  0.00  0.00    +0.000 A 
ATOM     25  N   UNL     1       9.156  12.620  21.857  0.00  0.00    +0.000 NA
ATOM     26  C   UNL     1       8.938  11.423  21.258  0.00  0.00    +0.000 A 
ATOM     27  C   UNL     1       9.586  10.991  20.103  0.00  0.00    +0.000 A 
BRANCH  22  29
ATOM     28  C   UNL     1      11.504  12.383  17.438  0.00  0.00    +0.000 C 
ATOM     29  O   UNL     1      11.226  11.398  18.431  0.00  0.00    +0.000 OA
ENDBRANCH  22  29
ENDBRANCH  18  27
ENDBRANCH  17  19
ENDBRANCH  16  17
ENDBRANCH   1  16
TORSDOF 7
ENDMDL
MODEL 3
REMARK VINA RESULT:      -8.0      6.837      9.376
REMARK  Name = 
REMARK  8 active torsions:
REMARK  status: ('A' for Active; 'I' for Inactive)
REMARK    1  A    between atoms: C_1  and  O_2
REMARK    2  A    between atoms: O_2  and  C_3
REMARK    3  A    between atoms: C_8  and  N_9
REMARK    4  A    between atoms: C_10  and  C_12
REMARK    5  A    between atoms: C_12  and  O_13
REMARK    6  A    between atoms: O_13  and  C_14
REMARK    7  A    between atoms: C_17  and  C_18
REMARK    8  A    between atoms: C_18  and  C_20
REMARK                            x       y       z     vdW  Elec       q    Type
REMARK                         _______ _______ _______ _____ _____    ______ ____
ROOT
ATOM      1  C   UNL     1       1.358   9.593  18.816  0.00  0.00    +0.000 A 
ATOM      2  C   UNL     1       1.281   8.940  20.045  0.00  0.00    +0.000 A 
ATOM      3  C   UNL     1       1.886   7.694  20.205  0.00  0.00    +0.000 A 
ATOM      4  C   UNL     1       2.560   7.088  19.137  0.00  0.00    +0.000 A 
ATOM      5  C   UNL     1       2.590   7.725  17.891  0.00  0.00    +0.000 A 
ATOM      6  C   UNL     1       1.999   8.980  17.739  0.00  0.00    +0.000 A 
ENDROOT
BRANCH   4   7
ATOM      7  C   UNL     1       3.221   5.778  19.388  0.00  0.00    +0.000 C 
ATOM      8  O   UNL     1       4.405   5.773  19.710  0.00  0.00    +0.000 OA
BRANCH   7   9
ATOM      9  C   UNL     1       2.506   4.492  19.170  0.00  0.00    +0.000 A 
ATOM     10  C   UNL     1       1.445   4.158  20.032  0.00  0.00    +0.000 A 
ATOM     11  C   UNL     1       0.734   2.973  19.861  0.00  0.00    +0.000 A 
ATOM     12  C   UNL     1       1.041   2.128  18.800  0.00  0.00    +0.000 A 
ATOM     13  C   UNL     1       2.070   2.463  17.917  0.00  0.00    +0.000 A 
ATOM     14  C   UNL     1       2.813   3.637  18.101  0.00  0.00    +0.000 A 
ATOM     15 BR   UNL     1       4.237   3.929  16.880  0.00  0.00    +0.000 Br
ENDBRANCH   7   9
ENDBRANCH   4   7
BRANCH   1  16
ATOM     16  O   UNL     1       0.818  10.816  18.543  0.00  0.00    +0.000 OA
BRANCH  16  17
ATOM     17  C   UNL     1       0.357  11.536  19.678  0.00  0.00    +0.000 C 
BRANCH  17  19
ATOM     18  N   UNL     1      -1.944  11.271  18.899  0.00  0.00    +0.000 N 
ATOM     19  C   UNL     1      -1.006  12.155  19.406  0.00  0.00    +0.000 C 
ATOM     20  O   UNL     1      -1.195  13.346  19.639  0.00  0.00    +0.000 OA
ATOM     21  H   UNL     1      -1.703  10.281  18.909  0.00  0.00    +0.000 HD
BRANCH  18  27
ATOM     22  C   UNL     1      -3.568  11.482  17.092  0.00  0.00    +0.000 A 
ATOM     23  C   UNL     1      -4.870  11.767  16.683  0.00  0.00    +0.000 A 
ATOM     24  C   UNL     1      -5.788  12.201  17.625  0.00  0.00    +0.000 A 
ATOM     25  N   UNL     1      -5.500  12.371  18.923  0.00  0.00    +0.000 NA
ATOM     26  C   UNL     1      -4.239  12.061  19.311  0.00  0.00    +0.000 A 
ATOM     27  C   UNL     1      -3.243  11.598  18.455  0.00  0.00    +0.000 A 
BRANCH  22  29
ATOM     28  C   UNL     1      -2.911  10.001  15.353  0.00  0.00    +0.000 C 
ATOM     29  O   UNL     1      -2.568  11.065  16.238  0.00  0.00    +0.000 OA
ENDBRANCH  22  29
ENDBRANCH  18  27
ENDBRANCH  17  19
ENDBRANCH  16  17
ENDBRANCH   1  16
TORSDOF 7
ENDMDL
MODEL 4
REMARK VINA RESULT:      -8.0      6.875      9.390
REMARK  Name = 
REMARK  8 active torsions:
REMARK  status: ('A' for Active; 'I' for Inactive)
REMARK    1  A    between atoms: C_1  and  O_2
REMARK    2  A    between atoms: O_2  and  C_3
REMARK    3  A    between atoms: C_8  and  N_9
REMARK    4  A    between atoms: C_10  and  C_12
REMARK    5  A    between atoms: C_12  and  O_13
REMARK    6  A    between atoms: O_13  and  C_14
REMARK    7  A    between atoms: C_17  and  C_18
REMARK    8  A    between atoms: C_18  and  C_20
REMARK                            x       y       z     vdW  Elec       q    Type
REMARK                         _______ _______ _______ _____ _____    ______ ____
ROOT
ATOM      1  C   UNL     1       1.148   9.512  19.674  0.00  0.00    +0.000 A 
ATOM      2  C   UNL     1       1.504   8.354  20.364  0.00  0.00    +0.000 A 
ATOM      3  C   UNL     1       2.240   7.362  19.717  0.00  0.00    +0.000 A 
ATOM      4  C   UNL     1       2.614   7.516  18.375  0.00  0.00    +0.000 A 
ATOM      5  C   UNL     1       2.210   8.657  17.674  0.00  0.00    +0.000 A 
ATOM      6  C   UNL     1       1.489   9.656  18.329  0.00  0.00    +0.000 A 
ENDROOT
BRANCH   4   7
ATOM      7  C   UNL     1       3.436   6.439  17.757  0.00  0.00    +0.000 C 
ATOM      8  O   UNL     1       4.248   6.749  16.890  0.00  0.00    +0.000 OA
BRANCH   7   9
ATOM      9  C   UNL     1       3.229   5.008  18.103  0.00  0.00    +0.000 A 
ATOM     10  C   UNL     1       1.992   4.414  17.794  0.00  0.00    +0.000 A 
ATOM     11  C   UNL     1       1.753   3.073  18.084  0.00  0.00    +0.000 A 
ATOM     12  C   UNL     1       2.761   2.294  18.640  0.00  0.00    +0.000 A 
ATOM     13  C   UNL     1       4.006   2.862  18.921  0.00  0.00    +0.000 A 
ATOM     14  C   UNL     1       4.245   4.219  18.665  0.00  0.00    +0.000 A 
ATOM     15 BR   UNL     1       5.949   4.883  19.172  0.00  0.00    +0.000 Br
ENDBRANCH   7   9
ENDBRANCH   4   7
BRANCH   1  16
ATOM     16  O   UNL     1       0.442  10.553  20.203  0.00  0.00    +0.000 OA
BRANCH  16  17
ATOM     17  C   UNL     1       0.498  11.760  19.454  0.00  0.00    +0.000 C 
BRANCH  17  19
ATOM     18  N   UNL     1      -1.815  11.357  18.779  0.00  0.00    +0.000 N 
ATOM     19  C   UNL     1      -0.899  12.305  19.204  0.00  0.00    +0.000 C 
ATOM     20  O   UNL     1      -1.133  13.497  19.385  0.00  0.00    +0.000 OA
ATOM     21  H   UNL     1      -1.530  10.380  18.828  0.00  0.00    +0.000 HD
BRANCH  18  27
ATOM     22  C   UNL     1      -3.502  11.445  17.020  0.00  0.00    +0.000 A 
ATOM     23  C   UNL     1      -4.829  11.652  16.645  0.00  0.00    +0.000 A 
ATOM     24  C   UNL     1      -5.740  12.054  17.608  0.00  0.00    +0.000 A 
ATOM     25  N   UNL     1      -5.423  12.264  18.893  0.00  0.00    +0.000 NA
ATOM     26  C   UNL     1      -4.136  12.030  19.247  0.00  0.00    +0.000 A 
ATOM     27  C   UNL     1      -3.142  11.604  18.369  0.00  0.00    +0.000 A 
BRANCH  22  29
ATOM     28  C   UNL     1      -2.925  10.274  15.033  0.00  0.00    +0.000 C 
ATOM     29  O   UNL     1      -2.506  11.066  16.142  0.00  0.00    +0.000 OA
ENDBRANCH  22  29
ENDBRANCH  18  27
ENDBRANCH  17  19
ENDBRANCH  16  17
ENDBRANCH   1  16
TORSDOF 7
ENDMDL
MODEL 5
REMARK VINA RESULT:      -7.9      6.463      9.373
REMARK  Name = 
REMARK  8 active torsions:
REMARK  status: ('A' for Active; 'I' for Inactive)
REMARK    1  A    between atoms: C_1  and  O_2
REMARK    2  A    between atoms: O_2  and  C_3
REMARK    3  A    between atoms: C_8  and  N_9
REMARK    4  A    between atoms: C_10  and  C_12
REMARK    5  A    between atoms: C_12  and  O_13
REMARK    6  A    between atoms: O_13  and  C_14
REMARK    7  A    between atoms: C_17  and  C_18
REMARK    8  A    between atoms: C_18  and  C_20
REMARK                            x       y       z     vdW  Elec       q    Type
REMARK                         _______ _______ _______ _____ _____    ______ ____
ROOT
ATOM      1  C   UNL     1       2.050   7.965  19.222  0.00  0.00    +0.000 A 
ATOM      2  C   UNL     1       2.066   6.816  20.011  0.00  0.00    +0.000 A 
ATOM      3  C   UNL     1       2.880   5.742  19.652  0.00  0.00    +0.000 A 
ATOM      4  C   UNL     1       3.671   5.805  18.497  0.00  0.00    +0.000 A 
ATOM      5  C   UNL     1       3.612   6.940  17.682  0.00  0.00    +0.000 A 
ATOM      6  C   UNL     1       2.810   8.020  18.054  0.00  0.00    +0.000 A 
ENDROOT
BRANCH   4   7
ATOM      7  C   UNL     1       4.549   4.641  18.195  0.00  0.00    +0.000 C 
ATOM      8  O   UNL     1       4.616   3.731  19.016  0.00  0.00    +0.000 OA
BRANCH   7   9
ATOM      9  C   UNL     1       5.403   4.606  16.978  0.00  0.00    +0.000 A 
ATOM     10  C   UNL     1       4.859   4.082  15.791  0.00  0.00    +0.000 A 
ATOM     11  C   UNL     1       5.612   4.040  14.620  0.00  0.00    +0.000 A 
ATOM     12  C   UNL     1       6.900   4.565  14.605  0.00  0.00    +0.000 A 
ATOM     13  C   UNL     1       7.440   5.119  15.768  0.00  0.00    +0.000 A 
ATOM     14  C   UNL     1       6.703   5.134  16.960  0.00  0.00    +0.000 A 
ATOM     15 BR   UNL     1       7.586   5.838  18.485  0.00  0.00    +0.000 Br
ENDBRANCH   7   9
ENDBRANCH   4   7
BRANCH   1  16
ATOM     16  O   UNL     1       1.307   9.080  19.477  0.00  0.00    +0.000 OA
BRANCH  16  17
ATOM     17  C   UNL     1       0.954   9.843  18.331  0.00  0.00    +0.000 C 
BRANCH  17  19
ATOM     18  N   UNL     1      -1.340  10.240  17.591  0.00  0.00    +0.000 N 
ATOM     19  C   UNL     1      -0.379  10.545  18.540  0.00  0.00    +0.000 C 
ATOM     20  O   UNL     1      -0.528  11.305  19.492  0.00  0.00    +0.000 OA
ATOM     21  H   UNL     1      -1.136   9.472  16.952  0.00  0.00    +0.000 HD
BRANCH  18  27
ATOM     22  C   UNL     1      -3.251  10.893  16.225  0.00  0.00    +0.000 A 
ATOM     23  C   UNL     1      -4.532  11.439  16.144  0.00  0.00    +0.000 A 
ATOM     24  C   UNL     1      -5.118  11.942  17.294  0.00  0.00    +0.000 A 
ATOM     25  N   UNL     1      -4.524  11.943  18.494  0.00  0.00    +0.000 NA
ATOM     26  C   UNL     1      -3.292  11.382  18.563  0.00  0.00    +0.000 A 
ATOM     27  C   UNL     1      -2.617  10.828  17.477  0.00  0.00    +0.000 A 
BRANCH  22  29
ATOM     28  C   UNL     1      -3.359  10.027  14.013  0.00  0.00    +0.000 C 
ATOM     29  O   UNL     1      -2.563  10.384  15.142  0.00  0.00    +0.000 OA
ENDBRANCH  22  29
ENDBRANCH  18  27
ENDBRANCH  17  19
ENDBRANCH  16  17
ENDBRANCH   1  16
TORSDOF 7
ENDMDL
MODEL 6
REMARK VINA RESULT:      -7.9      1.184      1.475
REMARK  Name = 
REMARK  8 active torsions:
REMARK  status: ('A' for Active; 'I' for Inactive)
REMARK    1  A    between atoms: C_1  and  O_2
REMARK    2  A    between atoms: O_2  and  C_3
REMARK    3  A    between atoms: C_8  and  N_9
REMARK    4  A    between atoms: C_10  and  C_12
REMARK    5  A    between atoms: C_12  and  O_13
REMARK    6  A    between atoms: O_13  and  C_14
REMARK    7  A    between atoms: C_17  and  C_18
REMARK    8  A    between atoms: C_18  and  C_20
REMARK                            x       y       z     vdW  Elec       q    Type
REMARK                         _______ _______ _______ _____ _____    ______ ____
ROOT
ATOM      1  C   UNL     1       7.659   7.015  18.322  0.00  0.00    +0.000 A 
ATOM      2  C   UNL     1       7.575   5.965  19.236  0.00  0.00    +0.000 A 
ATOM      3  C   UNL     1       6.532   5.044  19.136  0.00  0.00    +0.000 A 
ATOM      4  C   UNL     1       5.564   5.172  18.132  0.00  0.00    +0.000 A 
ATOM      5  C   UNL     1       5.626   6.256  17.249  0.00  0.00    +0.000 A 
ATOM      6  C   UNL     1       6.680   7.167  17.341  0.00  0.00    +0.000 A 
ENDROOT
BRANCH   4   7
ATOM      7  C   UNL     1       4.504   4.130  18.055  0.00  0.00    +0.000 C 
ATOM      8  O   UNL     1       4.418   3.459  17.030  0.00  0.00    +0.000 OA
BRANCH   7   9
ATOM      9  C   UNL     1       3.506   3.954  19.143  0.00  0.00    +0.000 A 
ATOM     10  C   UNL     1       3.569   2.789  19.931  0.00  0.00    +0.000 A 
ATOM     11  C   UNL     1       2.667   2.584  20.972  0.00  0.00    +0.000 A 
ATOM     12  C   UNL     1       1.722   3.558  21.272  0.00  0.00    +0.000 A 
ATOM     13  C   UNL     1       1.669   4.733  20.520  0.00  0.00    +0.000 A 
ATOM     14  C   UNL     1       2.550   4.935  19.449  0.00  0.00    +0.000 A 
ATOM     15 BR   UNL     1       2.316   6.536  18.456  0.00  0.00    +0.000 Br
ENDBRANCH   7   9
ENDBRANCH   4   7
BRANCH   1  16
ATOM     16  O   UNL     1       8.636   7.967  18.312  0.00  0.00    +0.000 OA
BRANCH  16  17
ATOM     17  C   UNL     1       8.202   9.270  17.944  0.00  0.00    +0.000 C 
BRANCH  17  19
ATOM     18  N   UNL     1       9.225  11.486  17.853  0.00  0.00    +0.000 N 
ATOM     19  C   UNL     1       9.067  10.333  18.603  0.00  0.00    +0.000 C 
ATOM     20  O   UNL     1       9.555  10.125  19.710  0.00  0.00    +0.000 OA
ATOM     21  H   UNL     1       8.635  11.590  17.029  0.00  0.00    +0.000 HD
BRANCH  18  27
ATOM     22  C   UNL     1       9.502  13.771  18.659  0.00  0.00    +0.000 A 
ATOM     23  C   UNL     1      10.350  14.822  19.006  0.00  0.00    +0.000 A 
ATOM     24  C   UNL     1      11.714  14.672  18.812  0.00  0.00    +0.000 A 
ATOM     25  N   UNL     1      12.277  13.570  18.301  0.00  0.00    +0.000 NA
ATOM     26  C   UNL     1      11.443  12.546  17.997  0.00  0.00    +0.000 A 
ATOM     27  C   UNL     1      10.061  12.579  18.169  0.00  0.00    +0.000 A 
BRANCH  22  29
ATOM     28  C   UNL     1       7.632  14.644  19.838  0.00  0.00    +0.000 C 
ATOM     29  O   UNL     1       8.128  13.818  18.787  0.00  0.00    +0.000 OA
ENDBRANCH  22  29
ENDBRANCH  18  27
ENDBRANCH  17  19
ENDBRANCH  16  17
ENDBRANCH   1  16
TORSDOF 7
ENDMDL
MODEL 7
REMARK VINA RESULT:      -7.7      7.411      9.258
REMARK  Name = 
REMARK  8 active torsions:
REMARK  status: ('A' for Active; 'I' for Inactive)
REMARK    1  A    between atoms: C_1  and  O_2
REMARK    2  A    between atoms: O_2  and  C_3
REMARK    3  A    between atoms: C_8  and  N_9
REMARK    4  A    between atoms: C_10  and  C_12
REMARK    5  A    between atoms: C_12  and  O_13
REMARK    6  A    between atoms: O_13  and  C_14
REMARK    7  A    between atoms: C_17  and  C_18
REMARK    8  A    between atoms: C_18  and  C_20
REMARK                            x       y       z     vdW  Elec       q    Type
REMARK                         _______ _______ _______ _____ _____    ______ ____
ROOT
ATOM      1  C   UNL     1       0.668   9.426  19.710  0.00  0.00    +0.000 A 
ATOM      2  C   UNL     1       1.047   9.577  18.377  0.00  0.00    +0.000 A 
ATOM      3  C   UNL     1       1.940   8.670  17.805  0.00  0.00    +0.000 A 
ATOM      4  C   UNL     1       2.465   7.616  18.564  0.00  0.00    +0.000 A 
ATOM      5  C   UNL     1       2.120   7.500  19.915  0.00  0.00    +0.000 A 
ATOM      6  C   UNL     1       1.214   8.399  20.480  0.00  0.00    +0.000 A 
ENDROOT
BRANCH   4   7
ATOM      7  C   UNL     1       3.378   6.658  17.881  0.00  0.00    +0.000 C 
ATOM      8  O   UNL     1       4.182   7.098  17.065  0.00  0.00    +0.000 OA
BRANCH   7   9
ATOM      9  C   UNL     1       3.270   5.191  18.099  0.00  0.00    +0.000 A 
ATOM     10  C   UNL     1       2.075   4.543  17.737  0.00  0.00    +0.000 A 
ATOM     11  C   UNL     1       1.930   3.168  17.908  0.00  0.00    +0.000 A 
ATOM     12  C   UNL     1       2.991   2.415  18.397  0.00  0.00    +0.000 A 
ATOM     13  C   UNL     1       4.194   3.040  18.730  0.00  0.00    +0.000 A 
ATOM     14  C   UNL     1       4.339   4.427  18.594  0.00  0.00    +0.000 A 
ATOM     15 BR   UNL     1       5.995   5.160  19.162  0.00  0.00    +0.000 Br
ENDBRANCH   7   9
ENDBRANCH   4   7
BRANCH   1  16
ATOM     16  O   UNL     1      -0.203  10.241  20.373  0.00  0.00    +0.000 OA
BRANCH  16  17
ATOM     17  C   UNL     1       0.394  11.345  21.039  0.00  0.00    +0.000 C 
BRANCH  17  19
ATOM     18  N   UNL     1      -1.052  12.942  22.190  0.00  0.00    +0.000 N 
ATOM     19  C   UNL     1      -0.403  11.723  22.278  0.00  0.00    +0.000 C 
ATOM     20  O   UNL     1      -0.430  10.964  23.243  0.00  0.00    +0.000 OA
ATOM     21  H   UNL     1      -1.078  13.391  21.275  0.00  0.00    +0.000 HD
BRANCH  18  27
ATOM     22  C   UNL     1      -3.111  13.260  23.458  0.00  0.00    +0.000 A 
ATOM     23  C   UNL     1      -3.781  13.876  24.514  0.00  0.00    +0.000 A 
ATOM     24  C   UNL     1      -3.111  14.824  25.269  0.00  0.00    +0.000 A 
ATOM     25  N   UNL     1      -1.844  15.197  25.043  0.00  0.00    +0.000 NA
ATOM     26  C   UNL     1      -1.196  14.568  24.033  0.00  0.00    +0.000 A 
ATOM     27  C   UNL     1      -1.764  13.586  23.225  0.00  0.00    +0.000 A 
BRANCH  22  29
ATOM     28  C   UNL     1      -4.812  12.762  21.874  0.00  0.00    +0.000 C 
ATOM     29  O   UNL     1      -3.685  12.319  22.628  0.00  0.00    +0.000 OA
ENDBRANCH  22  29
ENDBRANCH  18  27
ENDBRANCH  17  19
ENDBRANCH  16  17
ENDBRANCH   1  16
TORSDOF 7
ENDMDL
MODEL 8
REMARK VINA RESULT:      -7.7      6.393      9.323
REMARK  Name = 
REMARK  8 active torsions:
REMARK  status: ('A' for Active; 'I' for Inactive)
REMARK    1  A    between atoms: C_1  and  O_2
REMARK    2  A    between atoms: O_2  and  C_3
REMARK    3  A    between atoms: C_8  and  N_9
REMARK    4  A    between atoms: C_10  and  C_12
REMARK    5  A    between atoms: C_12  and  O_13
REMARK    6  A    between atoms: O_13  and  C_14
REMARK    7  A    between atoms: C_17  and  C_18
REMARK    8  A    between atoms: C_18  and  C_20
REMARK                            x       y       z     vdW  Elec       q    Type
REMARK                         _______ _______ _______ _____ _____    ______ ____
ROOT
ATOM      1  C   UNL     1       2.180   7.631  19.424  0.00  0.00    +0.000 A 
ATOM      2  C   UNL     1       2.786   7.679  18.170  0.00  0.00    +0.000 A 
ATOM      3  C   UNL     1       3.527   6.587  17.718  0.00  0.00    +0.000 A 
ATOM      4  C   UNL     1       3.675   5.448  18.520  0.00  0.00    +0.000 A 
ATOM      5  C   UNL     1       3.106   5.427  19.799  0.00  0.00    +0.000 A 
ATOM      6  C   UNL     1       2.351   6.514  20.241  0.00  0.00    +0.000 A 
ENDROOT
BRANCH   4   7
ATOM      7  C   UNL     1       4.441   4.301  17.960  0.00  0.00    +0.000 C 
ATOM      8  O   UNL     1       4.353   3.211  18.518  0.00  0.00    +0.000 OA
BRANCH   7   9
ATOM      9  C   UNL     1       5.367   4.472  16.810  0.00  0.00    +0.000 A 
ATOM     10  C   UNL     1       4.922   4.103  15.527  0.00  0.00    +0.000 A 
ATOM     11  C   UNL     1       5.746   4.257  14.415  0.00  0.00    +0.000 A 
ATOM     12  C   UNL     1       7.006   4.827  14.560  0.00  0.00    +0.000 A 
ATOM     13  C   UNL     1       7.448   5.229  15.822  0.00  0.00    +0.000 A 
ATOM     14  C   UNL     1       6.640   5.046  16.952  0.00  0.00    +0.000 A 
ATOM     15 BR   UNL     1       7.395   5.557  18.617  0.00  0.00    +0.000 Br
ENDBRANCH   7   9
ENDBRANCH   4   7
BRANCH   1  16
ATOM     16  O   UNL     1       1.424   8.629  19.967  0.00  0.00    +0.000 OA
BRANCH  16  17
ATOM     17  C   UNL     1       0.970   9.610  19.044  0.00  0.00    +0.000 C 
BRANCH  17  19
ATOM     18  N   UNL     1      -1.187  10.453  18.267  0.00  0.00    +0.000 N 
ATOM     19  C   UNL     1      -0.455  10.033  19.364  0.00  0.00    +0.000 C 
ATOM     20  O   UNL     1      -0.864   9.982  20.521  0.00  0.00    +0.000 OA
ATOM     21  H   UNL     1      -0.780  10.291  17.346  0.00  0.00    +0.000 HD
BRANCH  18  27
ATOM     22  C   UNL     1      -3.429  10.618  17.321  0.00  0.00    +0.000 A 
ATOM     23  C   UNL     1      -4.721  11.140  17.390  0.00  0.00    +0.000 A 
ATOM     24  C   UNL     1      -5.019  12.056  18.386  0.00  0.00    +0.000 A 
ATOM     25  N   UNL     1      -4.133  12.483  19.296  0.00  0.00    +0.000 NA
ATOM     26  C   UNL     1      -2.891  11.944  19.234  0.00  0.00    +0.000 A 
ATOM     27  C   UNL     1      -2.487  11.002  18.291  0.00  0.00    +0.000 A 
BRANCH  22  29
ATOM     28  C   UNL     1      -2.893  10.236  15.037  0.00  0.00    +0.000 C 
ATOM     29  O   UNL     1      -3.015   9.718  16.360  0.00  0.00    +0.000 OA
ENDBRANCH  22  29
ENDBRANCH  18  27
ENDBRANCH  17  19
ENDBRANCH  16  17
ENDBRANCH   1  16
TORSDOF 7
ENDMDL
MODEL 9
REMARK VINA RESULT:      -7.6      7.226      9.651
REMARK  Name = 
REMARK  8 active torsions:
REMARK  status: ('A' for Active; 'I' for Inactive)
REMARK    1  A    between atoms: C_1  and  O_2
REMARK    2  A    between atoms: O_2  and  C_3
REMARK    3  A    between atoms: C_8  and  N_9
REMARK    4  A    between atoms: C_10  and  C_12
REMARK    5  A    between atoms: C_12  and  O_13
REMARK    6  A    between atoms: O_13  and  C_14
REMARK    7  A    between atoms: C_17  and  C_18
REMARK    8  A    between atoms: C_18  and  C_20
REMARK                            x       y       z     vdW  Elec       q    Type
REMARK                         _______ _______ _______ _____ _____    ______ ____
ROOT
ATOM      1  C   UNL     1       1.441   9.592  18.828  0.00  0.00    +0.000 A 
ATOM      2  C   UNL     1       1.290   8.910  20.034  0.00  0.00    +0.000 A 
ATOM      3  C   UNL     1       1.871   7.653  20.196  0.00  0.00    +0.000 A 
ATOM      4  C   UNL     1       2.596   7.066  19.151  0.00  0.00    +0.000 A 
ATOM      5  C   UNL     1       2.702   7.733  17.926  0.00  0.00    +0.000 A 
ATOM      6  C   UNL     1       2.134   8.998  17.773  0.00  0.00    +0.000 A 
ENDROOT
BRANCH   4   7
ATOM      7  C   UNL     1       3.228   5.742  19.405  0.00  0.00    +0.000 C 
ATOM      8  O   UNL     1       4.412   5.712  19.728  0.00  0.00    +0.000 OA
BRANCH   7   9
ATOM      9  C   UNL     1       2.486   4.472  19.189  0.00  0.00    +0.000 A 
ATOM     10  C   UNL     1       1.409   4.169  20.043  0.00  0.00    +0.000 A 
ATOM     11  C   UNL     1       0.672   2.999  19.874  0.00  0.00    +0.000 A 
ATOM     12  C   UNL     1       0.969   2.140  18.821  0.00  0.00    +0.000 A 
ATOM     13  C   UNL     1       2.013   2.445  17.946  0.00  0.00    +0.000 A 
ATOM     14  C   UNL     1       2.782   3.602  18.129  0.00  0.00    +0.000 A 
ATOM     15 BR   UNL     1       4.224   3.852  16.920  0.00  0.00    +0.000 Br
ENDBRANCH   7   9
ENDBRANCH   4   7
BRANCH   1  16
ATOM     16  O   UNL     1       0.930  10.828  18.557  0.00  0.00    +0.000 OA
BRANCH  16  17
ATOM     17  C   UNL     1      -0.002  11.316  19.513  0.00  0.00    +0.000 C 
BRANCH  17  19
ATOM     18  N   UNL     1      -2.425  11.470  19.247  0.00  0.00    +0.000 N 
ATOM     19  C   UNL     1      -1.198  11.952  18.822  0.00  0.00    +0.000 C 
ATOM     20  O   UNL     1      -1.024  12.816  17.968  0.00  0.00    +0.000 OA
ATOM     21  H   UNL     1      -2.430  10.875  20.074  0.00  0.00    +0.000 HD
BRANCH  18  27
ATOM     22  C   UNL     1      -4.663  12.403  19.509  0.00  0.00    +0.000 A 
ATOM     23  C   UNL     1      -5.885  12.759  18.938  0.00  0.00    +0.000 A 
ATOM     24  C   UNL     1      -6.110  12.461  17.604  0.00  0.00    +0.000 A 
ATOM     25  N   UNL     1      -5.221  11.841  16.818  0.00  0.00    +0.000 NA
ATOM     26  C   UNL     1      -4.028  11.529  17.379  0.00  0.00    +0.000 A 
ATOM     27  C   UNL     1      -3.685  11.799  18.702  0.00  0.00    +0.000 A 
BRANCH  22  29
ATOM     28  C   UNL     1      -5.441  12.790  21.722  0.00  0.00    +0.000 C 
ATOM     29  O   UNL     1      -4.339  12.630  20.831  0.00  0.00    +0.000 OA
ENDBRANCH  22  29
ENDBRANCH  18  27
ENDBRANCH  17  19
ENDBRANCH  16  17
ENDBRANCH   1  16
TORSDOF 7
ENDMDL
