MODEL 1
REMARK VINA RESULT:      -5.2      0.000      0.000
REMARK  Name = 
REMARK  6 active torsions:
REMARK  status: ('A' for Active; 'I' for Inactive)
REMARK    1  A    between atoms: C_2  and  N_3
REMARK    2  A    between atoms: C_7  and  P_8
REMARK    3  A    between atoms: P_8  and  C_10
REMARK    4  A    between atoms: P_8  and  C_16
REMARK    5  A    between atoms: N_13  and  C_14
REMARK    6  A    between atoms: N_20  and  C_21
REMARK                            x       y       z     vdW  Elec       q    Type
REMARK                         _______ _______ _______ _____ _____    ______ ____
ROOT
ATOM      1  P   UNL     1       0.552  11.626  19.353  0.00  0.00    +0.000 P 
ATOM      2  S   UNL     1       2.102  12.549  18.474  0.00  0.00    +0.000 S 
ENDROOT
BRANCH   1   3
ATOM      3  C   UNL     1      -1.022  11.204  18.370  0.00  0.00    +0.000 A 
ATOM      4  C   UNL     1      -1.716   9.965  18.597  0.00  0.00    +0.000 A 
ATOM      5  C   UNL     1      -2.720   9.854  17.666  0.00  0.00    +0.000 A 
ATOM      6  N   UNL     1      -2.606  10.919  16.820  0.00  0.00    +0.000 N 
ATOM      7  C   UNL     1      -3.303  11.029  15.558  0.00  0.00    +0.000 C 
ATOM      8  C   UNL     1      -1.637  11.784  17.277  0.00  0.00    +0.000 A 
ENDBRANCH   1   3
BRANCH   1  13
ATOM      9  N   UNL     1       1.465   8.785  19.732  0.00  0.00    +0.000 N 
ATOM     10  C   UNL     1       2.150   7.933  18.894  0.00  0.00    +0.000 A 
ATOM     11  C   UNL     1       2.310   8.582  17.701  0.00  0.00    +0.000 A 
ATOM     12  N   UNL     1       1.776   9.833  17.758  0.00  0.00    +0.000 NA
ATOM     13  C   UNL     1       1.271   9.984  18.984  0.00  0.00    +0.000 A 
BRANCH   9  15
ATOM     14  C   UNL     1      -0.126   8.628  21.620  0.00  0.00    +0.000 C 
ATOM     15  C   UNL     1       1.084   8.492  21.056  0.00  0.00    +0.000 C 
ENDBRANCH   9  15
ENDBRANCH   1  13
BRANCH   1  16
ATOM     16  C   UNL     1      -0.168  13.267  19.723  0.00  0.00    +0.000 A 
ATOM     17  N   UNL     1       0.243  14.333  19.041  0.00  0.00    +0.000 NA
ATOM     18  C   UNL     1      -0.512  15.384  19.479  0.00  0.00    +0.000 A 
ATOM     19  C   UNL     1      -1.363  14.998  20.480  0.00  0.00    +0.000 A 
ATOM     20  N   UNL     1      -1.178  13.645  20.656  0.00  0.00    +0.000 N 
BRANCH  20  21
ATOM     21  C   UNL     1      -1.859  12.814  21.566  0.00  0.00    +0.000 C 
ATOM     22  C   UNL     1      -1.372  12.208  22.660  0.00  0.00    +0.000 C 
ENDBRANCH  20  21
ENDBRANCH   1  16
TORSDOF 5
ENDMDL
MODEL 2
REMARK VINA RESULT:      -5.1      5.274      8.589
REMARK  Name = 
REMARK  6 active torsions:
REMARK  status: ('A' for Active; 'I' for Inactive)
REMARK    1  A    between atoms: C_2  and  N_3
REMARK    2  A    between atoms: C_7  and  P_8
REMARK    3  A    between atoms: P_8  and  C_10
REMARK    4  A    between atoms: P_8  and  C_16
REMARK    5  A    between atoms: N_13  and  C_14
REMARK    6  A    between atoms: N_20  and  C_21
REMARK                            x       y       z     vdW  Elec       q    Type
REMARK                         _______ _______ _______ _____ _____    ______ ____
ROOT
ATOM      1  P   UNL     1       4.134   4.392  18.758  0.00  0.00    +0.000 P 
ATOM      2  S   UNL     1       4.433   3.510  16.979  0.00  0.00    +0.000 S 
ENDROOT
BRANCH   1   3
ATOM      3  C   UNL     1       3.350   6.120  18.874  0.00  0.00    +0.000 A 
ATOM      4  C   UNL     1       2.532   6.479  20.002  0.00  0.00    +0.000 A 
ATOM      5  C   UNL     1       1.983   7.716  19.764  0.00  0.00    +0.000 A 
ATOM      6  N   UNL     1       2.346   8.083  18.501  0.00  0.00    +0.000 N 
ATOM      7  C   UNL     1       1.760   9.190  17.779  0.00  0.00    +0.000 C 
ATOM      8  C   UNL     1       3.235   7.169  17.980  0.00  0.00    +0.000 A 
ENDBRANCH   1   3
BRANCH   1  13
ATOM      9  N   UNL     1       1.769   3.013  20.004  0.00  0.00    +0.000 N 
ATOM     10  C   UNL     1       0.620   2.500  19.444  0.00  0.00    +0.000 A 
ATOM     11  C   UNL     1       0.650   2.802  18.111  0.00  0.00    +0.000 A 
ATOM     12  N   UNL     1       1.796   3.465  17.793  0.00  0.00    +0.000 NA
ATOM     13  C   UNL     1       2.496   3.593  18.922  0.00  0.00    +0.000 A 
BRANCH   9  15
ATOM     14  C   UNL     1       1.400   2.419  22.377  0.00  0.00    +0.000 C 
ATOM     15  C   UNL     1       2.118   2.932  21.366  0.00  0.00    +0.000 C 
ENDBRANCH   9  15
ENDBRANCH   1  13
BRANCH   1  16
ATOM     16  C   UNL     1       5.772   5.191  18.595  0.00  0.00    +0.000 A 
ATOM     17  N   UNL     1       6.549   5.320  19.668  0.00  0.00    +0.000 NA
ATOM     18  C   UNL     1       7.718   5.878  19.231  0.00  0.00    +0.000 A 
ATOM     19  C   UNL     1       7.662   6.156  17.891  0.00  0.00    +0.000 A 
ATOM     20  N   UNL     1       6.433   5.720  17.448  0.00  0.00    +0.000 N 
BRANCH  20  21
ATOM     21  C   UNL     1       5.946   5.779  16.128  0.00  0.00    +0.000 C 
ATOM     22  C   UNL     1       6.582   5.445  14.995  0.00  0.00    +0.000 C 
ENDBRANCH  20  21
ENDBRANCH   1  16
TORSDOF 5
ENDMDL
MODEL 3
REMARK VINA RESULT:      -5.1      4.797      8.837
REMARK  Name = 
REMARK  6 active torsions:
REMARK  status: ('A' for Active; 'I' for Inactive)
REMARK    1  A    between atoms: C_2  and  N_3
REMARK    2  A    between atoms: C_7  and  P_8
REMARK    3  A    between atoms: P_8  and  C_10
REMARK    4  A    between atoms: P_8  and  C_16
REMARK    5  A    between atoms: N_13  and  C_14
REMARK    6  A    between atoms: N_20  and  C_21
REMARK                            x       y       z     vdW  Elec       q    Type
REMARK                         _______ _______ _______ _____ _____    ______ ____
ROOT
ATOM      1  P   UNL     1       2.746   5.311  18.811  0.00  0.00    +0.000 P 
ATOM      2  S   UNL     1       1.435   4.959  17.332  0.00  0.00    +0.000 S 
ENDROOT
BRANCH   1   3
ATOM      3  C   UNL     1       4.579   5.652  18.433  0.00  0.00    +0.000 A 
ATOM      4  C   UNL     1       5.610   5.166  19.310  0.00  0.00    +0.000 A 
ATOM      5  C   UNL     1       6.815   5.670  18.885  0.00  0.00    +0.000 A 
ATOM      6  N   UNL     1       6.555   6.522  17.851  0.00  0.00    +0.000 N 
ATOM      7  C   UNL     1       7.519   7.450  17.304  0.00  0.00    +0.000 C 
ATOM      8  C   UNL     1       5.220   6.462  17.514  0.00  0.00    +0.000 A 
ENDBRANCH   1   3
BRANCH   1  13
ATOM      9  N   UNL     1       1.825   8.028  19.716  0.00  0.00    +0.000 N 
ATOM     10  C   UNL     1       1.705   9.219  19.033  0.00  0.00    +0.000 A 
ATOM     11  C   UNL     1       2.189   9.012  17.770  0.00  0.00    +0.000 A 
ATOM     12  N   UNL     1       2.588   7.719  17.613  0.00  0.00    +0.000 NA
ATOM     13  C   UNL     1       2.364   7.101  18.775  0.00  0.00    +0.000 A 
BRANCH   9  15
ATOM     14  C   UNL     1       1.096   8.732  21.972  0.00  0.00    +0.000 C 
ATOM     15  C   UNL     1       1.453   7.818  21.057  0.00  0.00    +0.000 C 
ENDBRANCH   9  15
ENDBRANCH   1  13
BRANCH   1  16
ATOM     16  C   UNL     1       3.129   3.522  18.848  0.00  0.00    +0.000 A 
ATOM     17  N   UNL     1       3.538   2.915  17.736  0.00  0.00    +0.000 NA
ATOM     18  C   UNL     1       3.812   1.622  18.083  0.00  0.00    +0.000 A 
ATOM     19  C   UNL     1       3.523   1.393  19.402  0.00  0.00    +0.000 A 
ATOM     20  N   UNL     1       3.093   2.591  19.927  0.00  0.00    +0.000 N 
BRANCH  20  21
ATOM     21  C   UNL     1       2.709   2.836  21.259  0.00  0.00    +0.000 C 
ATOM     22  C   UNL     1       1.515   2.619  21.831  0.00  0.00    +0.000 C 
ENDBRANCH  20  21
ENDBRANCH   1  16
TORSDOF 5
ENDMDL
MODEL 4
REMARK VINA RESULT:      -5.1      5.458      8.761
REMARK  Name = 
REMARK  6 active torsions:
REMARK  status: ('A' for Active; 'I' for Inactive)
REMARK    1  A    between atoms: C_2  and  N_3
REMARK    2  A    between atoms: C_7  and  P_8
REMARK    3  A    between atoms: P_8  and  C_10
REMARK    4  A    between atoms: P_8  and  C_16
REMARK    5  A    between atoms: N_13  and  C_14
REMARK    6  A    between atoms: N_20  and  C_21
REMARK                            x       y       z     vdW  Elec       q    Type
REMARK                         _______ _______ _______ _____ _____    ______ ____
ROOT
ATOM      1  P   UNL     1       4.363   4.274  19.456  0.00  0.00    +0.000 P 
ATOM      2  S   UNL     1       4.427   3.010  17.898  0.00  0.00    +0.000 S 
ENDROOT
BRANCH   1   3
ATOM      3  C   UNL     1       3.470   5.948  19.322  0.00  0.00    +0.000 A 
ATOM      4  C   UNL     1       2.514   6.349  20.319  0.00  0.00    +0.000 A 
ATOM      5  C   UNL     1       1.922   7.518  19.907  0.00  0.00    +0.000 A 
ATOM      6  N   UNL     1       2.399   7.795  18.659  0.00  0.00    +0.000 N 
ATOM      7  C   UNL     1       1.831   8.789  17.776  0.00  0.00    +0.000 C 
ATOM      8  C   UNL     1       3.393   6.901  18.324  0.00  0.00    +0.000 A 
ENDBRANCH   1   3
BRANCH   1  13
ATOM      9  N   UNL     1       1.596   3.097  19.522  0.00  0.00    +0.000 N 
ATOM     10  C   UNL     1       0.843   2.608  20.567  0.00  0.00    +0.000 A 
ATOM     11  C   UNL     1       1.629   2.651  21.686  0.00  0.00    +0.000 A 
ATOM     12  N   UNL     1       2.850   3.180  21.397  0.00  0.00    +0.000 NA
ATOM     13  C   UNL     1       2.848   3.470  20.095  0.00  0.00    +0.000 A 
BRANCH   9  15
ATOM     14  C   UNL     1       1.077   4.314  17.432  0.00  0.00    +0.000 C 
ATOM     15  C   UNL     1       1.161   3.208  18.188  0.00  0.00    +0.000 C 
ENDBRANCH   9  15
ENDBRANCH   1  13
BRANCH   1  16
ATOM     16  C   UNL     1       5.878   5.078  18.818  0.00  0.00    +0.000 A 
ATOM     17  N   UNL     1       6.850   5.411  19.664  0.00  0.00    +0.000 NA
ATOM     18  C   UNL     1       7.866   5.918  18.903  0.00  0.00    +0.000 A 
ATOM     19  C   UNL     1       7.517   5.959  17.579  0.00  0.00    +0.000 A 
ATOM     20  N   UNL     1       6.254   5.419  17.486  0.00  0.00    +0.000 N 
BRANCH  20  21
ATOM     21  C   UNL     1       5.502   5.235  16.310  0.00  0.00    +0.000 C 
ATOM     22  C   UNL     1       5.926   5.294  15.038  0.00  0.00    +0.000 C 
ENDBRANCH  20  21
ENDBRANCH   1  16
TORSDOF 5
ENDMDL
MODEL 5
REMARK VINA RESULT:      -4.9      6.249      9.715
REMARK  Name = 
REMARK  6 active torsions:
REMARK  status: ('A' for Active; 'I' for Inactive)
REMARK    1  A    between atoms: C_2  and  N_3
REMARK    2  A    between atoms: C_7  and  P_8
REMARK    3  A    between atoms: P_8  and  C_10
REMARK    4  A    between atoms: P_8  and  C_16
REMARK    5  A    between atoms: N_13  and  C_14
REMARK    6  A    between atoms: N_20  and  C_21
REMARK                            x       y       z     vdW  Elec       q    Type
REMARK                         _______ _______ _______ _____ _____    ______ ____
ROOT
ATOM      1  P   UNL     1       5.281   5.144  16.260  0.00  0.00    +0.000 P 
ATOM      2  S   UNL     1       5.247   3.155  16.533  0.00  0.00    +0.000 S 
ENDROOT
BRANCH   1   3
ATOM      3  C   UNL     1       6.630   6.218  17.061  0.00  0.00    +0.000 A 
ATOM      4  C   UNL     1       7.325   5.765  18.237  0.00  0.00    +0.000 A 
ATOM      5  C   UNL     1       8.133   6.783  18.683  0.00  0.00    +0.000 A 
ATOM      6  N   UNL     1       7.888   7.869  17.893  0.00  0.00    +0.000 N 
ATOM      7  C   UNL     1       8.338   9.209  18.197  0.00  0.00    +0.000 C 
ATOM      8  C   UNL     1       7.043   7.522  16.862  0.00  0.00    +0.000 A 
ENDBRANCH   1   3
BRANCH   1  13
ATOM      9  N   UNL     1       6.073   4.311  13.480  0.00  0.00    +0.000 N 
ATOM     10  C   UNL     1       7.255   4.466  12.790  0.00  0.00    +0.000 A 
ATOM     11  C   UNL     1       8.093   5.202  13.582  0.00  0.00    +0.000 A 
ATOM     12  N   UNL     1       7.497   5.497  14.770  0.00  0.00    +0.000 NA
ATOM     13  C   UNL     1       6.277   4.956  14.737  0.00  0.00    +0.000 A 
BRANCH   9  15
ATOM     14  C   UNL     1       4.644   3.278  11.745  0.00  0.00    +0.000 C 
ATOM     15  C   UNL     1       4.938   3.626  13.008  0.00  0.00    +0.000 C 
ENDBRANCH   9  15
ENDBRANCH   1  13
BRANCH   1  16
ATOM     16  C   UNL     1       4.284   5.332  17.784  0.00  0.00    +0.000 A 
ATOM     17  N   UNL     1       4.276   4.356  18.688  0.00  0.00    +0.000 NA
ATOM     18  C   UNL     1       3.516   4.804  19.731  0.00  0.00    +0.000 A 
ATOM     19  C   UNL     1       2.994   6.042  19.465  0.00  0.00    +0.000 A 
ATOM     20  N   UNL     1       3.473   6.417  18.230  0.00  0.00    +0.000 N 
BRANCH  20  21
ATOM     21  C   UNL     1       3.218   7.629  17.561  0.00  0.00    +0.000 C 
ATOM     22  C   UNL     1       2.352   8.596  17.901  0.00  0.00    +0.000 C 
ENDBRANCH  20  21
ENDBRANCH   1  16
TORSDOF 5
ENDMDL
MODEL 6
REMARK VINA RESULT:      -4.9      5.953      9.198
REMARK  Name = 
REMARK  6 active torsions:
REMARK  status: ('A' for Active; 'I' for Inactive)
REMARK    1  A    between atoms: C_2  and  N_3
REMARK    2  A    between atoms: C_7  and  P_8
REMARK    3  A    between atoms: P_8  and  C_10
REMARK    4  A    between atoms: P_8  and  C_16
REMARK    5  A    between atoms: N_13  and  C_14
REMARK    6  A    between atoms: N_20  and  C_21
REMARK                            x       y       z     vdW  Elec       q    Type
REMARK                         _______ _______ _______ _____ _____    ______ ____
ROOT
ATOM      1  P   UNL     1       4.350   3.580  18.584  0.00  0.00    +0.000 P 
ATOM      2  S   UNL     1       3.595   2.286  17.248  0.00  0.00    +0.000 S 
ENDROOT
BRANCH   1   3
ATOM      3  C   UNL     1       3.713   5.370  18.680  0.00  0.00    +0.000 A 
ATOM      4  C   UNL     1       3.021   5.838  19.851  0.00  0.00    +0.000 A 
ATOM      5  C   UNL     1       2.551   7.105  19.600  0.00  0.00    +0.000 A 
ATOM      6  N   UNL     1       2.837   7.390  18.296  0.00  0.00    +0.000 N 
ATOM      7  C   UNL     1       2.280   8.511  17.572  0.00  0.00    +0.000 C 
ATOM      8  C   UNL     1       3.607   6.386  17.750  0.00  0.00    +0.000 A 
ENDBRANCH   1   3
BRANCH   1  13
ATOM      9  N   UNL     1       1.730   2.831  19.859  0.00  0.00    +0.000 N 
ATOM     10  C   UNL     1       1.415   2.506  21.159  0.00  0.00    +0.000 A 
ATOM     11  C   UNL     1       2.586   2.480  21.865  0.00  0.00    +0.000 A 
ATOM     12  N   UNL     1       3.638   2.808  21.065  0.00  0.00    +0.000 NA
ATOM     13  C   UNL     1       3.141   3.039  19.848  0.00  0.00    +0.000 A 
BRANCH   9  15
ATOM     14  C   UNL     1       0.748   3.894  17.852  0.00  0.00    +0.000 C 
ATOM     15  C   UNL     1       0.807   2.948  18.802  0.00  0.00    +0.000 C 
ENDBRANCH   9  15
ENDBRANCH   1  13
BRANCH   1  16
ATOM     16  C   UNL     1       5.559   4.121  17.321  0.00  0.00    +0.000 A 
ATOM     17  N   UNL     1       5.324   3.865  16.036  0.00  0.00    +0.000 NA
ATOM     18  C   UNL     1       6.347   4.443  15.337  0.00  0.00    +0.000 A 
ATOM     19  C   UNL     1       7.260   5.016  16.181  0.00  0.00    +0.000 A 
ATOM     20  N   UNL     1       6.782   4.839  17.460  0.00  0.00    +0.000 N 
BRANCH  20  21
ATOM     21  C   UNL     1       7.382   5.288  18.652  0.00  0.00    +0.000 C 
ATOM     22  C   UNL     1       7.937   6.485  18.901  0.00  0.00    +0.000 C 
ENDBRANCH  20  21
ENDBRANCH   1  16
TORSDOF 5
ENDMDL
MODEL 7
REMARK VINA RESULT:      -4.9      5.357      8.676
REMARK  Name = 
REMARK  6 active torsions:
REMARK  status: ('A' for Active; 'I' for Inactive)
REMARK    1  A    between atoms: C_2  and  N_3
REMARK    2  A    between atoms: C_7  and  P_8
REMARK    3  A    between atoms: P_8  and  C_10
REMARK    4  A    between atoms: P_8  and  C_16
REMARK    5  A    between atoms: N_13  and  C_14
REMARK    6  A    between atoms: N_20  and  C_21
REMARK                            x       y       z     vdW  Elec       q    Type
REMARK                         _______ _______ _______ _____ _____    ______ ____
ROOT
ATOM      1  P   UNL     1       3.826   4.244  18.325  0.00  0.00    +0.000 P 
ATOM      2  S   UNL     1       3.096   3.138  16.817  0.00  0.00    +0.000 S 
ENDROOT
BRANCH   1   3
ATOM      3  C   UNL     1       3.239   6.032  18.601  0.00  0.00    +0.000 A 
ATOM      4  C   UNL     1       2.620   6.416  19.841  0.00  0.00    +0.000 A 
ATOM      5  C   UNL     1       2.169   7.708  19.719  0.00  0.00    +0.000 A 
ATOM      6  N   UNL     1       2.394   8.094  18.430  0.00  0.00    +0.000 N 
ATOM      7  C   UNL     1       1.829   9.282  17.830  0.00  0.00    +0.000 C 
ATOM      8  C   UNL     1       3.111   7.124  17.764  0.00  0.00    +0.000 A 
ENDBRANCH   1   3
BRANCH   1  13
ATOM      9  N   UNL     1       2.564   2.786  20.634  0.00  0.00    +0.000 N 
ATOM     10  C   UNL     1       1.243   2.598  20.974  0.00  0.00    +0.000 A 
ATOM     11  C   UNL     1       0.490   3.305  20.077  0.00  0.00    +0.000 A 
ATOM     12  N   UNL     1       1.285   3.916  19.156  0.00  0.00    +0.000 NA
ATOM     13  C   UNL     1       2.545   3.604  19.465  0.00  0.00    +0.000 A 
BRANCH   9  15
ATOM     14  C   UNL     1       4.736   1.614  20.802  0.00  0.00    +0.000 C 
ATOM     15  C   UNL     1       3.666   2.239  21.318  0.00  0.00    +0.000 C 
ENDBRANCH   9  15
ENDBRANCH   1  13
BRANCH   1  16
ATOM     16  C   UNL     1       5.108   4.883  17.186  0.00  0.00    +0.000 A 
ATOM     17  N   UNL     1       4.953   4.733  15.873  0.00  0.00    +0.000 NA
ATOM     18  C   UNL     1       6.014   5.364  15.286  0.00  0.00    +0.000 A 
ATOM     19  C   UNL     1       6.872   5.865  16.227  0.00  0.00    +0.000 A 
ATOM     20  N   UNL     1       6.319   5.585  17.457  0.00  0.00    +0.000 N 
BRANCH  20  21
ATOM     21  C   UNL     1       6.844   5.935  18.715  0.00  0.00    +0.000 C 
ATOM     22  C   UNL     1       8.096   5.763  19.167  0.00  0.00    +0.000 C 
ENDBRANCH  20  21
ENDBRANCH   1  16
TORSDOF 5
ENDMDL
MODEL 8
REMARK VINA RESULT:      -4.8      5.367      8.671
REMARK  Name = 
REMARK  6 active torsions:
REMARK  status: ('A' for Active; 'I' for Inactive)
REMARK    1  A    between atoms: C_2  and  N_3
REMARK    2  A    between atoms: C_7  and  P_8
REMARK    3  A    between atoms: P_8  and  C_10
REMARK    4  A    between atoms: P_8  and  C_16
REMARK    5  A    between atoms: N_13  and  C_14
REMARK    6  A    between atoms: N_20  and  C_21
REMARK                            x       y       z     vdW  Elec       q    Type
REMARK                         _______ _______ _______ _____ _____    ______ ____
ROOT
ATOM      1  P   UNL     1       3.903   4.380  18.248  0.00  0.00    +0.000 P 
ATOM      2  S   UNL     1       4.822   3.320  19.684  0.00  0.00    +0.000 S 
ENDROOT
BRANCH   1   3
ATOM      3  C   UNL     1       2.968   5.983  18.663  0.00  0.00    +0.000 A 
ATOM      4  C   UNL     1       3.034   7.118  17.781  0.00  0.00    +0.000 A 
ATOM      5  C   UNL     1       2.395   8.174  18.384  0.00  0.00    +0.000 A 
ATOM      6  N   UNL     1       2.029   7.765  19.634  0.00  0.00    +0.000 N 
ATOM      7  C   UNL     1       1.570   8.656  20.675  0.00  0.00    +0.000 C 
ATOM      8  C   UNL     1       2.297   6.422  19.789  0.00  0.00    +0.000 A 
ENDBRANCH   1   3
BRANCH   1  13
ATOM      9  N   UNL     1       6.080   5.784  16.719  0.00  0.00    +0.000 N 
ATOM     10  C   UNL     1       7.263   6.349  17.140  0.00  0.00    +0.000 A 
ATOM     11  C   UNL     1       7.294   6.257  18.504  0.00  0.00    +0.000 A 
ATOM     12  N   UNL     1       6.182   5.624  18.969  0.00  0.00    +0.000 NA
ATOM     13  C   UNL     1       5.438   5.316  17.904  0.00  0.00    +0.000 A 
BRANCH   9  15
ATOM     14  C   UNL     1       5.531   4.589  14.624  0.00  0.00    +0.000 C 
ATOM     15  C   UNL     1       5.653   5.691  15.381  0.00  0.00    +0.000 C 
ENDBRANCH   9  15
ENDBRANCH   1  13
BRANCH   1  16
ATOM     16  C   UNL     1       2.368   3.444  18.592  0.00  0.00    +0.000 A 
ATOM     17  N   UNL     1       1.635   2.992  17.577  0.00  0.00    +0.000 NA
ATOM     18  C   UNL     1       0.608   2.282  18.133  0.00  0.00    +0.000 A 
ATOM     19  C   UNL     1       0.656   2.331  19.500  0.00  0.00    +0.000 A 
ATOM     20  N   UNL     1       1.778   3.059  19.830  0.00  0.00    +0.000 N 
BRANCH  20  21
ATOM     21  C   UNL     1       2.241   3.347  21.128  0.00  0.00    +0.000 C 
ATOM     22  C   UNL     1       1.938   2.720  22.275  0.00  0.00    +0.000 C 
ENDBRANCH  20  21
ENDBRANCH   1  16
TORSDOF 5
ENDMDL
MODEL 9
REMARK VINA RESULT:      -4.8      5.536      8.748
REMARK  Name = 
REMARK  6 active torsions:
REMARK  status: ('A' for Active; 'I' for Inactive)
REMARK    1  A    between atoms: C_2  and  N_3
REMARK    2  A    between atoms: C_7  and  P_8
REMARK    3  A    between atoms: P_8  and  C_10
REMARK    4  A    between atoms: P_8  and  C_16
REMARK    5  A    between atoms: N_13  and  C_14
REMARK    6  A    between atoms: N_20  and  C_21
REMARK                            x       y       z     vdW  Elec       q    Type
REMARK                         _______ _______ _______ _____ _____    ______ ____
ROOT
ATOM      1  P   UNL     1       3.991   3.819  18.031  0.00  0.00    +0.000 P 
ATOM      2  S   UNL     1       4.775   3.253  19.790  0.00  0.00    +0.000 S 
ENDROOT
BRANCH   1   3
ATOM      3  C   UNL     1       3.408   5.608  17.750  0.00  0.00    +0.000 A 
ATOM      4  C   UNL     1       4.361   6.679  17.631  0.00  0.00    +0.000 A 
ATOM      5  C   UNL     1       3.675   7.867  17.580  0.00  0.00    +0.000 A 
ATOM      6  N   UNL     1       2.353   7.579  17.762  0.00  0.00    +0.000 N 
ATOM      7  C   UNL     1       1.338   8.571  18.036  0.00  0.00    +0.000 C 
ATOM      8  C   UNL     1       2.167   6.214  17.788  0.00  0.00    +0.000 A 
ENDBRANCH   1   3
BRANCH   1  13
ATOM      9  N   UNL     1       6.208   4.344  16.066  0.00  0.00    +0.000 N 
ATOM     10  C   UNL     1       7.552   4.572  16.256  0.00  0.00    +0.000 A 
ATOM     11  C   UNL     1       7.768   4.619  17.606  0.00  0.00    +0.000 A 
ATOM     12  N   UNL     1       6.610   4.398  18.287  0.00  0.00    +0.000 NA
ATOM     13  C   UNL     1       5.653   4.215  17.374  0.00  0.00    +0.000 A 
BRANCH   9  15
ATOM     14  C   UNL     1       6.113   3.937  13.628  0.00  0.00    +0.000 C 
ATOM     15  C   UNL     1       5.568   4.241  14.816  0.00  0.00    +0.000 C 
ENDBRANCH   9  15
ENDBRANCH   1  13
BRANCH   1  16
ATOM     16  C   UNL     1       2.329   3.424  18.687  0.00  0.00    +0.000 A 
ATOM     17  N   UNL     1       1.541   2.587  18.015  0.00  0.00    +0.000 NA
ATOM     18  C   UNL     1       0.414   2.430  18.772  0.00  0.00    +0.000 A 
ATOM     19  C   UNL     1       0.461   3.212  19.896  0.00  0.00    +0.000 A 
ATOM     20  N   UNL     1       1.679   3.855  19.879  0.00  0.00    +0.000 N 
BRANCH  20  21
ATOM     21  C   UNL     1       2.173   4.744  20.853  0.00  0.00    +0.000 C 
ATOM     22  C   UNL     1       1.802   6.014  21.080  0.00  0.00    +0.000 C 
ENDBRANCH  20  21
ENDBRANCH   1  16
TORSDOF 5
ENDMDL
