MODEL 1
REMARK VINA RESULT:      -8.2      0.000      0.000
REMARK  Name = 
REMARK  9 active torsions:
REMARK  status: ('A' for Active; 'I' for Inactive)
REMARK    1  A    between atoms: C_1  and  O_2
REMARK    2  A    between atoms: O_2  and  C_3
REMARK    3  A    between atoms: C_5  and  C_6
REMARK    4  A    between atoms: N_8  and  C_9
REMARK    5  A    between atoms: N_8  and  S_16
REMARK    6  A    between atoms: C_9  and  C_10
REMARK    7  A    between atoms: S_16  and  C_19
REMARK    8  A    between atoms: C_26  and  O_27
REMARK    9  A    between atoms: O_27  and  C_28
REMARK                            x       y       z     vdW  Elec       q    Type
REMARK                         _______ _______ _______ _____ _____    ______ ____
ROOT
ATOM      1  C   UNL     1       3.947   6.367  17.914  0.00  0.00    +0.000 C 
ATOM      2  O   UNL     1       5.093   6.802  17.980  0.00  0.00    +0.000 OA
ATOM      3  N   UNL     1       3.694   5.026  17.452  0.00  0.00    +0.000 N 
ENDROOT
BRANCH   1   6
ATOM      4  C   UNL     1       1.534   8.288  20.162  0.00  0.00    +0.000 A 
ATOM      5  C   UNL     1       2.367   7.256  19.709  0.00  0.00    +0.000 A 
ATOM      6  C   UNL     1       2.858   7.263  18.403  0.00  0.00    +0.000 A 
ATOM      7  C   UNL     1       2.302   8.178  17.492  0.00  0.00    +0.000 A 
ATOM      8  C   UNL     1       1.482   9.218  17.941  0.00  0.00    +0.000 A 
ATOM      9  C   UNL     1       1.210   9.337  19.300  0.00  0.00    +0.000 A 
BRANCH   4  11
ATOM     10  C   UNL     1      -0.242   8.269  21.723  0.00  0.00    +0.000 C 
ATOM     11  O   UNL     1       1.167   8.222  21.479  0.00  0.00    +0.000 OA
ENDBRANCH   4  11
BRANCH   9  12
ATOM     12  O   UNL     1       0.631  10.500  19.735  0.00  0.00    +0.000 OA
BRANCH  12  13
ATOM     13  C   UNL     1      -0.481  10.828  18.899  0.00  0.00    +0.000 C 
ATOM     14  F   UNL     1      -1.454   9.903  19.098  0.00  0.00    +0.000 F 
ATOM     15  F   UNL     1      -0.986  12.012  19.329  0.00  0.00    +0.000 F 
ENDBRANCH  12  13
ENDBRANCH   9  12
ENDBRANCH   1   6
BRANCH   3  16
ATOM     16  S   UNL     1       2.268   4.127  17.682  0.00  0.00    +0.000 S 
ATOM     17  O   UNL     1       1.128   4.990  17.460  0.00  0.00    +0.000 OA
ATOM     18  O   UNL     1       2.360   2.855  16.997  0.00  0.00    +0.000 OA
BRANCH  16  19
ATOM     19  C   UNL     1       2.122   3.647  19.397  0.00  0.00    +0.000 A 
ATOM     20  C   UNL     1       1.078   3.769  20.294  0.00  0.00    +0.000 A 
ATOM     21  C   UNL     1       1.344   3.109  21.526  0.00  0.00    +0.000 A 
ATOM     22  C   UNL     1       2.600   2.547  21.547  0.00  0.00    +0.000 A 
ATOM     23  S   UNL     1       3.448   2.814  20.083  0.00  0.00    +0.000 S 
ENDBRANCH  16  19
ENDBRANCH   3  16
BRANCH   3  24
ATOM     24  C   UNL     1       4.872   4.132  17.176  0.00  0.00    +0.000 C 
BRANCH  24  25
ATOM     25  C   UNL     1       5.575   4.329  15.845  0.00  0.00    +0.000 A 
ATOM     26  C   UNL     1       6.838   4.928  15.762  0.00  0.00    +0.000 A 
ATOM     27  C   UNL     1       7.518   4.983  14.536  0.00  0.00    +0.000 A 
ATOM     28  C   UNL     1       6.960   4.436  13.383  0.00  0.00    +0.000 A 
ATOM     29  C   UNL     1       5.697   3.857  13.449  0.00  0.00    +0.000 A 
ATOM     30  C   UNL     1       5.013   3.801  14.668  0.00  0.00    +0.000 A 
ENDBRANCH  24  25
ENDBRANCH   3  24
TORSDOF 8
ENDMDL
MODEL 2
REMARK VINA RESULT:      -8.0      0.530      1.089
REMARK  Name = 
REMARK  9 active torsions:
REMARK  status: ('A' for Active; 'I' for Inactive)
REMARK    1  A    between atoms: C_1  and  O_2
REMARK    2  A    between atoms: O_2  and  C_3
REMARK    3  A    between atoms: C_5  and  C_6
REMARK    4  A    between atoms: N_8  and  C_9
REMARK    5  A    between atoms: N_8  and  S_16
REMARK    6  A    between atoms: C_9  and  C_10
REMARK    7  A    between atoms: S_16  and  C_19
REMARK    8  A    between atoms: C_26  and  O_27
REMARK    9  A    between atoms: O_27  and  C_28
REMARK                            x       y       z     vdW  Elec       q    Type
REMARK                         _______ _______ _______ _____ _____    ______ ____
ROOT
ATOM      1  C   UNL     1       4.015   6.236  17.979  0.00  0.00    +0.000 C 
ATOM      2  O   UNL     1       5.158   6.673  18.086  0.00  0.00    +0.000 OA
ATOM      3  N   UNL     1       3.782   4.890  17.522  0.00  0.00    +0.000 N 
ENDROOT
BRANCH   1   6
ATOM      4  C   UNL     1       1.493   8.156  20.104  0.00  0.00    +0.000 A 
ATOM      5  C   UNL     1       2.342   7.121  19.690  0.00  0.00    +0.000 A 
ATOM      6  C   UNL     1       2.907   7.138  18.414  0.00  0.00    +0.000 A 
ATOM      7  C   UNL     1       2.411   8.066  17.482  0.00  0.00    +0.000 A 
ATOM      8  C   UNL     1       1.575   9.109  17.893  0.00  0.00    +0.000 A 
ATOM      9  C   UNL     1       1.227   9.217  19.236  0.00  0.00    +0.000 A 
BRANCH   4  11
ATOM     10  C   UNL     1       1.537   9.105  22.270  0.00  0.00    +0.000 C 
ATOM     11  O   UNL     1       1.050   8.081  21.398  0.00  0.00    +0.000 OA
ENDBRANCH   4  11
BRANCH   9  12
ATOM     12  O   UNL     1       0.634  10.380  19.649  0.00  0.00    +0.000 OA
BRANCH  12  13
ATOM     13  C   UNL     1      -0.787  10.262  19.539  0.00  0.00    +0.000 C 
ATOM     14  F   UNL     1      -1.356  11.264  20.255  0.00  0.00    +0.000 F 
ATOM     15  F   UNL     1      -1.120  10.483  18.242  0.00  0.00    +0.000 F 
ENDBRANCH  12  13
ENDBRANCH   9  12
ENDBRANCH   1   6
BRANCH   3  16
ATOM     16  S   UNL     1       2.347   3.993  17.703  0.00  0.00    +0.000 S 
ATOM     17  O   UNL     1       1.217   4.850  17.417  0.00  0.00    +0.000 OA
ATOM     18  O   UNL     1       2.471   2.711  17.043  0.00  0.00    +0.000 OA
BRANCH  16  19
ATOM     19  C   UNL     1       2.126   3.541  19.417  0.00  0.00    +0.000 A 
ATOM     20  C   UNL     1       1.038   3.661  20.261  0.00  0.00    +0.000 A 
ATOM     21  C   UNL     1       1.254   3.028  21.516  0.00  0.00    +0.000 A 
ATOM     22  C   UNL     1       2.517   2.488  21.608  0.00  0.00    +0.000 A 
ATOM     23  S   UNL     1       3.430   2.743  20.181  0.00  0.00    +0.000 S 
ENDBRANCH  16  19
ENDBRANCH   3  16
BRANCH   3  24
ATOM     24  C   UNL     1       4.969   3.994  17.303  0.00  0.00    +0.000 C 
BRANCH  24  25
ATOM     25  C   UNL     1       5.679   4.124  15.967  0.00  0.00    +0.000 A 
ATOM     26  C   UNL     1       5.079   3.712  14.771  0.00  0.00    +0.000 A 
ATOM     27  C   UNL     1       5.705   3.958  13.540  0.00  0.00    +0.000 A 
ATOM     28  C   UNL     1       6.926   4.626  13.481  0.00  0.00    +0.000 A 
ATOM     29  C   UNL     1       7.543   5.022  14.663  0.00  0.00    +0.000 A 
ATOM     30  C   UNL     1       6.924   4.777  15.893  0.00  0.00    +0.000 A 
ENDBRANCH  24  25
ENDBRANCH   3  24
TORSDOF 8
ENDMDL
MODEL 3
REMARK VINA RESULT:      -7.4      0.778      1.038
REMARK  Name = 
REMARK  9 active torsions:
REMARK  status: ('A' for Active; 'I' for Inactive)
REMARK    1  A    between atoms: C_1  and  O_2
REMARK    2  A    between atoms: O_2  and  C_3
REMARK    3  A    between atoms: C_5  and  C_6
REMARK    4  A    between atoms: N_8  and  C_9
REMARK    5  A    between atoms: N_8  and  S_16
REMARK    6  A    between atoms: C_9  and  C_10
REMARK    7  A    between atoms: S_16  and  C_19
REMARK    8  A    between atoms: C_26  and  O_27
REMARK    9  A    between atoms: O_27  and  C_28
REMARK                            x       y       z     vdW  Elec       q    Type
REMARK                         _______ _______ _______ _____ _____    ______ ____
ROOT
ATOM      1  C   UNL     1       4.021   6.464  17.932  0.00  0.00    +0.000 C 
ATOM      2  O   UNL     1       5.159   6.915  18.025  0.00  0.00    +0.000 OA
ATOM      3  N   UNL     1       3.798   5.122  17.460  0.00  0.00    +0.000 N 
ENDROOT
BRANCH   1   6
ATOM      4  C   UNL     1       1.478   8.278  20.126  0.00  0.00    +0.000 A 
ATOM      5  C   UNL     1       2.332   7.264  19.669  0.00  0.00    +0.000 A 
ATOM      6  C   UNL     1       2.908   7.343  18.401  0.00  0.00    +0.000 A 
ATOM      7  C   UNL     1       2.421   8.316  17.511  0.00  0.00    +0.000 A 
ATOM      8  C   UNL     1       1.581   9.338  17.965  0.00  0.00    +0.000 A 
ATOM      9  C   UNL     1       1.221   9.380  19.307  0.00  0.00    +0.000 A 
BRANCH   4  11
ATOM     10  C   UNL     1       1.513   9.110  22.338  0.00  0.00    +0.000 C 
ATOM     11  O   UNL     1       1.023   8.139  21.409  0.00  0.00    +0.000 OA
ENDBRANCH   4  11
BRANCH   9  12
ATOM     12  O   UNL     1       0.623  10.522  19.772  0.00  0.00    +0.000 OA
BRANCH  12  13
ATOM     13  C   UNL     1      -0.743  10.556  19.352  0.00  0.00    +0.000 C 
ATOM     14  F   UNL     1      -0.787  11.022  18.078  0.00  0.00    +0.000 F 
ATOM     15  F   UNL     1      -1.193   9.276  19.306  0.00  0.00    +0.000 F 
ENDBRANCH  12  13
ENDBRANCH   9  12
ENDBRANCH   1   6
BRANCH   3  16
ATOM     16  S   UNL     1       2.380   4.202  17.654  0.00  0.00    +0.000 S 
ATOM     17  O   UNL     1       1.234   5.083  17.589  0.00  0.00    +0.000 OA
ATOM     18  O   UNL     1       2.432   3.017  16.824  0.00  0.00    +0.000 OA
BRANCH  16  19
ATOM     19  C   UNL     1       2.315   3.528  19.308  0.00  0.00    +0.000 A 
ATOM     20  C   UNL     1       3.256   2.842  20.052  0.00  0.00    +0.000 A 
ATOM     21  C   UNL     1       2.831   2.622  21.392  0.00  0.00    +0.000 A 
ATOM     22  C   UNL     1       1.560   3.102  21.613  0.00  0.00    +0.000 A 
ATOM     23  S   UNL     1       0.892   3.820  20.208  0.00  0.00    +0.000 S 
ENDBRANCH  16  19
ENDBRANCH   3  16
BRANCH   3  24
ATOM     24  C   UNL     1       4.994   4.246  17.206  0.00  0.00    +0.000 C 
BRANCH  24  25
ATOM     25  C   UNL     1       5.680   4.408  15.861  0.00  0.00    +0.000 A 
ATOM     26  C   UNL     1       6.925   5.036  15.741  0.00  0.00    +0.000 A 
ATOM     27  C   UNL     1       7.592   5.060  14.507  0.00  0.00    +0.000 A 
ATOM     28  C   UNL     1       7.039   4.451  13.384  0.00  0.00    +0.000 A 
ATOM     29  C   UNL     1       5.793   3.841  13.485  0.00  0.00    +0.000 A 
ATOM     30  C   UNL     1       5.122   3.816  14.712  0.00  0.00    +0.000 A 
ENDBRANCH  24  25
ENDBRANCH   3  24
TORSDOF 8
ENDMDL
MODEL 4
REMARK VINA RESULT:      -7.3      1.060      1.452
REMARK  Name = 
REMARK  9 active torsions:
REMARK  status: ('A' for Active; 'I' for Inactive)
REMARK    1  A    between atoms: C_1  and  O_2
REMARK    2  A    between atoms: O_2  and  C_3
REMARK    3  A    between atoms: C_5  and  C_6
REMARK    4  A    between atoms: N_8  and  C_9
REMARK    5  A    between atoms: N_8  and  S_16
REMARK    6  A    between atoms: C_9  and  C_10
REMARK    7  A    between atoms: S_16  and  C_19
REMARK    8  A    between atoms: C_26  and  O_27
REMARK    9  A    between atoms: O_27  and  C_28
REMARK                            x       y       z     vdW  Elec       q    Type
REMARK                         _______ _______ _______ _____ _____    ______ ____
ROOT
ATOM      1  C   UNL     1       3.958   6.425  17.960  0.00  0.00    +0.000 C 
ATOM      2  O   UNL     1       5.097   6.874  18.058  0.00  0.00    +0.000 OA
ATOM      3  N   UNL     1       3.737   5.065  17.543  0.00  0.00    +0.000 N 
ENDROOT
BRANCH   1   6
ATOM      4  C   UNL     1       1.480   8.467  20.024  0.00  0.00    +0.000 A 
ATOM      5  C   UNL     1       2.345   7.423  19.666  0.00  0.00    +0.000 A 
ATOM      6  C   UNL     1       2.842   7.330  18.366  0.00  0.00    +0.000 A 
ATOM      7  C   UNL     1       2.264   8.145  17.376  0.00  0.00    +0.000 A 
ATOM      8  C   UNL     1       1.413   9.196  17.729  0.00  0.00    +0.000 A 
ATOM      9  C   UNL     1       1.131   9.427  19.072  0.00  0.00    +0.000 A 
BRANCH   4  11
ATOM     10  C   UNL     1      -0.295   8.373  21.583  0.00  0.00    +0.000 C 
ATOM     11  O   UNL     1       1.109   8.507  21.341  0.00  0.00    +0.000 OA
ENDBRANCH   4  11
BRANCH   9  12
ATOM     12  O   UNL     1       0.517  10.606  19.401  0.00  0.00    +0.000 OA
BRANCH  12  13
ATOM     13  C   UNL     1       1.498  11.569  19.789  0.00  0.00    +0.000 C 
ATOM     14  F   UNL     1       2.193  11.941  18.684  0.00  0.00    +0.000 F 
ATOM     15  F   UNL     1       0.842  12.677  20.218  0.00  0.00    +0.000 F 
ENDBRANCH  12  13
ENDBRANCH   9  12
ENDBRANCH   1   6
BRANCH   3  16
ATOM     16  S   UNL     1       2.310   4.162  17.747  0.00  0.00    +0.000 S 
ATOM     17  O   UNL     1       1.171   5.026  17.526  0.00  0.00    +0.000 OA
ATOM     18  O   UNL     1       2.410   2.900  17.045  0.00  0.00    +0.000 OA
BRANCH  16  19
ATOM     19  C   UNL     1       2.148   3.659  19.453  0.00  0.00    +0.000 A 
ATOM     20  C   UNL     1       2.735   4.142  20.608  0.00  0.00    +0.000 A 
ATOM     21  C   UNL     1       2.202   3.537  21.780  0.00  0.00    +0.000 A 
ATOM     22  C   UNL     1       1.262   2.578  21.480  0.00  0.00    +0.000 A 
ATOM     23  S   UNL     1       1.025   2.416  19.791  0.00  0.00    +0.000 S 
ENDBRANCH  16  19
ENDBRANCH   3  16
BRANCH   3  24
ATOM     24  C   UNL     1       4.933   4.173  17.353  0.00  0.00    +0.000 C 
BRANCH  24  25
ATOM     25  C   UNL     1       5.637   4.258  16.010  0.00  0.00    +0.000 A 
ATOM     26  C   UNL     1       5.008   3.861  14.824  0.00  0.00    +0.000 A 
ATOM     27  C   UNL     1       5.634   4.068  13.585  0.00  0.00    +0.000 A 
ATOM     28  C   UNL     1       6.883   4.680  13.509  0.00  0.00    +0.000 A 
ATOM     29  C   UNL     1       7.526   5.060  14.682  0.00  0.00    +0.000 A 
ATOM     30  C   UNL     1       6.908   4.854  15.920  0.00  0.00    +0.000 A 
ENDBRANCH  24  25
ENDBRANCH   3  24
TORSDOF 8
ENDMDL
MODEL 5
REMARK VINA RESULT:      -7.3      1.022      1.057
REMARK  Name = 
REMARK  9 active torsions:
REMARK  status: ('A' for Active; 'I' for Inactive)
REMARK    1  A    between atoms: C_1  and  O_2
REMARK    2  A    between atoms: O_2  and  C_3
REMARK    3  A    between atoms: C_5  and  C_6
REMARK    4  A    between atoms: N_8  and  C_9
REMARK    5  A    between atoms: N_8  and  S_16
REMARK    6  A    between atoms: C_9  and  C_10
REMARK    7  A    between atoms: S_16  and  C_19
REMARK    8  A    between atoms: C_26  and  O_27
REMARK    9  A    between atoms: O_27  and  C_28
REMARK                            x       y       z     vdW  Elec       q    Type
REMARK                         _______ _______ _______ _____ _____    ______ ____
ROOT
ATOM      1  C   UNL     1       3.896   6.628  17.890  0.00  0.00    +0.000 C 
ATOM      2  O   UNL     1       5.014   7.132  17.962  0.00  0.00    +0.000 OA
ATOM      3  N   UNL     1       3.731   5.262  17.464  0.00  0.00    +0.000 N 
ENDROOT
BRANCH   1   6
ATOM      4  C   UNL     1       1.399   8.557  20.037  0.00  0.00    +0.000 A 
ATOM      5  C   UNL     1       2.306   7.559  19.655  0.00  0.00    +0.000 A 
ATOM      6  C   UNL     1       2.748   7.473  18.334  0.00  0.00    +0.000 A 
ATOM      7  C   UNL     1       2.079   8.236  17.361  0.00  0.00    +0.000 A 
ATOM      8  C   UNL     1       1.184   9.242  17.738  0.00  0.00    +0.000 A 
ATOM      9  C   UNL     1       0.951   9.478  19.089  0.00  0.00    +0.000 A 
BRANCH   4  11
ATOM     10  C   UNL     1      -0.297   8.404  21.677  0.00  0.00    +0.000 C 
ATOM     11  O   UNL     1       1.086   8.597  21.369  0.00  0.00    +0.000 OA
ENDBRANCH   4  11
BRANCH   9  12
ATOM     12  O   UNL     1       0.284  10.625  19.430  0.00  0.00    +0.000 OA
BRANCH  12  13
ATOM     13  C   UNL     1       1.218  11.691  19.610  0.00  0.00    +0.000 C 
ATOM     14  F   UNL     1       1.642  11.675  20.899  0.00  0.00    +0.000 F 
ATOM     15  F   UNL     1       2.307  11.419  18.847  0.00  0.00    +0.000 F 
ENDBRANCH  12  13
ENDBRANCH   9  12
ENDBRANCH   1   6
BRANCH   3  16
ATOM     16  S   UNL     1       2.355   4.288  17.697  0.00  0.00    +0.000 S 
ATOM     17  O   UNL     1       1.170   5.093  17.498  0.00  0.00    +0.000 OA
ATOM     18  O   UNL     1       2.506   3.032  16.993  0.00  0.00    +0.000 OA
BRANCH  16  19
ATOM     19  C   UNL     1       2.254   3.779  19.406  0.00  0.00    +0.000 A 
ATOM     20  C   UNL     1       1.337   4.079  20.396  0.00  0.00    +0.000 A 
ATOM     21  C   UNL     1       1.558   3.328  21.584  0.00  0.00    +0.000 A 
ATOM     22  C   UNL     1       2.665   2.517  21.480  0.00  0.00    +0.000 A 
ATOM     23  S   UNL     1       3.425   2.661  19.952  0.00  0.00    +0.000 S 
ENDBRANCH  16  19
ENDBRANCH   3  16
BRANCH   3  24
ATOM     24  C   UNL     1       4.964   4.432  17.234  0.00  0.00    +0.000 C 
BRANCH  24  25
ATOM     25  C   UNL     1       5.592   4.518  15.855  0.00  0.00    +0.000 A 
ATOM     26  C   UNL     1       6.820   5.157  15.644  0.00  0.00    +0.000 A 
ATOM     27  C   UNL     1       7.437   5.112  14.385  0.00  0.00    +0.000 A 
ATOM     28  C   UNL     1       6.849   4.424  13.325  0.00  0.00    +0.000 A 
ATOM     29  C   UNL     1       5.620   3.804  13.516  0.00  0.00    +0.000 A 
ATOM     30  C   UNL     1       4.999   3.847  14.769  0.00  0.00    +0.000 A 
ENDBRANCH  24  25
ENDBRANCH   3  24
TORSDOF 8
ENDMDL
MODEL 6
REMARK VINA RESULT:      -7.3      1.305      2.108
REMARK  Name = 
REMARK  9 active torsions:
REMARK  status: ('A' for Active; 'I' for Inactive)
REMARK    1  A    between atoms: C_1  and  O_2
REMARK    2  A    between atoms: O_2  and  C_3
REMARK    3  A    between atoms: C_5  and  C_6
REMARK    4  A    between atoms: N_8  and  C_9
REMARK    5  A    between atoms: N_8  and  S_16
REMARK    6  A    between atoms: C_9  and  C_10
REMARK    7  A    between atoms: S_16  and  C_19
REMARK    8  A    between atoms: C_26  and  O_27
REMARK    9  A    between atoms: O_27  and  C_28
REMARK                            x       y       z     vdW  Elec       q    Type
REMARK                         _______ _______ _______ _____ _____    ______ ____
ROOT
ATOM      1  C   UNL     1       4.337   5.992  17.884  0.00  0.00    +0.000 C 
ATOM      2  O   UNL     1       5.525   6.305  17.885  0.00  0.00    +0.000 OA
ATOM      3  N   UNL     1       3.906   4.745  17.307  0.00  0.00    +0.000 N 
ENDROOT
BRANCH   1   6
ATOM      4  C   UNL     1       1.805   8.759  18.589  0.00  0.00    +0.000 A 
ATOM      5  C   UNL     1       2.870   8.077  17.985  0.00  0.00    +0.000 A 
ATOM      6  C   UNL     1       3.396   6.925  18.571  0.00  0.00    +0.000 A 
ATOM      7  C   UNL     1       3.008   6.615  19.887  0.00  0.00    +0.000 A 
ATOM      8  C   UNL     1       1.937   7.283  20.488  0.00  0.00    +0.000 A 
ATOM      9  C   UNL     1       1.259   8.268  19.777  0.00  0.00    +0.000 A 
BRANCH   4  11
ATOM     10  C   UNL     1       1.707  11.115  18.404  0.00  0.00    +0.000 C 
ATOM     11  O   UNL     1       1.318   9.835  17.897  0.00  0.00    +0.000 OA
ENDBRANCH   4  11
BRANCH   9  12
ATOM     12  O   UNL     1       0.067   8.713  20.283  0.00  0.00    +0.000 OA
BRANCH  12  13
ATOM     13  C   UNL     1       0.194   8.941  21.688  0.00  0.00    +0.000 C 
ATOM     14  F   UNL     1       0.123  10.277  21.914  0.00  0.00    +0.000 F 
ATOM     15  F   UNL     1      -0.890   8.393  22.294  0.00  0.00    +0.000 F 
ENDBRANCH  12  13
ENDBRANCH   9  12
ENDBRANCH   1   6
BRANCH   3  16
ATOM     16  S   UNL     1       2.417   3.966  17.575  0.00  0.00    +0.000 S 
ATOM     17  O   UNL     1       1.355   4.947  17.512  0.00  0.00    +0.000 OA
ATOM     18  O   UNL     1       2.335   2.755  16.786  0.00  0.00    +0.000 OA
BRANCH  16  19
ATOM     19  C   UNL     1       2.345   3.355  19.253  0.00  0.00    +0.000 A 
ATOM     20  C   UNL     1       3.343   2.977  20.131  0.00  0.00    +0.000 A 
ATOM     21  C   UNL     1       2.841   2.694  21.431  0.00  0.00    +0.000 A 
ATOM     22  C   UNL     1       1.471   2.817  21.491  0.00  0.00    +0.000 A 
ATOM     23  S   UNL     1       0.802   3.278  19.983  0.00  0.00    +0.000 S 
ENDBRANCH  16  19
ENDBRANCH   3  16
BRANCH   3  24
ATOM     24  C   UNL     1       4.954   3.782  16.822  0.00  0.00    +0.000 C 
BRANCH  24  25
ATOM     25  C   UNL     1       5.592   4.092  15.480  0.00  0.00    +0.000 A 
ATOM     26  C   UNL     1       6.826   4.747  15.386  0.00  0.00    +0.000 A 
ATOM     27  C   UNL     1       7.450   4.909  14.140  0.00  0.00    +0.000 A 
ATOM     28  C   UNL     1       6.865   4.412  12.977  0.00  0.00    +0.000 A 
ATOM     29  C   UNL     1       5.631   3.777  13.056  0.00  0.00    +0.000 A 
ATOM     30  C   UNL     1       5.002   3.615  14.295  0.00  0.00    +0.000 A 
ENDBRANCH  24  25
ENDBRANCH   3  24
TORSDOF 8
ENDMDL
MODEL 7
REMARK VINA RESULT:      -7.1      1.910      2.963
REMARK  Name = 
REMARK  9 active torsions:
REMARK  status: ('A' for Active; 'I' for Inactive)
REMARK    1  A    between atoms: C_1  and  O_2
REMARK    2  A    between atoms: O_2  and  C_3
REMARK    3  A    between atoms: C_5  and  C_6
REMARK    4  A    between atoms: N_8  and  C_9
REMARK    5  A    between atoms: N_8  and  S_16
REMARK    6  A    between atoms: C_9  and  C_10
REMARK    7  A    between atoms: S_16  and  C_19
REMARK    8  A    between atoms: C_26  and  O_27
REMARK    9  A    between atoms: O_27  and  C_28
REMARK                            x       y       z     vdW  Elec       q    Type
REMARK                         _______ _______ _______ _____ _____    ______ ____
ROOT
ATOM      1  C   UNL     1       4.757   6.611  16.730  0.00  0.00    +0.000 C 
ATOM      2  O   UNL     1       4.787   7.336  15.739  0.00  0.00    +0.000 OA
ATOM      3  N   UNL     1       5.790   5.634  16.958  0.00  0.00    +0.000 N 
ENDROOT
BRANCH   1   6
ATOM      4  C   UNL     1       2.360   6.291  19.683  0.00  0.00    +0.000 A 
ATOM      5  C   UNL     1       3.218   5.912  18.642  0.00  0.00    +0.000 A 
ATOM      6  C   UNL     1       3.651   6.851  17.705  0.00  0.00    +0.000 A 
ATOM      7  C   UNL     1       3.017   8.105  17.682  0.00  0.00    +0.000 A 
ATOM      8  C   UNL     1       2.171   8.493  18.726  0.00  0.00    +0.000 A 
ATOM      9  C   UNL     1       1.954   7.623  19.788  0.00  0.00    +0.000 A 
BRANCH   4  11
ATOM     10  C   UNL     1       1.013   4.414  20.187  0.00  0.00    +0.000 C 
ATOM     11  O   UNL     1       2.053   5.310  20.588  0.00  0.00    +0.000 OA
ENDBRANCH   4  11
BRANCH   9  12
ATOM     12  O   UNL     1       1.343   8.123  20.908  0.00  0.00    +0.000 OA
BRANCH  12  13
ATOM     13  C   UNL     1       0.733   9.379  20.604  0.00  0.00    +0.000 C 
ATOM     14  F   UNL     1      -0.597   9.281  20.857  0.00  0.00    +0.000 F 
ATOM     15  F   UNL     1       1.221  10.297  21.477  0.00  0.00    +0.000 F 
ENDBRANCH  12  13
ENDBRANCH   9  12
ENDBRANCH   1   6
BRANCH   3  16
ATOM     16  S   UNL     1       6.142   4.857  18.431  0.00  0.00    +0.000 S 
ATOM     17  O   UNL     1       7.428   4.203  18.322  0.00  0.00    +0.000 OA
ATOM     18  O   UNL     1       5.869   5.742  19.543  0.00  0.00    +0.000 OA
BRANCH  16  19
ATOM     19  C   UNL     1       4.994   3.514  18.698  0.00  0.00    +0.000 A 
ATOM     20  C   UNL     1       4.636   2.832  19.846  0.00  0.00    +0.000 A 
ATOM     21  C   UNL     1       3.562   1.926  19.625  0.00  0.00    +0.000 A 
ATOM     22  C   UNL     1       3.168   1.909  18.306  0.00  0.00    +0.000 A 
ATOM     23  S   UNL     1       4.090   2.988  17.347  0.00  0.00    +0.000 S 
ENDBRANCH  16  19
ENDBRANCH   3  16
BRANCH   3  24
ATOM     24  C   UNL     1       6.969   5.609  16.025  0.00  0.00    +0.000 C 
BRANCH  24  25
ATOM     25  C   UNL     1       6.776   4.877  14.709  0.00  0.00    +0.000 A 
ATOM     26  C   UNL     1       5.681   4.033  14.489  0.00  0.00    +0.000 A 
ATOM     27  C   UNL     1       5.461   3.469  13.223  0.00  0.00    +0.000 A 
ATOM     28  C   UNL     1       6.318   3.745  12.160  0.00  0.00    +0.000 A 
ATOM     29  C   UNL     1       7.421   4.565  12.371  0.00  0.00    +0.000 A 
ATOM     30  C   UNL     1       7.646   5.128  13.631  0.00  0.00    +0.000 A 
ENDBRANCH  24  25
ENDBRANCH   3  24
TORSDOF 8
ENDMDL
MODEL 8
REMARK VINA RESULT:      -7.1      1.890      2.819
REMARK  Name = 
REMARK  9 active torsions:
REMARK  status: ('A' for Active; 'I' for Inactive)
REMARK    1  A    between atoms: C_1  and  O_2
REMARK    2  A    between atoms: O_2  and  C_3
REMARK    3  A    between atoms: C_5  and  C_6
REMARK    4  A    between atoms: N_8  and  C_9
REMARK    5  A    between atoms: N_8  and  S_16
REMARK    6  A    between atoms: C_9  and  C_10
REMARK    7  A    between atoms: S_16  and  C_19
REMARK    8  A    between atoms: C_26  and  O_27
REMARK    9  A    between atoms: O_27  and  C_28
REMARK                            x       y       z     vdW  Elec       q    Type
REMARK                         _______ _______ _______ _____ _____    ______ ____
ROOT
ATOM      1  C   UNL     1       4.717   6.672  16.733  0.00  0.00    +0.000 C 
ATOM      2  O   UNL     1       4.819   7.439  15.780  0.00  0.00    +0.000 OA
ATOM      3  N   UNL     1       5.687   5.628  16.944  0.00  0.00    +0.000 N 
ENDROOT
BRANCH   1   6
ATOM      4  C   UNL     1       2.215   6.350  19.597  0.00  0.00    +0.000 A 
ATOM      5  C   UNL     1       3.084   5.972  18.565  0.00  0.00    +0.000 A 
ATOM      6  C   UNL     1       3.596   6.927  17.686  0.00  0.00    +0.000 A 
ATOM      7  C   UNL     1       3.030   8.214  17.702  0.00  0.00    +0.000 A 
ATOM      8  C   UNL     1       2.174   8.600  18.738  0.00  0.00    +0.000 A 
ATOM      9  C   UNL     1       1.877   7.696  19.753  0.00  0.00    +0.000 A 
BRANCH   4  11
ATOM     10  C   UNL     1       1.141   4.256  19.828  0.00  0.00    +0.000 C 
ATOM     11  O   UNL     1       1.828   5.348  20.446  0.00  0.00    +0.000 OA
ENDBRANCH   4  11
BRANCH   9  12
ATOM     12  O   UNL     1       1.258   8.178  20.876  0.00  0.00    +0.000 OA
BRANCH  12  13
ATOM     13  C   UNL     1       0.693   9.462  20.602  0.00  0.00    +0.000 C 
ATOM     14  F   UNL     1      -0.653   9.379  20.761  0.00  0.00    +0.000 F 
ATOM     15  F   UNL     1       1.137  10.321  21.554  0.00  0.00    +0.000 F 
ENDBRANCH  12  13
ENDBRANCH   9  12
ENDBRANCH   1   6
BRANCH   3  16
ATOM     16  S   UNL     1       5.949   4.764  18.387  0.00  0.00    +0.000 S 
ATOM     17  O   UNL     1       7.225   4.087  18.304  0.00  0.00    +0.000 OA
ATOM     18  O   UNL     1       5.640   5.594  19.531  0.00  0.00    +0.000 OA
BRANCH  16  19
ATOM     19  C   UNL     1       4.761   3.437  18.523  0.00  0.00    +0.000 A 
ATOM     20  C   UNL     1       3.989   2.800  17.570  0.00  0.00    +0.000 A 
ATOM     21  C   UNL     1       3.284   1.684  18.101  0.00  0.00    +0.000 A 
ATOM     22  C   UNL     1       3.502   1.535  19.452  0.00  0.00    +0.000 A 
ATOM     23  S   UNL     1       4.556   2.736  20.068  0.00  0.00    +0.000 S 
ENDBRANCH  16  19
ENDBRANCH   3  16
BRANCH   3  24
ATOM     24  C   UNL     1       6.892   5.581  16.045  0.00  0.00    +0.000 C 
BRANCH  24  25
ATOM     25  C   UNL     1       6.684   4.992  14.662  0.00  0.00    +0.000 A 
ATOM     26  C   UNL     1       7.589   5.226  13.619  0.00  0.00    +0.000 A 
ATOM     27  C   UNL     1       7.439   4.569  12.388  0.00  0.00    +0.000 A 
ATOM     28  C   UNL     1       6.400   3.664  12.183  0.00  0.00    +0.000 A 
ATOM     29  C   UNL     1       5.483   3.439  13.204  0.00  0.00    +0.000 A 
ATOM     30  C   UNL     1       5.626   4.093  14.433  0.00  0.00    +0.000 A 
ENDBRANCH  24  25
ENDBRANCH   3  24
TORSDOF 8
ENDMDL
MODEL 9
REMARK VINA RESULT:      -6.5      4.141      8.003
REMARK  Name = 
REMARK  9 active torsions:
REMARK  status: ('A' for Active; 'I' for Inactive)
REMARK    1  A    between atoms: C_1  and  O_2
REMARK    2  A    between atoms: O_2  and  C_3
REMARK    3  A    between atoms: C_5  and  C_6
REMARK    4  A    between atoms: N_8  and  C_9
REMARK    5  A    between atoms: N_8  and  S_16
REMARK    6  A    between atoms: C_9  and  C_10
REMARK    7  A    between atoms: S_16  and  C_19
REMARK    8  A    between atoms: C_26  and  O_27
REMARK    9  A    between atoms: O_27  and  C_28
REMARK                            x       y       z     vdW  Elec       q    Type
REMARK                         _______ _______ _______ _____ _____    ______ ____
ROOT
ATOM      1  C   UNL     1       1.746   9.019  18.366  0.00  0.00    +0.000 C 
ATOM      2  O   UNL     1       1.737   9.262  17.162  0.00  0.00    +0.000 OA
ATOM      3  N   UNL     1       1.113   9.913  19.301  0.00  0.00    +0.000 N 
ENDROOT
BRANCH   1   6
ATOM      4  C   UNL     1       2.325   5.575  19.905  0.00  0.00    +0.000 A 
ATOM      5  C   UNL     1       1.827   6.875  19.747  0.00  0.00    +0.000 A 
ATOM      6  C   UNL     1       2.370   7.729  18.786  0.00  0.00    +0.000 A 
ATOM      7  C   UNL     1       3.574   7.350  18.167  0.00  0.00    +0.000 A 
ATOM      8  C   UNL     1       4.067   6.049  18.310  0.00  0.00    +0.000 A 
ATOM      9  C   UNL     1       3.361   5.131  19.080  0.00  0.00    +0.000 A 
BRANCH   4  11
ATOM     10  C   UNL     1       0.717   3.884  20.283  0.00  0.00    +0.000 C 
ATOM     11  O   UNL     1       1.676   4.797  20.825  0.00  0.00    +0.000 OA
ENDBRANCH   4  11
BRANCH   9  12
ATOM     12  O   UNL     1       3.720   3.812  18.989  0.00  0.00    +0.000 OA
BRANCH  12  13
ATOM     13  C   UNL     1       3.345   3.298  17.709  0.00  0.00    +0.000 C 
ATOM     14  F   UNL     1       4.469   3.140  16.965  0.00  0.00    +0.000 F 
ATOM     15  F   UNL     1       2.835   2.054  17.897  0.00  0.00    +0.000 F 
ENDBRANCH  12  13
ENDBRANCH   9  12
ENDBRANCH   1   6
BRANCH   3  16
ATOM     16  S   UNL     1       0.665   9.552  20.903  0.00  0.00    +0.000 S 
ATOM     17  O   UNL     1      -0.476   8.663  20.883  0.00  0.00    +0.000 OA
ATOM     18  O   UNL     1       1.834   9.215  21.687  0.00  0.00    +0.000 OA
BRANCH  16  19
ATOM     19  C   UNL     1       0.054  11.025  21.708  0.00  0.00    +0.000 A 
ATOM     20  C   UNL     1       0.345  12.361  21.512  0.00  0.00    +0.000 A 
ATOM     21  C   UNL     1      -0.492  13.217  22.280  0.00  0.00    +0.000 A 
ATOM     22  C   UNL     1      -1.362  12.505  23.075  0.00  0.00    +0.000 A 
ATOM     23  S   UNL     1      -1.167  10.814  22.885  0.00  0.00    +0.000 S 
ENDBRANCH  16  19
ENDBRANCH   3  16
BRANCH   3  24
ATOM     24  C   UNL     1       0.335  11.080  18.760  0.00  0.00    +0.000 C 
BRANCH  24  25
ATOM     25  C   UNL     1      -1.122  10.826  18.421  0.00  0.00    +0.000 A 
ATOM     26  C   UNL     1      -2.149  11.626  18.940  0.00  0.00    +0.000 A 
ATOM     27  C   UNL     1      -3.473  11.447  18.512  0.00  0.00    +0.000 A 
ATOM     28  C   UNL     1      -3.792  10.484  17.557  0.00  0.00    +0.000 A 
ATOM     29  C   UNL     1      -2.784   9.670  17.050  0.00  0.00    +0.000 A 
ATOM     30  C   UNL     1      -1.463   9.842  17.474  0.00  0.00    +0.000 A 
ENDBRANCH  24  25
ENDBRANCH   3  24
TORSDOF 8
ENDMDL
