MODEL 1
REMARK VINA RESULT:      -5.9      0.000      0.000
REMARK  Name = 
REMARK  21 active torsions:
REMARK  status: ('A' for Active; 'I' for Inactive)
REMARK    1  A    between atoms: C_1  and  C_2
REMARK    2  A    between atoms: C_3  and  C_4
REMARK    3  A    between atoms: C_5  and  C_6
REMARK    4  A    between atoms: C_7  and  C_8
REMARK    5  A    between atoms: C_8  and  N_9
REMARK    6  A    between atoms: N_9  and  C_10
REMARK    7  A    between atoms: N_9  and  C_11
REMARK    8  A    between atoms: N_9  and  C_12
REMARK    9  A    between atoms: C_12  and  C_13
REMARK   10  A    between atoms: C_13  and  C_14
REMARK   11  A    between atoms: C_14  and  C_15
REMARK   12  A    between atoms: C_15  and  C_16
REMARK   13  A    between atoms: C_16  and  C_17
REMARK   14  A    between atoms: C_17  and  C_18
REMARK   15  A    between atoms: C_18  and  C_19
REMARK   16  A    between atoms: C_19  and  C_20
REMARK   17  A    between atoms: C_20  and  C_21
REMARK   18  A    between atoms: C_21  and  C_22
REMARK   19  A    between atoms: C_22  and  C_23
REMARK   20  A    between atoms: C_23  and  C_24
REMARK   21  A    between atoms: C_24  and  C_25
REMARK                            x       y       z     vdW  Elec       q    Type
REMARK                         _______ _______ _______ _____ _____    ______ ____
ROOT
ATOM      1  C   UNL     1       2.381   5.578  18.378  0.00  0.00    +0.000 C 
ENDROOT
BRANCH   1   2
ATOM      2  C   UNL     1       3.166   4.507  19.187  0.00  0.00    +0.000 C 
BRANCH   2   3
ATOM      3  N   UNL     1       4.064   3.613  18.387  0.00  0.00    +0.000 N 
ATOM      4  C   UNL     1       4.088   4.050  16.966  0.00  0.00    +0.000 C 
ATOM      5  C   UNL     1       3.602   2.205  18.472  0.00  0.00    +0.000 C 
BRANCH   3   6
ATOM      6  C   UNL     1       5.442   3.749  18.965  0.00  0.00    +0.000 C 
BRANCH   6   8
ATOM      7  C   UNL     1       7.310   5.390  18.662  0.00  0.00    +0.000 C 
ATOM      8  C   UNL     1       6.010   5.154  18.892  0.00  0.00    +0.000 C 
BRANCH   7  10
ATOM      9  C   UNL     1       7.453   7.621  17.652  0.00  0.00    +0.000 C 
ATOM     10  C   UNL     1       7.823   6.775  18.621  0.00  0.00    +0.000 C 
BRANCH   9  13
ATOM     11  C   UNL     1       9.340  10.849  18.528  0.00  0.00    +0.000 C 
ATOM     12  C   UNL     1       8.808   9.450  18.564  0.00  0.00    +0.000 C 
ATOM     13  C   UNL     1       7.978   9.002  17.613  0.00  0.00    +0.000 C 
ENDBRANCH   9  13
ENDBRANCH   7  10
ENDBRANCH   6   8
ENDBRANCH   3   6
ENDBRANCH   2   3
ENDBRANCH   1   2
BRANCH   1  14
ATOM     14  C   UNL     1       2.650   7.016  18.868  0.00  0.00    +0.000 C 
BRANCH  14  15
ATOM     15  C   UNL     1       2.839   8.050  17.743  0.00  0.00    +0.000 C 
BRANCH  15  16
ATOM     16  C   UNL     1       2.299   9.428  18.133  0.00  0.00    +0.000 C 
BRANCH  16  17
ATOM     17  C   UNL     1       0.934   9.319  18.797  0.00  0.00    +0.000 C 
BRANCH  17  18
ATOM     18  C   UNL     1       0.107  10.556  18.461  0.00  0.00    +0.000 C 
BRANCH  18  19
ATOM     19  C   UNL     1      -1.377  10.219  18.458  0.00  0.00    +0.000 C 
BRANCH  19  20
ATOM     20  C   UNL     1      -1.897  10.164  17.025  0.00  0.00    +0.000 C 
BRANCH  20  21
ATOM     21  C   UNL     1      -3.367   9.759  17.018  0.00  0.00    +0.000 C 
BRANCH  21  22
ATOM     22  C   UNL     1      -4.194  10.741  17.841  0.00  0.00    +0.000 C 
BRANCH  22  23
ATOM     23  C   UNL     1      -4.895  11.739  16.921  0.00  0.00    +0.000 C 
BRANCH  23  24
ATOM     24  C   UNL     1      -5.925  12.559  17.699  0.00  0.00    +0.000 C 
ATOM     25  C   UNL     1      -5.547  12.630  19.173  0.00  0.00    +0.000 C 
ENDBRANCH  23  24
ENDBRANCH  22  23
ENDBRANCH  21  22
ENDBRANCH  20  21
ENDBRANCH  19  20
ENDBRANCH  18  19
ENDBRANCH  17  18
ENDBRANCH  16  17
ENDBRANCH  15  16
ENDBRANCH  14  15
ENDBRANCH   1  14
TORSDOF 17
ENDMDL
MODEL 2
REMARK VINA RESULT:      -5.9      2.288      3.394
REMARK  Name = 
REMARK  21 active torsions:
REMARK  status: ('A' for Active; 'I' for Inactive)
REMARK    1  A    between atoms: C_1  and  C_2
REMARK    2  A    between atoms: C_3  and  C_4
REMARK    3  A    between atoms: C_5  and  C_6
REMARK    4  A    between atoms: C_7  and  C_8
REMARK    5  A    between atoms: C_8  and  N_9
REMARK    6  A    between atoms: N_9  and  C_10
REMARK    7  A    between atoms: N_9  and  C_11
REMARK    8  A    between atoms: N_9  and  C_12
REMARK    9  A    between atoms: C_12  and  C_13
REMARK   10  A    between atoms: C_13  and  C_14
REMARK   11  A    between atoms: C_14  and  C_15
REMARK   12  A    between atoms: C_15  and  C_16
REMARK   13  A    between atoms: C_16  and  C_17
REMARK   14  A    between atoms: C_17  and  C_18
REMARK   15  A    between atoms: C_18  and  C_19
REMARK   16  A    between atoms: C_19  and  C_20
REMARK   17  A    between atoms: C_20  and  C_21
REMARK   18  A    between atoms: C_21  and  C_22
REMARK   19  A    between atoms: C_22  and  C_23
REMARK   20  A    between atoms: C_23  and  C_24
REMARK   21  A    between atoms: C_24  and  C_25
REMARK                            x       y       z     vdW  Elec       q    Type
REMARK                         _______ _______ _______ _____ _____    ______ ____
ROOT
ATOM      1  C   UNL     1       2.198   5.409  19.093  0.00  0.00    +0.000 C 
ENDROOT
BRANCH   1   2
ATOM      2  C   UNL     1       2.853   4.843  17.801  0.00  0.00    +0.000 C 
BRANCH   2   3
ATOM      3  N   UNL     1       3.642   3.579  17.968  0.00  0.00    +0.000 N 
ATOM      4  C   UNL     1       2.793   2.400  17.646  0.00  0.00    +0.000 C 
ATOM      5  C   UNL     1       4.151   3.467  19.357  0.00  0.00    +0.000 C 
BRANCH   3   6
ATOM      6  C   UNL     1       4.780   3.643  16.993  0.00  0.00    +0.000 C 
BRANCH   6   8
ATOM      7  C   UNL     1       6.613   5.345  17.134  0.00  0.00    +0.000 C 
ATOM      8  C   UNL     1       5.352   5.035  16.797  0.00  0.00    +0.000 C 
BRANCH   7  10
ATOM      9  C   UNL     1       7.638   7.412  17.966  0.00  0.00    +0.000 C 
ATOM     10  C   UNL     1       7.120   6.719  16.945  0.00  0.00    +0.000 C 
BRANCH   9  13
ATOM     11  C   UNL     1       9.340  10.808  18.532  0.00  0.00    +0.000 C 
ATOM     12  C   UNL     1       8.838   9.411  18.727  0.00  0.00    +0.000 C 
ATOM     13  C   UNL     1       8.134   8.791  17.770  0.00  0.00    +0.000 C 
ENDBRANCH   9  13
ENDBRANCH   7  10
ENDBRANCH   6   8
ENDBRANCH   3   6
ENDBRANCH   2   3
ENDBRANCH   1   2
BRANCH   1  14
ATOM     14  C   UNL     1       2.495   6.908  19.308  0.00  0.00    +0.000 C 
BRANCH  14  15
ATOM     15  C   UNL     1       2.643   7.723  18.011  0.00  0.00    +0.000 C 
BRANCH  15  16
ATOM     16  C   UNL     1       1.604   8.844  17.915  0.00  0.00    +0.000 C 
BRANCH  16  17
ATOM     17  C   UNL     1       1.935   9.986  18.864  0.00  0.00    +0.000 C 
BRANCH  17  18
ATOM     18  C   UNL     1       1.290  11.271  18.353  0.00  0.00    +0.000 C 
BRANCH  18  19
ATOM     19  C   UNL     1       0.521  11.961  19.471  0.00  0.00    +0.000 C 
BRANCH  19  20
ATOM     20  C   UNL     1      -0.928  11.487  19.478  0.00  0.00    +0.000 C 
BRANCH  20  21
ATOM     21  C   UNL     1      -1.526  11.657  20.870  0.00  0.00    +0.000 C 
BRANCH  21  22
ATOM     22  C   UNL     1      -0.435  11.577  21.933  0.00  0.00    +0.000 C 
BRANCH  22  23
ATOM     23  C   UNL     1      -0.754  10.465  22.931  0.00  0.00    +0.000 C 
BRANCH  23  24
ATOM     24  C   UNL     1      -0.306   9.107  22.386  0.00  0.00    +0.000 C 
ATOM     25  C   UNL     1       1.200   9.096  22.154  0.00  0.00    +0.000 C 
ENDBRANCH  23  24
ENDBRANCH  22  23
ENDBRANCH  21  22
ENDBRANCH  20  21
ENDBRANCH  19  20
ENDBRANCH  18  19
ENDBRANCH  17  18
ENDBRANCH  16  17
ENDBRANCH  15  16
ENDBRANCH  14  15
ENDBRANCH   1  14
TORSDOF 17
ENDMDL
MODEL 3
REMARK VINA RESULT:      -5.8      2.804      4.791
REMARK  Name = 
REMARK  21 active torsions:
REMARK  status: ('A' for Active; 'I' for Inactive)
REMARK    1  A    between atoms: C_1  and  C_2
REMARK    2  A    between atoms: C_3  and  C_4
REMARK    3  A    between atoms: C_5  and  C_6
REMARK    4  A    between atoms: C_7  and  C_8
REMARK    5  A    between atoms: C_8  and  N_9
REMARK    6  A    between atoms: N_9  and  C_10
REMARK    7  A    between atoms: N_9  and  C_11
REMARK    8  A    between atoms: N_9  and  C_12
REMARK    9  A    between atoms: C_12  and  C_13
REMARK   10  A    between atoms: C_13  and  C_14
REMARK   11  A    between atoms: C_14  and  C_15
REMARK   12  A    between atoms: C_15  and  C_16
REMARK   13  A    between atoms: C_16  and  C_17
REMARK   14  A    between atoms: C_17  and  C_18
REMARK   15  A    between atoms: C_18  and  C_19
REMARK   16  A    between atoms: C_19  and  C_20
REMARK   17  A    between atoms: C_20  and  C_21
REMARK   18  A    between atoms: C_21  and  C_22
REMARK   19  A    between atoms: C_22  and  C_23
REMARK   20  A    between atoms: C_23  and  C_24
REMARK   21  A    between atoms: C_24  and  C_25
REMARK                            x       y       z     vdW  Elec       q    Type
REMARK                         _______ _______ _______ _____ _____    ______ ____
ROOT
ATOM      1  C   UNL     1       5.088   3.701  18.300  0.00  0.00    +0.000 C 
ENDROOT
BRANCH   1   2
ATOM      2  C   UNL     1       5.641   5.036  18.874  0.00  0.00    +0.000 C 
BRANCH   2   3
ATOM      3  N   UNL     1       7.015   5.425  18.419  0.00  0.00    +0.000 N 
ATOM      4  C   UNL     1       7.579   4.369  17.536  0.00  0.00    +0.000 C 
ATOM      5  C   UNL     1       7.906   5.632  19.587  0.00  0.00    +0.000 C 
BRANCH   3   6
ATOM      6  C   UNL     1       6.872   6.695  17.634  0.00  0.00    +0.000 C 
BRANCH   6   8
ATOM      7  C   UNL     1       7.729   9.048  17.703  0.00  0.00    +0.000 C 
ATOM      8  C   UNL     1       7.921   7.743  17.952  0.00  0.00    +0.000 C 
BRANCH   7  10
ATOM      9  C   UNL     1       9.216  10.219  19.263  0.00  0.00    +0.000 C 
ATOM     10  C   UNL     1       8.788  10.030  18.009  0.00  0.00    +0.000 C 
BRANCH   9  13
ATOM     11  C   UNL     1      11.029  13.400  20.421  0.00  0.00    +0.000 C 
ATOM     12  C   UNL     1       9.965  12.392  20.119  0.00  0.00    +0.000 C 
ATOM     13  C   UNL     1      10.269  11.212  19.562  0.00  0.00    +0.000 C 
ENDBRANCH   9  13
ENDBRANCH   7  10
ENDBRANCH   6   8
ENDBRANCH   3   6
ENDBRANCH   2   3
ENDBRANCH   1   2
BRANCH   1  14
ATOM     14  C   UNL     1       4.170   2.956  19.292  0.00  0.00    +0.000 C 
BRANCH  14  15
ATOM     15  C   UNL     1       2.741   2.706  18.776  0.00  0.00    +0.000 C 
BRANCH  15  16
ATOM     16  C   UNL     1       1.846   3.936  18.946  0.00  0.00    +0.000 C 
BRANCH  16  17
ATOM     17  C   UNL     1       1.505   4.173  20.410  0.00  0.00    +0.000 C 
BRANCH  17  18
ATOM     18  C   UNL     1       1.724   5.645  20.748  0.00  0.00    +0.000 C 
BRANCH  18  19
ATOM     19  C   UNL     1       2.413   6.359  19.594  0.00  0.00    +0.000 C 
BRANCH  19  20
ATOM     20  C   UNL     1       1.898   7.790  19.482  0.00  0.00    +0.000 C 
BRANCH  20  21
ATOM     21  C   UNL     1       2.055   8.291  18.051  0.00  0.00    +0.000 C 
BRANCH  21  22
ATOM     22  C   UNL     1       1.913   9.808  17.998  0.00  0.00    +0.000 C 
BRANCH  22  23
ATOM     23  C   UNL     1       0.754  10.259  18.885  0.00  0.00    +0.000 C 
BRANCH  23  24
ATOM     24  C   UNL     1       0.403  11.723  18.613  0.00  0.00    +0.000 C 
ATOM     25  C   UNL     1       1.565  12.630  19.000  0.00  0.00    +0.000 C 
ENDBRANCH  23  24
ENDBRANCH  22  23
ENDBRANCH  21  22
ENDBRANCH  20  21
ENDBRANCH  19  20
ENDBRANCH  18  19
ENDBRANCH  17  18
ENDBRANCH  16  17
ENDBRANCH  15  16
ENDBRANCH  14  15
ENDBRANCH   1  14
TORSDOF 17
ENDMDL
MODEL 4
REMARK VINA RESULT:      -5.7      3.281      8.615
REMARK  Name = 
REMARK  21 active torsions:
REMARK  status: ('A' for Active; 'I' for Inactive)
REMARK    1  A    between atoms: C_1  and  C_2
REMARK    2  A    between atoms: C_3  and  C_4
REMARK    3  A    between atoms: C_5  and  C_6
REMARK    4  A    between atoms: C_7  and  C_8
REMARK    5  A    between atoms: C_8  and  N_9
REMARK    6  A    between atoms: N_9  and  C_10
REMARK    7  A    between atoms: N_9  and  C_11
REMARK    8  A    between atoms: N_9  and  C_12
REMARK    9  A    between atoms: C_12  and  C_13
REMARK   10  A    between atoms: C_13  and  C_14
REMARK   11  A    between atoms: C_14  and  C_15
REMARK   12  A    between atoms: C_15  and  C_16
REMARK   13  A    between atoms: C_16  and  C_17
REMARK   14  A    between atoms: C_17  and  C_18
REMARK   15  A    between atoms: C_18  and  C_19
REMARK   16  A    between atoms: C_19  and  C_20
REMARK   17  A    between atoms: C_20  and  C_21
REMARK   18  A    between atoms: C_21  and  C_22
REMARK   19  A    between atoms: C_22  and  C_23
REMARK   20  A    between atoms: C_23  and  C_24
REMARK   21  A    between atoms: C_24  and  C_25
REMARK                            x       y       z     vdW  Elec       q    Type
REMARK                         _______ _______ _______ _____ _____    ______ ____
ROOT
ATOM      1  C   UNL     1       1.998   2.890  17.992  0.00  0.00    +0.000 C 
ENDROOT
BRANCH   1   2
ATOM      2  C   UNL     1       2.776   2.741  19.329  0.00  0.00    +0.000 C 
BRANCH   2   3
ATOM      3  N   UNL     1       2.204   3.475  20.504  0.00  0.00    +0.000 N 
ATOM      4  C   UNL     1       2.453   2.711  21.756  0.00  0.00    +0.000 C 
ATOM      5  C   UNL     1       0.746   3.684  20.323  0.00  0.00    +0.000 C 
BRANCH   3   6
ATOM      6  C   UNL     1       2.917   4.793  20.584  0.00  0.00    +0.000 C 
BRANCH   6   8
ATOM      7  C   UNL     1       2.149   7.177  20.554  0.00  0.00    +0.000 C 
ATOM      8  C   UNL     1       2.141   5.956  19.997  0.00  0.00    +0.000 C 
BRANCH   7  10
ATOM      9  C   UNL     1       1.617   8.721  18.724  0.00  0.00    +0.000 C 
ATOM     10  C   UNL     1       1.361   8.274  19.959  0.00  0.00    +0.000 C 
BRANCH   9  13
ATOM     11  C   UNL     1      -1.080  11.395  18.154  0.00  0.00    +0.000 C 
ATOM     12  C   UNL     1      -0.278  10.277  18.745  0.00  0.00    +0.000 C 
ATOM     13  C   UNL     1       0.829   9.827  18.140  0.00  0.00    +0.000 C 
ENDBRANCH   9  13
ENDBRANCH   7  10
ENDBRANCH   6   8
ENDBRANCH   3   6
ENDBRANCH   2   3
ENDBRANCH   1   2
BRANCH   1  14
ATOM     14  C   UNL     1       2.582   3.986  17.076  0.00  0.00    +0.000 C 
BRANCH  14  15
ATOM     15  C   UNL     1       4.098   3.876  16.834  0.00  0.00    +0.000 C 
BRANCH  15  16
ATOM     16  C   UNL     1       4.866   5.048  17.453  0.00  0.00    +0.000 C 
BRANCH  16  17
ATOM     17  C   UNL     1       5.822   5.673  16.449  0.00  0.00    +0.000 C 
BRANCH  17  18
ATOM     18  C   UNL     1       5.450   5.213  15.042  0.00  0.00    +0.000 C 
BRANCH  18  19
ATOM     19  C   UNL     1       6.423   4.148  14.556  0.00  0.00    +0.000 C 
BRANCH  19  20
ATOM     20  C   UNL     1       7.352   4.734  13.497  0.00  0.00    +0.000 C 
BRANCH  20  21
ATOM     21  C   UNL     1       6.871   4.337  12.106  0.00  0.00    +0.000 C 
BRANCH  21  22
ATOM     22  C   UNL     1       5.917   3.150  12.188  0.00  0.00    +0.000 C 
BRANCH  22  23
ATOM     23  C   UNL     1       4.474   3.623  12.026  0.00  0.00    +0.000 C 
BRANCH  23  24
ATOM     24  C   UNL     1       3.821   2.958  10.812  0.00  0.00    +0.000 C 
ATOM     25  C   UNL     1       3.162   4.003   9.921  0.00  0.00    +0.000 C 
ENDBRANCH  23  24
ENDBRANCH  22  23
ENDBRANCH  21  22
ENDBRANCH  20  21
ENDBRANCH  19  20
ENDBRANCH  18  19
ENDBRANCH  17  18
ENDBRANCH  16  17
ENDBRANCH  15  16
ENDBRANCH  14  15
ENDBRANCH   1  14
TORSDOF 17
ENDMDL
MODEL 5
REMARK VINA RESULT:      -5.6      1.242      2.072
REMARK  Name = 
REMARK  21 active torsions:
REMARK  status: ('A' for Active; 'I' for Inactive)
REMARK    1  A    between atoms: C_1  and  C_2
REMARK    2  A    between atoms: C_3  and  C_4
REMARK    3  A    between atoms: C_5  and  C_6
REMARK    4  A    between atoms: C_7  and  C_8
REMARK    5  A    between atoms: C_8  and  N_9
REMARK    6  A    between atoms: N_9  and  C_10
REMARK    7  A    between atoms: N_9  and  C_11
REMARK    8  A    between atoms: N_9  and  C_12
REMARK    9  A    between atoms: C_12  and  C_13
REMARK   10  A    between atoms: C_13  and  C_14
REMARK   11  A    between atoms: C_14  and  C_15
REMARK   12  A    between atoms: C_15  and  C_16
REMARK   13  A    between atoms: C_16  and  C_17
REMARK   14  A    between atoms: C_17  and  C_18
REMARK   15  A    between atoms: C_18  and  C_19
REMARK   16  A    between atoms: C_19  and  C_20
REMARK   17  A    between atoms: C_20  and  C_21
REMARK   18  A    between atoms: C_21  and  C_22
REMARK   19  A    between atoms: C_22  and  C_23
REMARK   20  A    between atoms: C_23  and  C_24
REMARK   21  A    between atoms: C_24  and  C_25
REMARK                            x       y       z     vdW  Elec       q    Type
REMARK                         _______ _______ _______ _____ _____    ______ ____
ROOT
ATOM      1  C   UNL     1       2.810   5.954  17.787  0.00  0.00    +0.000 C 
ENDROOT
BRANCH   1   2
ATOM      2  C   UNL     1       4.290   6.428  17.736  0.00  0.00    +0.000 C 
BRANCH   2   3
ATOM      3  N   UNL     1       5.323   5.343  17.687  0.00  0.00    +0.000 N 
ATOM      4  C   UNL     1       4.791   4.164  16.950  0.00  0.00    +0.000 C 
ATOM      5  C   UNL     1       5.718   4.942  19.060  0.00  0.00    +0.000 C 
BRANCH   3   6
ATOM      6  C   UNL     1       6.501   5.896  16.940  0.00  0.00    +0.000 C 
BRANCH   6   8
ATOM      7  C   UNL     1       7.673   8.003  17.617  0.00  0.00    +0.000 C 
ATOM      8  C   UNL     1       7.464   6.691  17.801  0.00  0.00    +0.000 C 
BRANCH   7  10
ATOM      9  C   UNL     1       8.762  10.063  18.386  0.00  0.00    +0.000 C 
ATOM     10  C   UNL     1       8.637   8.733  18.465  0.00  0.00    +0.000 C 
BRANCH   9  13
ATOM     11  C   UNL     1      11.810  12.087  19.551  0.00  0.00    +0.000 C 
ATOM     12  C   UNL     1      10.821  11.358  18.696  0.00  0.00    +0.000 C 
ATOM     13  C   UNL     1       9.736  10.784  19.232  0.00  0.00    +0.000 C 
ENDBRANCH   9  13
ENDBRANCH   7  10
ENDBRANCH   6   8
ENDBRANCH   3   6
ENDBRANCH   2   3
ENDBRANCH   1   2
BRANCH   1  14
ATOM     14  C   UNL     1       1.831   7.085  18.166  0.00  0.00    +0.000 C 
BRANCH  14  15
ATOM     15  C   UNL     1       2.053   7.681  19.568  0.00  0.00    +0.000 C 
BRANCH  15  16
ATOM     16  C   UNL     1       1.327   9.017  19.746  0.00  0.00    +0.000 C 
BRANCH  16  17
ATOM     17  C   UNL     1       1.079   9.693  18.405  0.00  0.00    +0.000 C 
BRANCH  17  18
ATOM     18  C   UNL     1      -0.017  10.743  18.563  0.00  0.00    +0.000 C 
BRANCH  18  19
ATOM     19  C   UNL     1      -1.369  10.073  18.770  0.00  0.00    +0.000 C 
BRANCH  19  20
ATOM     20  C   UNL     1      -2.063   9.872  17.427  0.00  0.00    +0.000 C 
BRANCH  20  21
ATOM     21  C   UNL     1      -2.482  11.219  16.850  0.00  0.00    +0.000 C 
BRANCH  21  22
ATOM     22  C   UNL     1      -3.785  11.084  16.069  0.00  0.00    +0.000 C 
BRANCH  22  23
ATOM     23  C   UNL     1      -4.933  11.727  16.846  0.00  0.00    +0.000 C 
BRANCH  23  24
ATOM     24  C   UNL     1      -5.182  10.981  18.158  0.00  0.00    +0.000 C 
ATOM     25  C   UNL     1      -5.984  11.848  19.121  0.00  0.00    +0.000 C 
ENDBRANCH  23  24
ENDBRANCH  22  23
ENDBRANCH  21  22
ENDBRANCH  20  21
ENDBRANCH  19  20
ENDBRANCH  18  19
ENDBRANCH  17  18
ENDBRANCH  16  17
ENDBRANCH  15  16
ENDBRANCH  14  15
ENDBRANCH   1  14
TORSDOF 17
ENDMDL
MODEL 6
REMARK VINA RESULT:      -5.6      2.974      5.013
REMARK  Name = 
REMARK  21 active torsions:
REMARK  status: ('A' for Active; 'I' for Inactive)
REMARK    1  A    between atoms: C_1  and  C_2
REMARK    2  A    between atoms: C_3  and  C_4
REMARK    3  A    between atoms: C_5  and  C_6
REMARK    4  A    between atoms: C_7  and  C_8
REMARK    5  A    between atoms: C_8  and  N_9
REMARK    6  A    between atoms: N_9  and  C_10
REMARK    7  A    between atoms: N_9  and  C_11
REMARK    8  A    between atoms: N_9  and  C_12
REMARK    9  A    between atoms: C_12  and  C_13
REMARK   10  A    between atoms: C_13  and  C_14
REMARK   11  A    between atoms: C_14  and  C_15
REMARK   12  A    between atoms: C_15  and  C_16
REMARK   13  A    between atoms: C_16  and  C_17
REMARK   14  A    between atoms: C_17  and  C_18
REMARK   15  A    between atoms: C_18  and  C_19
REMARK   16  A    between atoms: C_19  and  C_20
REMARK   17  A    between atoms: C_20  and  C_21
REMARK   18  A    between atoms: C_21  and  C_22
REMARK   19  A    between atoms: C_22  and  C_23
REMARK   20  A    between atoms: C_23  and  C_24
REMARK   21  A    between atoms: C_24  and  C_25
REMARK                            x       y       z     vdW  Elec       q    Type
REMARK                         _______ _______ _______ _____ _____    ______ ____
ROOT
ATOM      1  C   UNL     1       4.386   4.146  16.555  0.00  0.00    +0.000 C 
ENDROOT
BRANCH   1   2
ATOM      2  C   UNL     1       5.434   3.809  17.654  0.00  0.00    +0.000 C 
BRANCH   2   3
ATOM      3  N   UNL     1       6.313   4.942  18.088  0.00  0.00    +0.000 N 
ATOM      4  C   UNL     1       7.743   4.542  18.002  0.00  0.00    +0.000 C 
ATOM      5  C   UNL     1       5.987   5.347  19.478  0.00  0.00    +0.000 C 
BRANCH   3   6
ATOM      6  C   UNL     1       6.064   6.076  17.138  0.00  0.00    +0.000 C 
BRANCH   6   8
ATOM      7  C   UNL     1       7.283   8.143  17.859  0.00  0.00    +0.000 C 
ATOM      8  C   UNL     1       7.203   7.075  17.051  0.00  0.00    +0.000 C 
BRANCH   7  10
ATOM      9  C   UNL     1       8.771   9.879  18.746  0.00  0.00    +0.000 C 
ATOM     10  C   UNL     1       8.398   9.101  17.723  0.00  0.00    +0.000 C 
BRANCH   9  13
ATOM     11  C   UNL     1      11.620  12.333  19.528  0.00  0.00    +0.000 C 
ATOM     12  C   UNL     1      10.495  11.355  19.674  0.00  0.00    +0.000 C 
ATOM     13  C   UNL     1       9.883  10.842  18.599  0.00  0.00    +0.000 C 
ENDBRANCH   9  13
ENDBRANCH   7  10
ENDBRANCH   6   8
ENDBRANCH   3   6
ENDBRANCH   2   3
ENDBRANCH   1   2
BRANCH   1  14
ATOM     14  C   UNL     1       2.999   3.533  16.841  0.00  0.00    +0.000 C 
BRANCH  14  15
ATOM     15  C   UNL     1       2.807   3.030  18.283  0.00  0.00    +0.000 C 
BRANCH  15  16
ATOM     16  C   UNL     1       1.334   3.032  18.701  0.00  0.00    +0.000 C 
BRANCH  16  17
ATOM     17  C   UNL     1       1.178   3.403  20.169  0.00  0.00    +0.000 C 
BRANCH  17  18
ATOM     18  C   UNL     1       2.423   4.152  20.636  0.00  0.00    +0.000 C 
BRANCH  18  19
ATOM     19  C   UNL     1       2.090   5.609  20.924  0.00  0.00    +0.000 C 
BRANCH  19  20
ATOM     20  C   UNL     1       1.638   6.304  19.644  0.00  0.00    +0.000 C 
BRANCH  20  21
ATOM     21  C   UNL     1       2.851   6.698  18.808  0.00  0.00    +0.000 C 
BRANCH  21  22
ATOM     22  C   UNL     1       2.738   8.150  18.355  0.00  0.00    +0.000 C 
BRANCH  22  23
ATOM     23  C   UNL     1       1.413   8.372  17.627  0.00  0.00    +0.000 C 
BRANCH  23  24
ATOM     24  C   UNL     1       0.728   9.645  18.128  0.00  0.00    +0.000 C 
ATOM     25  C   UNL     1       1.083   9.901  19.588  0.00  0.00    +0.000 C 
ENDBRANCH  23  24
ENDBRANCH  22  23
ENDBRANCH  21  22
ENDBRANCH  20  21
ENDBRANCH  19  20
ENDBRANCH  18  19
ENDBRANCH  17  18
ENDBRANCH  16  17
ENDBRANCH  15  16
ENDBRANCH  14  15
ENDBRANCH   1  14
TORSDOF 17
ENDMDL
MODEL 7
REMARK VINA RESULT:      -5.5      3.190      5.622
REMARK  Name = 
REMARK  21 active torsions:
REMARK  status: ('A' for Active; 'I' for Inactive)
REMARK    1  A    between atoms: C_1  and  C_2
REMARK    2  A    between atoms: C_3  and  C_4
REMARK    3  A    between atoms: C_5  and  C_6
REMARK    4  A    between atoms: C_7  and  C_8
REMARK    5  A    between atoms: C_8  and  N_9
REMARK    6  A    between atoms: N_9  and  C_10
REMARK    7  A    between atoms: N_9  and  C_11
REMARK    8  A    between atoms: N_9  and  C_12
REMARK    9  A    between atoms: C_12  and  C_13
REMARK   10  A    between atoms: C_13  and  C_14
REMARK   11  A    between atoms: C_14  and  C_15
REMARK   12  A    between atoms: C_15  and  C_16
REMARK   13  A    between atoms: C_16  and  C_17
REMARK   14  A    between atoms: C_17  and  C_18
REMARK   15  A    between atoms: C_18  and  C_19
REMARK   16  A    between atoms: C_19  and  C_20
REMARK   17  A    between atoms: C_20  and  C_21
REMARK   18  A    between atoms: C_21  and  C_22
REMARK   19  A    between atoms: C_22  and  C_23
REMARK   20  A    between atoms: C_23  and  C_24
REMARK   21  A    between atoms: C_24  and  C_25
REMARK                            x       y       z     vdW  Elec       q    Type
REMARK                         _______ _______ _______ _____ _____    ______ ____
ROOT
ATOM      1  C   UNL     1       4.553   4.786  18.057  0.00  0.00    +0.000 C 
ENDROOT
BRANCH   1   2
ATOM      2  C   UNL     1       5.554   5.875  18.535  0.00  0.00    +0.000 C 
BRANCH   2   3
ATOM      3  N   UNL     1       6.899   5.862  17.875  0.00  0.00    +0.000 N 
ATOM      4  C   UNL     1       7.969   6.069  18.888  0.00  0.00    +0.000 C 
ATOM      5  C   UNL     1       6.977   6.921  16.838  0.00  0.00    +0.000 C 
BRANCH   3   6
ATOM      6  C   UNL     1       7.068   4.506  17.255  0.00  0.00    +0.000 C 
BRANCH   6   8
ATOM      7  C   UNL     1       6.618   4.237  14.806  0.00  0.00    +0.000 C 
ATOM      8  C   UNL     1       6.161   4.248  16.067  0.00  0.00    +0.000 C 
BRANCH   7  10
ATOM      9  C   UNL     1       6.039   3.221  12.649  0.00  0.00    +0.000 C 
ATOM     10  C   UNL     1       5.694   4.004  13.678  0.00  0.00    +0.000 C 
BRANCH   9  13
ATOM     11  C   UNL     1       3.170   3.636  10.132  0.00  0.00    +0.000 C 
ATOM     12  C   UNL     1       4.112   3.857  11.274  0.00  0.00    +0.000 C 
ATOM     13  C   UNL     1       5.112   3.001  11.520  0.00  0.00    +0.000 C 
ENDBRANCH   9  13
ENDBRANCH   7  10
ENDBRANCH   6   8
ENDBRANCH   3   6
ENDBRANCH   2   3
ENDBRANCH   1   2
BRANCH   1  14
ATOM     14  C   UNL     1       3.090   5.112  18.426  0.00  0.00    +0.000 C 
BRANCH  14  15
ATOM     15  C   UNL     1       2.923   5.914  19.729  0.00  0.00    +0.000 C 
BRANCH  15  16
ATOM     16  C   UNL     1       2.107   7.192  19.517  0.00  0.00    +0.000 C 
BRANCH  16  17
ATOM     17  C   UNL     1       2.560   7.935  18.269  0.00  0.00    +0.000 C 
BRANCH  17  18
ATOM     18  C   UNL     1       1.452   8.878  17.811  0.00  0.00    +0.000 C 
BRANCH  18  19
ATOM     19  C   UNL     1       1.812  10.321  18.137  0.00  0.00    +0.000 C 
BRANCH  19  20
ATOM     20  C   UNL     1       1.093  10.765  19.406  0.00  0.00    +0.000 C 
BRANCH  20  21
ATOM     21  C   UNL     1      -0.238  10.032  19.535  0.00  0.00    +0.000 C 
BRANCH  21  22
ATOM     22  C   UNL     1      -0.327   9.319  20.880  0.00  0.00    +0.000 C 
BRANCH  22  23
ATOM     23  C   UNL     1       0.287  10.188  21.978  0.00  0.00    +0.000 C 
BRANCH  23  24
ATOM     24  C   UNL     1      -0.741  10.478  23.073  0.00  0.00    +0.000 C 
ATOM     25  C   UNL     1      -1.589  11.688  22.701  0.00  0.00    +0.000 C 
ENDBRANCH  23  24
ENDBRANCH  22  23
ENDBRANCH  21  22
ENDBRANCH  20  21
ENDBRANCH  19  20
ENDBRANCH  18  19
ENDBRANCH  17  18
ENDBRANCH  16  17
ENDBRANCH  15  16
ENDBRANCH  14  15
ENDBRANCH   1  14
TORSDOF 17
ENDMDL
MODEL 8
REMARK VINA RESULT:      -5.5      2.253      3.506
REMARK  Name = 
REMARK  21 active torsions:
REMARK  status: ('A' for Active; 'I' for Inactive)
REMARK    1  A    between atoms: C_1  and  C_2
REMARK    2  A    between atoms: C_3  and  C_4
REMARK    3  A    between atoms: C_5  and  C_6
REMARK    4  A    between atoms: C_7  and  C_8
REMARK    5  A    between atoms: C_8  and  N_9
REMARK    6  A    between atoms: N_9  and  C_10
REMARK    7  A    between atoms: N_9  and  C_11
REMARK    8  A    between atoms: N_9  and  C_12
REMARK    9  A    between atoms: C_12  and  C_13
REMARK   10  A    between atoms: C_13  and  C_14
REMARK   11  A    between atoms: C_14  and  C_15
REMARK   12  A    between atoms: C_15  and  C_16
REMARK   13  A    between atoms: C_16  and  C_17
REMARK   14  A    between atoms: C_17  and  C_18
REMARK   15  A    between atoms: C_18  and  C_19
REMARK   16  A    between atoms: C_19  and  C_20
REMARK   17  A    between atoms: C_20  and  C_21
REMARK   18  A    between atoms: C_21  and  C_22
REMARK   19  A    between atoms: C_22  and  C_23
REMARK   20  A    between atoms: C_23  and  C_24
REMARK   21  A    between atoms: C_24  and  C_25
REMARK                            x       y       z     vdW  Elec       q    Type
REMARK                         _______ _______ _______ _____ _____    ______ ____
ROOT
ATOM      1  C   UNL     1       4.205   6.468  17.848  0.00  0.00    +0.000 C 
ENDROOT
BRANCH   1   2
ATOM      2  C   UNL     1       4.878   6.266  16.461  0.00  0.00    +0.000 C 
BRANCH   2   3
ATOM      3  N   UNL     1       5.882   5.157  16.377  0.00  0.00    +0.000 N 
ATOM      4  C   UNL     1       6.348   4.993  14.974  0.00  0.00    +0.000 C 
ATOM      5  C   UNL     1       5.290   3.885  16.862  0.00  0.00    +0.000 C 
BRANCH   3   6
ATOM      6  C   UNL     1       7.046   5.556  17.236  0.00  0.00    +0.000 C 
BRANCH   6   8
ATOM      7  C   UNL     1       7.915   7.730  18.126  0.00  0.00    +0.000 C 
ATOM      8  C   UNL     1       7.455   7.010  17.092  0.00  0.00    +0.000 C 
BRANCH   7  10
ATOM      9  C   UNL     1       9.088   9.774  18.808  0.00  0.00    +0.000 C 
ATOM     10  C   UNL     1       8.280   9.149  17.943  0.00  0.00    +0.000 C 
BRANCH   9  13
ATOM     11  C   UNL     1      10.809  12.998  17.629  0.00  0.00    +0.000 C 
ATOM     12  C   UNL     1      10.448  11.557  17.816  0.00  0.00    +0.000 C 
ATOM     13  C   UNL     1       9.441  11.197  18.623  0.00  0.00    +0.000 C 
ENDBRANCH   9  13
ENDBRANCH   7  10
ENDBRANCH   6   8
ENDBRANCH   3   6
ENDBRANCH   2   3
ENDBRANCH   1   2
BRANCH   1  14
ATOM     14  C   UNL     1       2.722   6.881  17.741  0.00  0.00    +0.000 C 
BRANCH  14  15
ATOM     15  C   UNL     1       2.294   7.987  18.723  0.00  0.00    +0.000 C 
BRANCH  15  16
ATOM     16  C   UNL     1       1.699   9.199  18.000  0.00  0.00    +0.000 C 
BRANCH  16  17
ATOM     17  C   UNL     1       0.773   9.987  18.914  0.00  0.00    +0.000 C 
BRANCH  17  18
ATOM     18  C   UNL     1      -0.537  10.270  18.186  0.00  0.00    +0.000 C 
BRANCH  18  19
ATOM     19  C   UNL     1      -1.511  10.995  19.104  0.00  0.00    +0.000 C 
BRANCH  19  20
ATOM     20  C   UNL     1      -0.972  11.009  20.530  0.00  0.00    +0.000 C 
BRANCH  20  21
ATOM     21  C   UNL     1      -1.277  12.349  21.190  0.00  0.00    +0.000 C 
BRANCH  21  22
ATOM     22  C   UNL     1      -0.174  13.357  20.886  0.00  0.00    +0.000 C 
BRANCH  22  23
ATOM     23  C   UNL     1      -0.732  14.514  20.058  0.00  0.00    +0.000 C 
BRANCH  23  24
ATOM     24  C   UNL     1      -0.099  14.536  18.665  0.00  0.00    +0.000 C 
ATOM     25  C   UNL     1       1.145  13.657  18.632  0.00  0.00    +0.000 C 
ENDBRANCH  23  24
ENDBRANCH  22  23
ENDBRANCH  21  22
ENDBRANCH  20  21
ENDBRANCH  19  20
ENDBRANCH  18  19
ENDBRANCH  17  18
ENDBRANCH  16  17
ENDBRANCH  15  16
ENDBRANCH  14  15
ENDBRANCH   1  14
TORSDOF 17
ENDMDL
MODEL 9
REMARK VINA RESULT:      -5.4      2.811      5.651
REMARK  Name = 
REMARK  21 active torsions:
REMARK  status: ('A' for Active; 'I' for Inactive)
REMARK    1  A    between atoms: C_1  and  C_2
REMARK    2  A    between atoms: C_3  and  C_4
REMARK    3  A    between atoms: C_5  and  C_6
REMARK    4  A    between atoms: C_7  and  C_8
REMARK    5  A    between atoms: C_8  and  N_9
REMARK    6  A    between atoms: N_9  and  C_10
REMARK    7  A    between atoms: N_9  and  C_11
REMARK    8  A    between atoms: N_9  and  C_12
REMARK    9  A    between atoms: C_12  and  C_13
REMARK   10  A    between atoms: C_13  and  C_14
REMARK   11  A    between atoms: C_14  and  C_15
REMARK   12  A    between atoms: C_15  and  C_16
REMARK   13  A    between atoms: C_16  and  C_17
REMARK   14  A    between atoms: C_17  and  C_18
REMARK   15  A    between atoms: C_18  and  C_19
REMARK   16  A    between atoms: C_19  and  C_20
REMARK   17  A    between atoms: C_20  and  C_21
REMARK   18  A    between atoms: C_21  and  C_22
REMARK   19  A    between atoms: C_22  and  C_23
REMARK   20  A    between atoms: C_23  and  C_24
REMARK   21  A    between atoms: C_24  and  C_25
REMARK                            x       y       z     vdW  Elec       q    Type
REMARK                         _______ _______ _______ _____ _____    ______ ____
ROOT
ATOM      1  C   UNL     1       3.618   3.346  16.827  0.00  0.00    +0.000 C 
ENDROOT
BRANCH   1   2
ATOM      2  C   UNL     1       4.616   4.269  17.581  0.00  0.00    +0.000 C 
BRANCH   2   3
ATOM      3  N   UNL     1       5.675   4.913  16.738  0.00  0.00    +0.000 N 
ATOM      4  C   UNL     1       5.400   4.669  15.296  0.00  0.00    +0.000 C 
ATOM      5  C   UNL     1       7.014   4.379  17.092  0.00  0.00    +0.000 C 
BRANCH   3   6
ATOM      6  C   UNL     1       5.609   6.388  17.006  0.00  0.00    +0.000 C 
BRANCH   6   8
ATOM      7  C   UNL     1       3.685   7.494  18.168  0.00  0.00    +0.000 C 
ATOM      8  C   UNL     1       4.200   6.948  17.056  0.00  0.00    +0.000 C 
BRANCH   7  10
ATOM      9  C   UNL     1       2.002   9.204  17.658  0.00  0.00    +0.000 C 
ATOM     10  C   UNL     1       2.301   8.006  18.176  0.00  0.00    +0.000 C 
BRANCH   9  13
ATOM     11  C   UNL     1      -1.378  10.579  18.855  0.00  0.00    +0.000 C 
ATOM     12  C   UNL     1       0.028  10.064  18.830  0.00  0.00    +0.000 C 
ATOM     13  C   UNL     1       0.615   9.714  17.678  0.00  0.00    +0.000 C 
ENDBRANCH   9  13
ENDBRANCH   7  10
ENDBRANCH   6   8
ENDBRANCH   3   6
ENDBRANCH   2   3
ENDBRANCH   1   2
BRANCH   1  14
ATOM     14  C   UNL     1       2.380   2.983  17.674  0.00  0.00    +0.000 C 
BRANCH  14  15
ATOM     15  C   UNL     1       2.002   4.030  18.736  0.00  0.00    +0.000 C 
BRANCH  15  16
ATOM     16  C   UNL     1       1.675   3.387  20.087  0.00  0.00    +0.000 C 
BRANCH  16  17
ATOM     17  C   UNL     1       2.104   4.280  21.242  0.00  0.00    +0.000 C 
BRANCH  17  18
ATOM     18  C   UNL     1       2.219   5.720  20.752  0.00  0.00    +0.000 C 
BRANCH  18  19
ATOM     19  C   UNL     1       0.912   6.466  20.984  0.00  0.00    +0.000 C 
BRANCH  19  20
ATOM     20  C   UNL     1       1.199   7.871  21.503  0.00  0.00    +0.000 C 
BRANCH  20  21
ATOM     21  C   UNL     1      -0.089   8.514  22.006  0.00  0.00    +0.000 C 
BRANCH  21  22
ATOM     22  C   UNL     1       0.149   9.977  22.366  0.00  0.00    +0.000 C 
BRANCH  22  23
ATOM     23  C   UNL     1      -1.065  10.541  23.103  0.00  0.00    +0.000 C 
BRANCH  23  24
ATOM     24  C   UNL     1      -1.119  12.064  22.966  0.00  0.00    +0.000 C 
ATOM     25  C   UNL     1      -2.307  12.481  22.108  0.00  0.00    +0.000 C 
ENDBRANCH  23  24
ENDBRANCH  22  23
ENDBRANCH  21  22
ENDBRANCH  20  21
ENDBRANCH  19  20
ENDBRANCH  18  19
ENDBRANCH  17  18
ENDBRANCH  16  17
ENDBRANCH  15  16
ENDBRANCH  14  15
ENDBRANCH   1  14
TORSDOF 17
ENDMDL
