MODEL 1
REMARK VINA RESULT:      -6.8      0.000      0.000
REMARK  Name = 
REMARK  10 active torsions:
REMARK  status: ('A' for Active; 'I' for Inactive)
REMARK    1  A    between atoms: C_1  and  O_2
REMARK    2  A    between atoms: O_2  and  C_3
REMARK    3  A    between atoms: C_3  and  C_5
REMARK    4  A    between atoms: C_9  and  C_10
REMARK    5  A    between atoms: C_10  and  C_11
REMARK    6  A    between atoms: C_11  and  C_12
REMARK    7  A    between atoms: C_12  and  C_13
REMARK    8  A    between atoms: C_13  and  C_14
REMARK    9  A    between atoms: C_14  and  C_15
REMARK   10  A    between atoms: C_15  and  C_16
REMARK                            x       y       z     vdW  Elec       q    Type
REMARK                         _______ _______ _______ _____ _____    ______ ____
ROOT
ATOM      1  C   UNL     1       1.007   4.466  20.484  0.00  0.00    +0.000 C 
ENDROOT
BRANCH   1   2
ATOM      2  C   UNL     1       2.146   5.429  20.833  0.00  0.00    +0.000 C 
BRANCH   2   7
ATOM      3  C   UNL     1       1.705   8.728  18.975  0.00  0.00    +0.000 A 
ATOM      4  C   UNL     1       2.547   8.527  17.874  0.00  0.00    +0.000 A 
ATOM      5  C   UNL     1       3.259   7.333  17.737  0.00  0.00    +0.000 A 
ATOM      6  C   UNL     1       3.130   6.331  18.697  0.00  0.00    +0.000 A 
ATOM      7  C   UNL     1       2.296   6.518  19.806  0.00  0.00    +0.000 A 
ATOM      8  C   UNL     1       1.585   7.720  19.941  0.00  0.00    +0.000 A 
BRANCH   3   9
ATOM      9  C   UNL     1       0.949  10.007  19.063  0.00  0.00    +0.000 C 
ATOM     10  O   UNL     1       1.235  10.909  19.836  0.00  0.00    +0.000 OA
BRANCH   9  12
ATOM     11  C   UNL     1      -1.290  10.567  18.681  0.00  0.00    +0.000 C 
ATOM     12  O   UNL     1      -0.074  10.022  18.170  0.00  0.00    +0.000 OA
ENDBRANCH   9  12
ENDBRANCH   3   9
ENDBRANCH   2   7
ENDBRANCH   1   2
BRANCH   1  13
ATOM     13  C   UNL     1       1.486   3.020  20.332  0.00  0.00    +0.000 C 
BRANCH  13  14
ATOM     14  C   UNL     1       1.151   2.448  18.956  0.00  0.00    +0.000 C 
BRANCH  14  15
ATOM     15  C   UNL     1       2.094   2.965  17.880  0.00  0.00    +0.000 C 
BRANCH  15  16
ATOM     16  C   UNL     1       3.416   2.204  17.936  0.00  0.00    +0.000 C 
BRANCH  16  17
ATOM     17  C   UNL     1       4.539   3.055  18.498  0.00  0.00    +0.000 C 
ATOM     18  O   UNL     1       4.859   3.006  19.688  0.00  0.00    +0.000 OA
ATOM     19  N   UNL     1       5.198   3.850  17.595  0.00  0.00    +0.000 N 
ATOM     20  C   UNL     1       4.902   4.055  16.191  0.00  0.00    +0.000 C 
ATOM     21  C   UNL     1       6.279   4.250  15.588  0.00  0.00    +0.000 C 
ATOM     22  C   UNL     1       7.033   5.018  16.671  0.00  0.00    +0.000 C 
ATOM     23  C   UNL     1       6.397   4.566  17.983  0.00  0.00    +0.000 C 
ENDBRANCH  16  17
ENDBRANCH  15  16
ENDBRANCH  14  15
ENDBRANCH  13  14
ENDBRANCH   1  13
TORSDOF 9
ENDMDL
MODEL 2
REMARK VINA RESULT:      -6.7      1.771      2.209
REMARK  Name = 
REMARK  10 active torsions:
REMARK  status: ('A' for Active; 'I' for Inactive)
REMARK    1  A    between atoms: C_1  and  O_2
REMARK    2  A    between atoms: O_2  and  C_3
REMARK    3  A    between atoms: C_3  and  C_5
REMARK    4  A    between atoms: C_9  and  C_10
REMARK    5  A    between atoms: C_10  and  C_11
REMARK    6  A    between atoms: C_11  and  C_12
REMARK    7  A    between atoms: C_12  and  C_13
REMARK    8  A    between atoms: C_13  and  C_14
REMARK    9  A    between atoms: C_14  and  C_15
REMARK   10  A    between atoms: C_15  and  C_16
REMARK                            x       y       z     vdW  Elec       q    Type
REMARK                         _______ _______ _______ _____ _____    ______ ____
ROOT
ATOM      1  C   UNL     1       1.366   4.960  20.651  0.00  0.00    +0.000 C 
ENDROOT
BRANCH   1   2
ATOM      2  C   UNL     1       2.520   5.734  20.007  0.00  0.00    +0.000 C 
BRANCH   2   7
ATOM      3  C   UNL     1       1.172   9.295  20.204  0.00  0.00    +0.000 A 
ATOM      4  C   UNL     1       1.320   9.708  18.873  0.00  0.00    +0.000 A 
ATOM      5  C   UNL     1       1.859   8.842  17.920  0.00  0.00    +0.000 A 
ATOM      6  C   UNL     1       2.249   7.556  18.289  0.00  0.00    +0.000 A 
ATOM      7  C   UNL     1       2.112   7.128  19.615  0.00  0.00    +0.000 A 
ATOM      8  C   UNL     1       1.573   8.003  20.570  0.00  0.00    +0.000 A 
BRANCH   3   9
ATOM      9  C   UNL     1       0.569  10.246  21.177  0.00  0.00    +0.000 C 
ATOM     10  O   UNL     1       1.003  11.370  21.379  0.00  0.00    +0.000 OA
BRANCH   9  12
ATOM     11  C   UNL     1      -0.573   9.914  23.190  0.00  0.00    +0.000 C 
ATOM     12  O   UNL     1      -0.512   9.693  21.782  0.00  0.00    +0.000 OA
ENDBRANCH   9  12
ENDBRANCH   3   9
ENDBRANCH   2   7
ENDBRANCH   1   2
BRANCH   1  13
ATOM     13  C   UNL     1       1.830   3.667  21.325  0.00  0.00    +0.000 C 
BRANCH  13  14
ATOM     14  C   UNL     1       2.976   3.004  20.564  0.00  0.00    +0.000 C 
BRANCH  14  15
ATOM     15  C   UNL     1       2.470   2.098  19.451  0.00  0.00    +0.000 C 
BRANCH  15  16
ATOM     16  C   UNL     1       3.514   2.003  18.341  0.00  0.00    +0.000 C 
BRANCH  16  17
ATOM     17  C   UNL     1       3.455   3.194  17.402  0.00  0.00    +0.000 C 
ATOM     18  O   UNL     1       2.512   3.365  16.626  0.00  0.00    +0.000 OA
ATOM     19  N   UNL     1       4.495   4.084  17.498  0.00  0.00    +0.000 N 
ATOM     20  C   UNL     1       5.690   3.989  18.313  0.00  0.00    +0.000 C 
ATOM     21  C   UNL     1       5.963   5.437  18.670  0.00  0.00    +0.000 C 
ATOM     22  C   UNL     1       5.555   6.194  17.408  0.00  0.00    +0.000 C 
ATOM     23  C   UNL     1       4.453   5.343  16.783  0.00  0.00    +0.000 C 
ENDBRANCH  16  17
ENDBRANCH  15  16
ENDBRANCH  14  15
ENDBRANCH  13  14
ENDBRANCH   1  13
TORSDOF 9
ENDMDL
MODEL 3
REMARK VINA RESULT:      -6.7      2.175      2.909
REMARK  Name = 
REMARK  10 active torsions:
REMARK  status: ('A' for Active; 'I' for Inactive)
REMARK    1  A    between atoms: C_1  and  O_2
REMARK    2  A    between atoms: O_2  and  C_3
REMARK    3  A    between atoms: C_3  and  C_5
REMARK    4  A    between atoms: C_9  and  C_10
REMARK    5  A    between atoms: C_10  and  C_11
REMARK    6  A    between atoms: C_11  and  C_12
REMARK    7  A    between atoms: C_12  and  C_13
REMARK    8  A    between atoms: C_13  and  C_14
REMARK    9  A    between atoms: C_14  and  C_15
REMARK   10  A    between atoms: C_15  and  C_16
REMARK                            x       y       z     vdW  Elec       q    Type
REMARK                         _______ _______ _______ _____ _____    ______ ____
ROOT
ATOM      1  C   UNL     1       1.989   4.715  19.565  0.00  0.00    +0.000 C 
ENDROOT
BRANCH   1   2
ATOM      2  C   UNL     1       2.987   5.878  19.572  0.00  0.00    +0.000 C 
BRANCH   2   7
ATOM      3  C   UNL     1       1.022   9.007  20.509  0.00  0.00    +0.000 A 
ATOM      4  C   UNL     1       0.980   9.673  19.277  0.00  0.00    +0.000 A 
ATOM      5  C   UNL     1       1.591   9.116  18.151  0.00  0.00    +0.000 A 
ATOM      6  C   UNL     1       2.242   7.888  18.249  0.00  0.00    +0.000 A 
ATOM      7  C   UNL     1       2.297   7.211  19.473  0.00  0.00    +0.000 A 
ATOM      8  C   UNL     1       1.684   7.776  20.602  0.00  0.00    +0.000 A 
BRANCH   3   9
ATOM      9  C   UNL     1       0.335   9.631  21.673  0.00  0.00    +0.000 C 
ATOM     10  O   UNL     1      -0.413   9.020  22.422  0.00  0.00    +0.000 OA
BRANCH   9  12
ATOM     11  C   UNL     1      -0.441  11.808  22.028  0.00  0.00    +0.000 C 
ATOM     12  O   UNL     1       0.666  10.942  21.779  0.00  0.00    +0.000 OA
ENDBRANCH   9  12
ENDBRANCH   3   9
ENDBRANCH   2   7
ENDBRANCH   1   2
BRANCH   1  13
ATOM     13  C   UNL     1       2.318   3.666  18.500  0.00  0.00    +0.000 C 
BRANCH  13  14
ATOM     14  C   UNL     1       3.093   4.264  17.327  0.00  0.00    +0.000 C 
BRANCH  14  15
ATOM     15  C   UNL     1       4.488   3.669  17.205  0.00  0.00    +0.000 C 
BRANCH  15  16
ATOM     16  C   UNL     1       5.173   4.201  15.949  0.00  0.00    +0.000 C 
BRANCH  16  17
ATOM     17  C   UNL     1       5.631   5.638  16.117  0.00  0.00    +0.000 C 
ATOM     18  O   UNL     1       5.063   6.572  15.548  0.00  0.00    +0.000 OA
ATOM     19  N   UNL     1       6.689   5.834  16.968  0.00  0.00    +0.000 N 
ATOM     20  C   UNL     1       7.488   4.839  17.658  0.00  0.00    +0.000 C 
ATOM     21  C   UNL     1       7.829   5.535  18.961  0.00  0.00    +0.000 C 
ATOM     22  C   UNL     1       8.014   6.992  18.545  0.00  0.00    +0.000 C 
ATOM     23  C   UNL     1       7.093   7.174  17.343  0.00  0.00    +0.000 C 
ENDBRANCH  16  17
ENDBRANCH  15  16
ENDBRANCH  14  15
ENDBRANCH  13  14
ENDBRANCH   1  13
TORSDOF 9
ENDMDL
MODEL 4
REMARK VINA RESULT:      -6.7      2.657      6.614
REMARK  Name = 
REMARK  10 active torsions:
REMARK  status: ('A' for Active; 'I' for Inactive)
REMARK    1  A    between atoms: C_1  and  O_2
REMARK    2  A    between atoms: O_2  and  C_3
REMARK    3  A    between atoms: C_3  and  C_5
REMARK    4  A    between atoms: C_9  and  C_10
REMARK    5  A    between atoms: C_10  and  C_11
REMARK    6  A    between atoms: C_11  and  C_12
REMARK    7  A    between atoms: C_12  and  C_13
REMARK    8  A    between atoms: C_13  and  C_14
REMARK    9  A    between atoms: C_14  and  C_15
REMARK   10  A    between atoms: C_15  and  C_16
REMARK                            x       y       z     vdW  Elec       q    Type
REMARK                         _______ _______ _______ _____ _____    ______ ____
ROOT
ATOM      1  C   UNL     1       3.231   2.860  19.400  0.00  0.00    +0.000 C 
ENDROOT
BRANCH   1   2
ATOM      2  C   UNL     1       3.362   3.021  17.882  0.00  0.00    +0.000 C 
BRANCH   2   7
ATOM      3  C   UNL     1       6.246   4.372  15.788  0.00  0.00    +0.000 A 
ATOM      4  C   UNL     1       7.087   4.876  16.788  0.00  0.00    +0.000 A 
ATOM      5  C   UNL     1       6.720   4.786  18.133  0.00  0.00    +0.000 A 
ATOM      6  C   UNL     1       5.512   4.186  18.485  0.00  0.00    +0.000 A 
ATOM      7  C   UNL     1       4.657   3.681  17.497  0.00  0.00    +0.000 A 
ATOM      8  C   UNL     1       5.030   3.777  16.148  0.00  0.00    +0.000 A 
BRANCH   3   9
ATOM      9  C   UNL     1       6.694   4.471  14.372  0.00  0.00    +0.000 C 
ATOM     10  O   UNL     1       6.206   3.817  13.462  0.00  0.00    +0.000 OA
BRANCH   9  12
ATOM     11  C   UNL     1       8.190   5.527  12.917  0.00  0.00    +0.000 C 
ATOM     12  O   UNL     1       7.693   5.380  14.247  0.00  0.00    +0.000 OA
ENDBRANCH   9  12
ENDBRANCH   3   9
ENDBRANCH   2   7
ENDBRANCH   1   2
BRANCH   1  13
ATOM     13  C   UNL     1       1.788   2.601  19.840  0.00  0.00    +0.000 C 
BRANCH  13  14
ATOM     14  C   UNL     1       1.167   3.823  20.514  0.00  0.00    +0.000 C 
BRANCH  14  15
ATOM     15  C   UNL     1       2.215   4.864  20.880  0.00  0.00    +0.000 C 
BRANCH  15  16
ATOM     16  C   UNL     1       1.631   6.267  20.729  0.00  0.00    +0.000 C 
BRANCH  16  17
ATOM     17  C   UNL     1       2.193   6.988  19.518  0.00  0.00    +0.000 C 
ATOM     18  O   UNL     1       2.927   6.421  18.706  0.00  0.00    +0.000 OA
ATOM     19  N   UNL     1       1.803   8.294  19.365  0.00  0.00    +0.000 N 
ATOM     20  C   UNL     1       0.998   9.105  20.258  0.00  0.00    +0.000 C 
ATOM     21  C   UNL     1       0.232   9.994  19.298  0.00  0.00    +0.000 C 
ATOM     22  C   UNL     1       1.242  10.263  18.185  0.00  0.00    +0.000 C 
ATOM     23  C   UNL     1       2.130   9.022  18.156  0.00  0.00    +0.000 C 
ENDBRANCH  16  17
ENDBRANCH  15  16
ENDBRANCH  14  15
ENDBRANCH  13  14
ENDBRANCH   1  13
TORSDOF 9
ENDMDL
MODEL 5
REMARK VINA RESULT:      -6.7      1.546      1.744
REMARK  Name = 
REMARK  10 active torsions:
REMARK  status: ('A' for Active; 'I' for Inactive)
REMARK    1  A    between atoms: C_1  and  O_2
REMARK    2  A    between atoms: O_2  and  C_3
REMARK    3  A    between atoms: C_3  and  C_5
REMARK    4  A    between atoms: C_9  and  C_10
REMARK    5  A    between atoms: C_10  and  C_11
REMARK    6  A    between atoms: C_11  and  C_12
REMARK    7  A    between atoms: C_12  and  C_13
REMARK    8  A    between atoms: C_13  and  C_14
REMARK    9  A    between atoms: C_14  and  C_15
REMARK   10  A    between atoms: C_15  and  C_16
REMARK                            x       y       z     vdW  Elec       q    Type
REMARK                         _______ _______ _______ _____ _____    ______ ____
ROOT
ATOM      1  C   UNL     1       1.115   4.625  20.203  0.00  0.00    +0.000 C 
ENDROOT
BRANCH   1   2
ATOM      2  C   UNL     1       2.291   5.572  20.461  0.00  0.00    +0.000 C 
BRANCH   2   7
ATOM      3  C   UNL     1       1.142   9.207  20.453  0.00  0.00    +0.000 A 
ATOM      4  C   UNL     1       1.413   9.568  19.127  0.00  0.00    +0.000 A 
ATOM      5  C   UNL     1       1.971   8.642  18.242  0.00  0.00    +0.000 A 
ATOM      6  C   UNL     1       2.256   7.349  18.676  0.00  0.00    +0.000 A 
ATOM      7  C   UNL     1       1.996   6.973  20.000  0.00  0.00    +0.000 A 
ATOM      8  C   UNL     1       1.439   7.908  20.886  0.00  0.00    +0.000 A 
BRANCH   3   9
ATOM      9  C   UNL     1       0.526  10.222  21.350  0.00  0.00    +0.000 C 
ATOM     10  O   UNL     1       0.897  11.385  21.410  0.00  0.00    +0.000 OA
BRANCH   9  12
ATOM     11  C   UNL     1      -1.005  10.522  23.093  0.00  0.00    +0.000 C 
ATOM     12  O   UNL     1      -0.491   9.677  22.064  0.00  0.00    +0.000 OA
ENDBRANCH   9  12
ENDBRANCH   3   9
ENDBRANCH   2   7
ENDBRANCH   1   2
BRANCH   1  13
ATOM     13  C   UNL     1       1.229   3.319  20.992  0.00  0.00    +0.000 C 
BRANCH  13  14
ATOM     14  C   UNL     1       1.733   2.168  20.124  0.00  0.00    +0.000 C 
BRANCH  14  15
ATOM     15  C   UNL     1       1.857   2.571  18.662  0.00  0.00    +0.000 C 
BRANCH  15  16
ATOM     16  C   UNL     1       3.260   2.254  18.150  0.00  0.00    +0.000 C 
BRANCH  16  17
ATOM     17  C   UNL     1       4.319   3.095  18.838  0.00  0.00    +0.000 C 
ATOM     18  O   UNL     1       4.854   2.736  19.890  0.00  0.00    +0.000 OA
ATOM     19  N   UNL     1       4.670   4.257  18.198  0.00  0.00    +0.000 N 
ATOM     20  C   UNL     1       4.096   4.834  16.998  0.00  0.00    +0.000 C 
ATOM     21  C   UNL     1       5.293   5.495  16.343  0.00  0.00    +0.000 C 
ATOM     22  C   UNL     1       6.101   6.015  17.529  0.00  0.00    +0.000 C 
ATOM     23  C   UNL     1       5.792   5.044  18.666  0.00  0.00    +0.000 C 
ENDBRANCH  16  17
ENDBRANCH  15  16
ENDBRANCH  14  15
ENDBRANCH  13  14
ENDBRANCH   1  13
TORSDOF 9
ENDMDL
MODEL 6
REMARK VINA RESULT:      -6.7      1.746      2.275
REMARK  Name = 
REMARK  10 active torsions:
REMARK  status: ('A' for Active; 'I' for Inactive)
REMARK    1  A    between atoms: C_1  and  O_2
REMARK    2  A    between atoms: O_2  and  C_3
REMARK    3  A    between atoms: C_3  and  C_5
REMARK    4  A    between atoms: C_9  and  C_10
REMARK    5  A    between atoms: C_10  and  C_11
REMARK    6  A    between atoms: C_11  and  C_12
REMARK    7  A    between atoms: C_12  and  C_13
REMARK    8  A    between atoms: C_13  and  C_14
REMARK    9  A    between atoms: C_14  and  C_15
REMARK   10  A    between atoms: C_15  and  C_16
REMARK                            x       y       z     vdW  Elec       q    Type
REMARK                         _______ _______ _______ _____ _____    ______ ____
ROOT
ATOM      1  C   UNL     1       1.125   4.473  20.355  0.00  0.00    +0.000 C 
ENDROOT
BRANCH   1   2
ATOM      2  C   UNL     1       2.392   5.334  20.339  0.00  0.00    +0.000 C 
BRANCH   2   7
ATOM      3  C   UNL     1       1.165   8.939  20.170  0.00  0.00    +0.000 A 
ATOM      4  C   UNL     1       1.582   9.301  18.882  0.00  0.00    +0.000 A 
ATOM      5  C   UNL     1       2.262   8.386  18.076  0.00  0.00    +0.000 A 
ATOM      6  C   UNL     1       2.526   7.102  18.550  0.00  0.00    +0.000 A 
ATOM      7  C   UNL     1       2.120   6.725  19.836  0.00  0.00    +0.000 A 
ATOM      8  C   UNL     1       1.440   7.649  20.643  0.00  0.00    +0.000 A 
BRANCH   3   9
ATOM      9  C   UNL     1       0.422   9.942  20.981  0.00  0.00    +0.000 C 
ATOM     10  O   UNL     1      -0.461  10.654  20.529  0.00  0.00    +0.000 OA
BRANCH   9  12
ATOM     11  C   UNL     1      -0.163   9.679  23.230  0.00  0.00    +0.000 C 
ATOM     12  O   UNL     1       0.858   9.937  22.266  0.00  0.00    +0.000 OA
ENDBRANCH   9  12
ENDBRANCH   3   9
ENDBRANCH   2   7
ENDBRANCH   1   2
BRANCH   1  13
ATOM     13  C   UNL     1       1.220   3.270  19.414  0.00  0.00    +0.000 C 
BRANCH  13  14
ATOM     14  C   UNL     1       2.669   2.916  19.082  0.00  0.00    +0.000 C 
BRANCH  14  15
ATOM     15  C   UNL     1       2.910   2.860  17.580  0.00  0.00    +0.000 C 
BRANCH  15  16
ATOM     16  C   UNL     1       3.442   4.203  17.087  0.00  0.00    +0.000 C 
BRANCH  16  17
ATOM     17  C   UNL     1       4.887   4.109  16.633  0.00  0.00    +0.000 C 
ATOM     18  O   UNL     1       5.187   3.827  15.471  0.00  0.00    +0.000 OA
ATOM     19  N   UNL     1       5.833   4.395  17.584  0.00  0.00    +0.000 N 
ATOM     20  C   UNL     1       5.638   4.684  18.992  0.00  0.00    +0.000 C 
ATOM     21  C   UNL     1       6.744   5.680  19.282  0.00  0.00    +0.000 C 
ATOM     22  C   UNL     1       7.900   5.185  18.416  0.00  0.00    +0.000 C 
ATOM     23  C   UNL     1       7.230   4.513  17.219  0.00  0.00    +0.000 C 
ENDBRANCH  16  17
ENDBRANCH  15  16
ENDBRANCH  14  15
ENDBRANCH  13  14
ENDBRANCH   1  13
TORSDOF 9
ENDMDL
MODEL 7
REMARK VINA RESULT:      -6.7      2.620      6.167
REMARK  Name = 
REMARK  10 active torsions:
REMARK  status: ('A' for Active; 'I' for Inactive)
REMARK    1  A    between atoms: C_1  and  O_2
REMARK    2  A    between atoms: O_2  and  C_3
REMARK    3  A    between atoms: C_3  and  C_5
REMARK    4  A    between atoms: C_9  and  C_10
REMARK    5  A    between atoms: C_10  and  C_11
REMARK    6  A    between atoms: C_11  and  C_12
REMARK    7  A    between atoms: C_12  and  C_13
REMARK    8  A    between atoms: C_13  and  C_14
REMARK    9  A    between atoms: C_14  and  C_15
REMARK   10  A    between atoms: C_15  and  C_16
REMARK                            x       y       z     vdW  Elec       q    Type
REMARK                         _______ _______ _______ _____ _____    ______ ____
ROOT
ATOM      1  C   UNL     1       3.522   2.788  18.416  0.00  0.00    +0.000 C 
ENDROOT
BRANCH   1   2
ATOM      2  C   UNL     1       3.374   3.820  17.294  0.00  0.00    +0.000 C 
BRANCH   2   7
ATOM      3  C   UNL     1       6.669   5.727  17.083  0.00  0.00    +0.000 A 
ATOM      4  C   UNL     1       7.172   5.252  15.865  0.00  0.00    +0.000 A 
ATOM      5  C   UNL     1       6.453   4.315  15.120  0.00  0.00    +0.000 A 
ATOM      6  C   UNL     1       5.224   3.851  15.585  0.00  0.00    +0.000 A 
ATOM      7  C   UNL     1       4.708   4.311  16.802  0.00  0.00    +0.000 A 
ATOM      8  C   UNL     1       5.436   5.251  17.549  0.00  0.00    +0.000 A 
BRANCH   3   9
ATOM      9  C   UNL     1       7.461   6.743  17.828  0.00  0.00    +0.000 C 
ATOM     10  O   UNL     1       8.102   6.491  18.837  0.00  0.00    +0.000 OA
BRANCH   9  12
ATOM     11  C   UNL     1       8.093   8.994  17.890  0.00  0.00    +0.000 C 
ATOM     12  O   UNL     1       7.373   7.956  17.226  0.00  0.00    +0.000 OA
ENDBRANCH   9  12
ENDBRANCH   3   9
ENDBRANCH   2   7
ENDBRANCH   1   2
BRANCH   1  13
ATOM     13  C   UNL     1       2.198   2.503  19.129  0.00  0.00    +0.000 C 
BRANCH  13  14
ATOM     14  C   UNL     1       2.065   3.295  20.428  0.00  0.00    +0.000 C 
BRANCH  14  15
ATOM     15  C   UNL     1       1.260   4.573  20.234  0.00  0.00    +0.000 C 
BRANCH  15  16
ATOM     16  C   UNL     1       2.069   5.776  20.712  0.00  0.00    +0.000 C 
BRANCH  16  17
ATOM     17  C   UNL     1       2.072   6.900  19.693  0.00  0.00    +0.000 C 
ATOM     18  O   UNL     1       2.441   6.723  18.530  0.00  0.00    +0.000 OA
ATOM     19  N   UNL     1       1.604   8.111  20.137  0.00  0.00    +0.000 N 
ATOM     20  C   UNL     1       1.193   8.483  21.476  0.00  0.00    +0.000 C 
ATOM     21  C   UNL     1       0.074   9.472  21.216  0.00  0.00    +0.000 C 
ATOM     22  C   UNL     1       0.543  10.216  19.969  0.00  0.00    +0.000 C 
ATOM     23  C   UNL     1       1.392   9.202  19.207  0.00  0.00    +0.000 C 
ENDBRANCH  16  17
ENDBRANCH  15  16
ENDBRANCH  14  15
ENDBRANCH  13  14
ENDBRANCH   1  13
TORSDOF 9
ENDMDL
MODEL 8
REMARK VINA RESULT:      -6.6      2.296      6.280
REMARK  Name = 
REMARK  10 active torsions:
REMARK  status: ('A' for Active; 'I' for Inactive)
REMARK    1  A    between atoms: C_1  and  O_2
REMARK    2  A    between atoms: O_2  and  C_3
REMARK    3  A    between atoms: C_3  and  C_5
REMARK    4  A    between atoms: C_9  and  C_10
REMARK    5  A    between atoms: C_10  and  C_11
REMARK    6  A    between atoms: C_11  and  C_12
REMARK    7  A    between atoms: C_12  and  C_13
REMARK    8  A    between atoms: C_13  and  C_14
REMARK    9  A    between atoms: C_14  and  C_15
REMARK   10  A    between atoms: C_15  and  C_16
REMARK                            x       y       z     vdW  Elec       q    Type
REMARK                         _______ _______ _______ _____ _____    ______ ____
ROOT
ATOM      1  C   UNL     1       2.665   3.104  18.674  0.00  0.00    +0.000 C 
ENDROOT
BRANCH   1   2
ATOM      2  C   UNL     1       2.913   3.588  17.242  0.00  0.00    +0.000 C 
BRANCH   2   7
ATOM      3  C   UNL     1       6.430   4.941  17.822  0.00  0.00    +0.000 A 
ATOM      4  C   UNL     1       7.022   4.680  16.579  0.00  0.00    +0.000 A 
ATOM      5  C   UNL     1       6.290   4.064  15.562  0.00  0.00    +0.000 A 
ATOM      6  C   UNL     1       4.960   3.709  15.779  0.00  0.00    +0.000 A 
ATOM      7  C   UNL     1       4.354   3.958  17.016  0.00  0.00    +0.000 A 
ATOM      8  C   UNL     1       5.095   4.575  18.036  0.00  0.00    +0.000 A 
BRANCH   3   9
ATOM      9  C   UNL     1       7.245   5.621  18.865  0.00  0.00    +0.000 C 
ATOM     10  O   UNL     1       7.073   5.465  20.064  0.00  0.00    +0.000 OA
BRANCH   9  12
ATOM     11  C   UNL     1       7.718   7.703  17.911  0.00  0.00    +0.000 C 
ATOM     12  O   UNL     1       8.189   6.412  18.295  0.00  0.00    +0.000 OA
ENDBRANCH   9  12
ENDBRANCH   3   9
ENDBRANCH   2   7
ENDBRANCH   1   2
BRANCH   1  13
ATOM     13  C   UNL     1       1.224   3.345  19.133  0.00  0.00    +0.000 C 
BRANCH  13  14
ATOM     14  C   UNL     1       1.164   4.137  20.438  0.00  0.00    +0.000 C 
BRANCH  14  15
ATOM     15  C   UNL     1       2.293   5.153  20.538  0.00  0.00    +0.000 C 
BRANCH  15  16
ATOM     16  C   UNL     1       1.716   6.555  20.717  0.00  0.00    +0.000 C 
BRANCH  16  17
ATOM     17  C   UNL     1       2.059   7.463  19.551  0.00  0.00    +0.000 C 
ATOM     18  O   UNL     1       2.784   7.090  18.626  0.00  0.00    +0.000 OA
ATOM     19  N   UNL     1       1.482   8.708  19.572  0.00  0.00    +0.000 N 
ATOM     20  C   UNL     1       0.662   9.305  20.609  0.00  0.00    +0.000 C 
ATOM     21  C   UNL     1      -0.304  10.161  19.814  0.00  0.00    +0.000 C 
ATOM     22  C   UNL     1       0.551  10.680  18.661  0.00  0.00    +0.000 C 
ATOM     23  C   UNL     1       1.592   9.589  18.427  0.00  0.00    +0.000 C 
ENDBRANCH  16  17
ENDBRANCH  15  16
ENDBRANCH  14  15
ENDBRANCH  13  14
ENDBRANCH   1  13
TORSDOF 9
ENDMDL
MODEL 9
REMARK VINA RESULT:      -6.6      2.101      2.883
REMARK  Name = 
REMARK  10 active torsions:
REMARK  status: ('A' for Active; 'I' for Inactive)
REMARK    1  A    between atoms: C_1  and  O_2
REMARK    2  A    between atoms: O_2  and  C_3
REMARK    3  A    between atoms: C_3  and  C_5
REMARK    4  A    between atoms: C_9  and  C_10
REMARK    5  A    between atoms: C_10  and  C_11
REMARK    6  A    between atoms: C_11  and  C_12
REMARK    7  A    between atoms: C_12  and  C_13
REMARK    8  A    between atoms: C_13  and  C_14
REMARK    9  A    between atoms: C_14  and  C_15
REMARK   10  A    between atoms: C_15  and  C_16
REMARK                            x       y       z     vdW  Elec       q    Type
REMARK                         _______ _______ _______ _____ _____    ______ ____
ROOT
ATOM      1  C   UNL     1       3.270   5.855  18.844  0.00  0.00    +0.000 C 
ENDROOT
BRANCH   1   2
ATOM      2  C   UNL     1       2.354   6.511  19.882  0.00  0.00    +0.000 C 
BRANCH   2   7
ATOM      3  C   UNL     1       0.892  10.030  19.999  0.00  0.00    +0.000 A 
ATOM      4  C   UNL     1       1.154  10.470  18.695  0.00  0.00    +0.000 A 
ATOM      5  C   UNL     1       1.806   9.634  17.785  0.00  0.00    +0.000 A 
ATOM      6  C   UNL     1       2.196   8.353  18.172  0.00  0.00    +0.000 A 
ATOM      7  C   UNL     1       1.946   7.900  19.473  0.00  0.00    +0.000 A 
ATOM      8  C   UNL     1       1.293   8.744  20.384  0.00  0.00    +0.000 A 
BRANCH   3   9
ATOM      9  C   UNL     1       0.173  10.948  20.924  0.00  0.00    +0.000 C 
ATOM     10  O   UNL     1       0.729  11.600  21.795  0.00  0.00    +0.000 OA
BRANCH   9  12
ATOM     11  C   UNL     1      -1.674  12.242  20.305  0.00  0.00    +0.000 C 
ATOM     12  O   UNL     1      -1.156  10.958  20.652  0.00  0.00    +0.000 OA
ENDBRANCH   9  12
ENDBRANCH   3   9
ENDBRANCH   2   7
ENDBRANCH   1   2
BRANCH   1  13
ATOM     13  C   UNL     1       4.081   4.695  19.427  0.00  0.00    +0.000 C 
BRANCH  13  14
ATOM     14  C   UNL     1       4.202   3.531  18.446  0.00  0.00    +0.000 C 
BRANCH  14  15
ATOM     15  C   UNL     1       3.956   3.970  17.010  0.00  0.00    +0.000 C 
BRANCH  15  16
ATOM     16  C   UNL     1       5.280   4.048  16.255  0.00  0.00    +0.000 C 
BRANCH  16  17
ATOM     17  C   UNL     1       5.812   5.468  16.189  0.00  0.00    +0.000 C 
ATOM     18  O   UNL     1       5.344   6.303  15.412  0.00  0.00    +0.000 OA
ATOM     19  N   UNL     1       6.819   5.772  17.071  0.00  0.00    +0.000 N 
ATOM     20  C   UNL     1       7.505   4.889  17.994  0.00  0.00    +0.000 C 
ATOM     21  C   UNL     1       7.796   5.802  19.169  0.00  0.00    +0.000 C 
ATOM     22  C   UNL     1       8.100   7.144  18.506  0.00  0.00    +0.000 C 
ATOM     23  C   UNL     1       7.277   7.138  17.220  0.00  0.00    +0.000 C 
ENDBRANCH  16  17
ENDBRANCH  15  16
ENDBRANCH  14  15
ENDBRANCH  13  14
ENDBRANCH   1  13
TORSDOF 9
ENDMDL
