MODEL 1
REMARK VINA RESULT:      -8.4      0.000      0.000
REMARK  Name = 
REMARK  2 active torsions:
REMARK  status: ('A' for Active; 'I' for Inactive)
REMARK    1  A    between atoms: C_1  and  N_2
REMARK    2  A    between atoms: C_18  and  O_19
REMARK                            x       y       z     vdW  Elec       q    Type
REMARK                         _______ _______ _______ _____ _____    ______ ____
ROOT
ATOM      1  C   UNL     1       1.416   2.715  21.021  0.00  0.00    +0.000 C 
ATOM      2  N   UNL     1       2.443   3.243  20.118  0.00  0.00    +0.000 NA
ATOM      3  C   UNL     1       2.614   2.308  18.994  0.00  0.00    +0.000 C 
ATOM      4  C   UNL     1       3.790   2.699  18.103  0.00  0.00    +0.000 C 
ATOM      5  C   UNL     1       3.815   4.164  17.764  0.00  0.00    +0.000 A 
ATOM      6  C   UNL     1       4.673   4.608  16.754  0.00  0.00    +0.000 A 
ATOM      7  C   UNL     1       4.776   5.964  16.479  0.00  0.00    +0.000 A 
ATOM      8  C   UNL     1       4.015   6.882  17.203  0.00  0.00    +0.000 A 
ATOM      9  C   UNL     1       3.113   6.480  18.206  0.00  0.00    +0.000 A 
ATOM     10  C   UNL     1       3.049   5.092  18.504  0.00  0.00    +0.000 A 
ATOM     11  C   UNL     1       2.097   4.600  19.601  0.00  0.00    +0.000 C 
ATOM     12  C   UNL     1       2.081   5.642  20.742  0.00  0.00    +0.000 C 
ATOM     13  C   UNL     1       1.782   7.037  20.239  0.00  0.00    +0.000 A 
ATOM     14  C   UNL     1       1.044   7.913  21.057  0.00  0.00    +0.000 A 
ATOM     15  C   UNL     1       0.767   9.202  20.626  0.00  0.00    +0.000 A 
ATOM     16 BR   UNL     1      -0.232  10.372  21.725  0.00  0.00    +0.000 Br
ATOM     17  C   UNL     1       1.216   9.634  19.385  0.00  0.00    +0.000 A 
ATOM     18  C   UNL     1       1.959   8.765  18.575  0.00  0.00    +0.000 A 
ATOM     19  C   UNL     1       2.288   7.452  18.985  0.00  0.00    +0.000 A 
ENDROOT
BRANCH  18  20
ATOM     20  O   UNL     1       2.343   9.233  17.344  0.00  0.00    +0.000 OA
ATOM     21  H   UNL     1       2.234  10.197  17.310  0.00  0.00    +0.000 HD
ENDBRANCH  18  20
TORSDOF 1
ENDMDL
MODEL 2
REMARK VINA RESULT:      -7.5      1.964      3.608
REMARK  Name = 
REMARK  2 active torsions:
REMARK  status: ('A' for Active; 'I' for Inactive)
REMARK    1  A    between atoms: C_1  and  N_2
REMARK    2  A    between atoms: C_18  and  O_19
REMARK                            x       y       z     vdW  Elec       q    Type
REMARK                         _______ _______ _______ _____ _____    ______ ____
ROOT
ATOM      1  C   UNL     1       5.312   6.513  15.920  0.00  0.00    +0.000 C 
ATOM      2  N   UNL     1       4.499   5.722  16.850  0.00  0.00    +0.000 NA
ATOM      3  C   UNL     1       5.348   4.685  17.459  0.00  0.00    +0.000 C 
ATOM      4  C   UNL     1       4.533   3.710  18.306  0.00  0.00    +0.000 C 
ATOM      5  C   UNL     1       3.554   4.394  19.219  0.00  0.00    +0.000 A 
ATOM      6  C   UNL     1       2.938   3.648  20.228  0.00  0.00    +0.000 A 
ATOM      7  C   UNL     1       1.970   4.233  21.030  0.00  0.00    +0.000 A 
ATOM      8  C   UNL     1       1.619   5.570  20.836  0.00  0.00    +0.000 A 
ATOM      9  C   UNL     1       2.234   6.370  19.856  0.00  0.00    +0.000 A 
ATOM     10  C   UNL     1       3.196   5.745  19.016  0.00  0.00    +0.000 A 
ATOM     11  C   UNL     1       3.884   6.564  17.918  0.00  0.00    +0.000 C 
ATOM     12  C   UNL     1       2.853   7.551  17.322  0.00  0.00    +0.000 C 
ATOM     13  C   UNL     1       2.176   8.385  18.388  0.00  0.00    +0.000 A 
ATOM     14  C   UNL     1       1.816   9.712  18.090  0.00  0.00    +0.000 A 
ATOM     15  C   UNL     1       1.182  10.493  19.043  0.00  0.00    +0.000 A 
ATOM     16 BR   UNL     1       0.709  12.279  18.640  0.00  0.00    +0.000 Br
ATOM     17  C   UNL     1       0.900   9.970  20.299  0.00  0.00    +0.000 A 
ATOM     18  C   UNL     1       1.249   8.645  20.592  0.00  0.00    +0.000 A 
ATOM     19  C   UNL     1       1.873   7.804  19.642  0.00  0.00    +0.000 A 
ENDROOT
BRANCH  18  20
ATOM     20  O   UNL     1       0.981   8.194  21.859  0.00  0.00    +0.000 OA
ATOM     21  H   UNL     1       1.767   7.761  22.228  0.00  0.00    +0.000 HD
ENDBRANCH  18  20
TORSDOF 1
ENDMDL
MODEL 3
REMARK VINA RESULT:      -7.0      3.529      6.081
REMARK  Name = 
REMARK  2 active torsions:
REMARK  status: ('A' for Active; 'I' for Inactive)
REMARK    1  A    between atoms: C_1  and  N_2
REMARK    2  A    between atoms: C_18  and  O_19
REMARK                            x       y       z     vdW  Elec       q    Type
REMARK                         _______ _______ _______ _____ _____    ______ ____
ROOT
ATOM      1  C   UNL     1       2.198   9.592  17.802  0.00  0.00    +0.000 C 
ATOM      2  N   UNL     1       2.357   8.522  18.791  0.00  0.00    +0.000 NA
ATOM      3  C   UNL     1       1.095   8.369  19.533  0.00  0.00    +0.000 C 
ATOM      4  C   UNL     1       1.235   7.394  20.700  0.00  0.00    +0.000 C 
ATOM      5  C   UNL     1       1.951   6.125  20.327  0.00  0.00    +0.000 A 
ATOM      6  C   UNL     1       1.918   5.046  21.216  0.00  0.00    +0.000 A 
ATOM      7  C   UNL     1       2.637   3.894  20.935  0.00  0.00    +0.000 A 
ATOM      8  C   UNL     1       3.385   3.809  19.761  0.00  0.00    +0.000 A 
ATOM      9  C   UNL     1       3.423   4.855  18.820  0.00  0.00    +0.000 A 
ATOM     10  C   UNL     1       2.713   6.044  19.141  0.00  0.00    +0.000 A 
ATOM     11  C   UNL     1       2.735   7.222  18.161  0.00  0.00    +0.000 C 
ATOM     12  C   UNL     1       4.140   7.304  17.521  0.00  0.00    +0.000 C 
ATOM     13  C   UNL     1       4.571   5.985  16.917  0.00  0.00    +0.000 A 
ATOM     14  C   UNL     1       5.363   5.994  15.754  0.00  0.00    +0.000 A 
ATOM     15  C   UNL     1       5.783   4.800  15.188  0.00  0.00    +0.000 A 
ATOM     16 BR   UNL     1       6.840   4.818  13.620  0.00  0.00    +0.000 Br
ATOM     17  C   UNL     1       5.423   3.589  15.765  0.00  0.00    +0.000 A 
ATOM     18  C   UNL     1       4.642   3.580  16.929  0.00  0.00    +0.000 A 
ATOM     19  C   UNL     1       4.214   4.774  17.556  0.00  0.00    +0.000 A 
ENDROOT
BRANCH  18  20
ATOM     20  O   UNL     1       4.286   2.356  17.433  0.00  0.00    +0.000 OA
ATOM     21  H   UNL     1       3.357   2.375  17.716  0.00  0.00    +0.000 HD
ENDBRANCH  18  20
TORSDOF 1
ENDMDL
MODEL 4
REMARK VINA RESULT:      -6.7      3.128      5.122
REMARK  Name = 
REMARK  2 active torsions:
REMARK  status: ('A' for Active; 'I' for Inactive)
REMARK    1  A    between atoms: C_1  and  N_2
REMARK    2  A    between atoms: C_18  and  O_19
REMARK                            x       y       z     vdW  Elec       q    Type
REMARK                         _______ _______ _______ _____ _____    ______ ____
ROOT
ATOM      1  C   UNL     1       3.393   0.921  19.417  0.00  0.00    +0.000 C 
ATOM      2  N   UNL     1       2.760   2.237  19.550  0.00  0.00    +0.000 NA
ATOM      3  C   UNL     1       2.561   2.526  20.980  0.00  0.00    +0.000 C 
ATOM      4  C   UNL     1       1.747   3.800  21.194  0.00  0.00    +0.000 C 
ATOM      5  C   UNL     1       2.207   4.947  20.338  0.00  0.00    +0.000 A 
ATOM      6  C   UNL     1       1.730   6.231  20.618  0.00  0.00    +0.000 A 
ATOM      7  C   UNL     1       2.073   7.292  19.794  0.00  0.00    +0.000 A 
ATOM      8  C   UNL     1       2.901   7.080  18.691  0.00  0.00    +0.000 A 
ATOM      9  C   UNL     1       3.432   5.812  18.388  0.00  0.00    +0.000 A 
ATOM     10  C   UNL     1       3.040   4.727  19.219  0.00  0.00    +0.000 A 
ATOM     11  C   UNL     1       3.573   3.321  18.923  0.00  0.00    +0.000 C 
ATOM     12  C   UNL     1       3.654   3.137  17.390  0.00  0.00    +0.000 C 
ATOM     13  C   UNL     1       4.431   4.250  16.721  0.00  0.00    +0.000 A 
ATOM     14  C   UNL     1       5.207   3.953  15.586  0.00  0.00    +0.000 A 
ATOM     15  C   UNL     1       5.918   4.956  14.945  0.00  0.00    +0.000 A 
ATOM     16 BR   UNL     1       6.966   4.549  13.425  0.00  0.00    +0.000 Br
ATOM     17  C   UNL     1       5.869   6.260  15.422  0.00  0.00    +0.000 A 
ATOM     18  C   UNL     1       5.088   6.558  16.547  0.00  0.00    +0.000 A 
ATOM     19  C   UNL     1       4.326   5.572  17.215  0.00  0.00    +0.000 A 
ENDROOT
BRANCH  18  20
ATOM     20  O   UNL     1       5.107   7.854  16.995  0.00  0.00    +0.000 OA
ATOM     21  H   UNL     1       5.896   8.001  17.540  0.00  0.00    +0.000 HD
ENDBRANCH  18  20
TORSDOF 1
ENDMDL
MODEL 5
REMARK VINA RESULT:      -6.6      3.748      7.273
REMARK  Name = 
REMARK  2 active torsions:
REMARK  status: ('A' for Active; 'I' for Inactive)
REMARK    1  A    between atoms: C_1  and  N_2
REMARK    2  A    between atoms: C_18  and  O_19
REMARK                            x       y       z     vdW  Elec       q    Type
REMARK                         _______ _______ _______ _____ _____    ______ ____
ROOT
ATOM      1  C   UNL     1      -0.941  12.592  17.682  0.00  0.00    +0.000 C 
ATOM      2  N   UNL     1      -0.721  12.241  19.089  0.00  0.00    +0.000 NA
ATOM      3  C   UNL     1      -1.987  12.403  19.822  0.00  0.00    +0.000 C 
ATOM      4  C   UNL     1      -1.798  12.226  21.327  0.00  0.00    +0.000 C 
ATOM      5  C   UNL     1      -0.968  11.024  21.682  0.00  0.00    +0.000 A 
ATOM      6  C   UNL     1      -0.936  10.596  23.012  0.00  0.00    +0.000 A 
ATOM      7  C   UNL     1      -0.115   9.541  23.382  0.00  0.00    +0.000 A 
ATOM      8  C   UNL     1       0.672   8.901  22.423  0.00  0.00    +0.000 A 
ATOM      9  C   UNL     1       0.648   9.275  21.066  0.00  0.00    +0.000 A 
ATOM     10  C   UNL     1      -0.169  10.383  20.711  0.00  0.00    +0.000 A 
ATOM     11  C   UNL     1      -0.217  10.845  19.250  0.00  0.00    +0.000 C 
ATOM     12  C   UNL     1       1.194  10.690  18.637  0.00  0.00    +0.000 C 
ATOM     13  C   UNL     1       1.751   9.296  18.830  0.00  0.00    +0.000 A 
ATOM     14  C   UNL     1       2.573   8.746  17.829  0.00  0.00    +0.000 A 
ATOM     15  C   UNL     1       3.108   7.477  17.986  0.00  0.00    +0.000 A 
ATOM     16 BR   UNL     1       4.204   6.739  16.634  0.00  0.00    +0.000 Br
ATOM     17  C   UNL     1       2.834   6.741  19.133  0.00  0.00    +0.000 A 
ATOM     18  C   UNL     1       2.024   7.294  20.134  0.00  0.00    +0.000 A 
ATOM     19  C   UNL     1       1.479   8.594  20.028  0.00  0.00    +0.000 A 
ENDROOT
BRANCH  18  20
ATOM     20  O   UNL     1       1.758   6.508  21.226  0.00  0.00    +0.000 OA
ATOM     21  H   UNL     1       1.874   7.025  22.039  0.00  0.00    +0.000 HD
ENDBRANCH  18  20
TORSDOF 1
ENDMDL
MODEL 6
REMARK VINA RESULT:      -6.3      2.207      3.807
REMARK  Name = 
REMARK  2 active torsions:
REMARK  status: ('A' for Active; 'I' for Inactive)
REMARK    1  A    between atoms: C_1  and  N_2
REMARK    2  A    between atoms: C_18  and  O_19
REMARK                            x       y       z     vdW  Elec       q    Type
REMARK                         _______ _______ _______ _____ _____    ______ ____
ROOT
ATOM      1  C   UNL     1       6.479   7.282  16.705  0.00  0.00    +0.000 C 
ATOM      2  N   UNL     1       5.630   6.093  16.584  0.00  0.00    +0.000 NA
ATOM      3  C   UNL     1       6.491   4.908  16.438  0.00  0.00    +0.000 C 
ATOM      4  C   UNL     1       5.680   3.651  16.129  0.00  0.00    +0.000 C 
ATOM      5  C   UNL     1       4.472   3.496  17.011  0.00  0.00    +0.000 A 
ATOM      6  C   UNL     1       3.795   2.273  17.017  0.00  0.00    +0.000 A 
ATOM      7  C   UNL     1       2.631   2.129  17.757  0.00  0.00    +0.000 A 
ATOM      8  C   UNL     1       2.141   3.202  18.501  0.00  0.00    +0.000 A 
ATOM      9  C   UNL     1       2.805   4.442  18.553  0.00  0.00    +0.000 A 
ATOM     10  C   UNL     1       3.975   4.586  17.758  0.00  0.00    +0.000 A 
ATOM     11  C   UNL     1       4.728   5.922  17.760  0.00  0.00    +0.000 C 
ATOM     12  C   UNL     1       3.694   7.069  17.840  0.00  0.00    +0.000 C 
ATOM     13  C   UNL     1       2.733   6.895  18.995  0.00  0.00    +0.000 A 
ATOM     14  C   UNL     1       2.255   8.038  19.662  0.00  0.00    +0.000 A 
ATOM     15  C   UNL     1       1.363   7.908  20.716  0.00  0.00    +0.000 A 
ATOM     16 BR   UNL     1       0.731   9.446  21.614  0.00  0.00    +0.000 Br
ATOM     17  C   UNL     1       0.938   6.648  21.119  0.00  0.00    +0.000 A 
ATOM     18  C   UNL     1       1.406   5.510  20.447  0.00  0.00    +0.000 A 
ATOM     19  C   UNL     1       2.296   5.597  19.351  0.00  0.00    +0.000 A 
ENDROOT
BRANCH  18  20
ATOM     20  O   UNL     1       0.982   4.292  20.913  0.00  0.00    +0.000 OA
ATOM     21  H   UNL     1       0.092   4.376  21.291  0.00  0.00    +0.000 HD
ENDBRANCH  18  20
TORSDOF 1
ENDMDL
MODEL 7
REMARK VINA RESULT:      -6.2      1.880      3.549
REMARK  Name = 
REMARK  2 active torsions:
REMARK  status: ('A' for Active; 'I' for Inactive)
REMARK    1  A    between atoms: C_1  and  N_2
REMARK    2  A    between atoms: C_18  and  O_19
REMARK                            x       y       z     vdW  Elec       q    Type
REMARK                         _______ _______ _______ _____ _____    ______ ____
ROOT
ATOM      1  C   UNL     1       5.171   4.479  15.948  0.00  0.00    +0.000 C 
ATOM      2  N   UNL     1       4.190   3.971  16.912  0.00  0.00    +0.000 NA
ATOM      3  C   UNL     1       4.771   2.817  17.617  0.00  0.00    +0.000 C 
ATOM      4  C   UNL     1       3.747   2.122  18.512  0.00  0.00    +0.000 C 
ATOM      5  C   UNL     1       2.945   3.081  19.347  0.00  0.00    +0.000 A 
ATOM      6  C   UNL     1       2.166   2.577  20.392  0.00  0.00    +0.000 A 
ATOM      7  C   UNL     1       1.353   3.429  21.125  0.00  0.00    +0.000 A 
ATOM      8  C   UNL     1       1.321   4.791  20.824  0.00  0.00    +0.000 A 
ATOM      9  C   UNL     1       2.112   5.351  19.804  0.00  0.00    +0.000 A 
ATOM     10  C   UNL     1       2.910   4.459  19.037  0.00  0.00    +0.000 A 
ATOM     11  C   UNL     1       3.777   5.011  17.900  0.00  0.00    +0.000 C 
ATOM     12  C   UNL     1       3.007   6.160  17.207  0.00  0.00    +0.000 C 
ATOM     13  C   UNL     1       2.533   7.206  18.192  0.00  0.00    +0.000 A 
ATOM     14  C   UNL     1       2.491   8.553  17.788  0.00  0.00    +0.000 A 
ATOM     15  C   UNL     1       2.047   9.530  18.666  0.00  0.00    +0.000 A 
ATOM     16 BR   UNL     1       2.002  11.340  18.122  0.00  0.00    +0.000 Br
ATOM     17  C   UNL     1       1.642   9.184  19.949  0.00  0.00    +0.000 A 
ATOM     18  C   UNL     1       1.673   7.840  20.347  0.00  0.00    +0.000 A 
ATOM     19  C   UNL     1       2.093   6.808  19.477  0.00  0.00    +0.000 A 
ENDROOT
BRANCH  18  20
ATOM     20  O   UNL     1       1.298   7.562  21.637  0.00  0.00    +0.000 OA
ATOM     21  H   UNL     1       0.492   8.056  21.858  0.00  0.00    +0.000 HD
ENDBRANCH  18  20
TORSDOF 1
ENDMDL
MODEL 8
REMARK VINA RESULT:      -6.1      7.903      9.638
REMARK  Name = 
REMARK  2 active torsions:
REMARK  status: ('A' for Active; 'I' for Inactive)
REMARK    1  A    between atoms: C_1  and  N_2
REMARK    2  A    between atoms: C_18  and  O_19
REMARK                            x       y       z     vdW  Elec       q    Type
REMARK                         _______ _______ _______ _____ _____    ______ ____
ROOT
ATOM      1  C   UNL     1      -4.956  13.514  23.660  0.00  0.00    +0.000 C 
ATOM      2  N   UNL     1      -5.229  12.695  22.475  0.00  0.00    +0.000 NA
ATOM      3  C   UNL     1      -6.578  13.011  21.979  0.00  0.00    +0.000 C 
ATOM      4  C   UNL     1      -7.004  12.072  20.852  0.00  0.00    +0.000 C 
ATOM      5  C   UNL     1      -5.937  11.876  19.811  0.00  0.00    +0.000 A 
ATOM      6  C   UNL     1      -6.279  11.261  18.603  0.00  0.00    +0.000 A 
ATOM      7  C   UNL     1      -5.299  10.993  17.659  0.00  0.00    +0.000 A 
ATOM      8  C   UNL     1      -3.973  11.347  17.912  0.00  0.00    +0.000 A 
ATOM      9  C   UNL     1      -3.586  11.998  19.098  0.00  0.00    +0.000 A 
ATOM     10  C   UNL     1      -4.596  12.229  20.072  0.00  0.00    +0.000 A 
ATOM     11  C   UNL     1      -4.226  12.917  21.391  0.00  0.00    +0.000 C 
ATOM     12  C   UNL     1      -2.824  12.431  21.824  0.00  0.00    +0.000 C 
ATOM     13  C   UNL     1      -1.796  12.599  20.727  0.00  0.00    +0.000 A 
ATOM     14  C   UNL     1      -0.470  12.914  21.076  0.00  0.00    +0.000 A 
ATOM     15  C   UNL     1       0.495  13.059  20.091  0.00  0.00    +0.000 A 
ATOM     16 BR   UNL     1       2.273  13.491  20.566  0.00  0.00    +0.000 Br
ATOM     17  C   UNL     1       0.157  12.897  18.754  0.00  0.00    +0.000 A 
ATOM     18  C   UNL     1      -1.162  12.573  18.406  0.00  0.00    +0.000 A 
ATOM     19  C   UNL     1      -2.172  12.389  19.379  0.00  0.00    +0.000 A 
ENDROOT
BRANCH  18  20
ATOM     20  O   UNL     1      -1.446  12.462  17.069  0.00  0.00    +0.000 OA
ATOM     21  H   UNL     1      -2.191  11.853  16.941  0.00  0.00    +0.000 HD
ENDBRANCH  18  20
TORSDOF 1
ENDMDL
MODEL 9
REMARK VINA RESULT:      -6.1      7.525      9.662
REMARK  Name = 
REMARK  2 active torsions:
REMARK  status: ('A' for Active; 'I' for Inactive)
REMARK    1  A    between atoms: C_1  and  N_2
REMARK    2  A    between atoms: C_18  and  O_19
REMARK                            x       y       z     vdW  Elec       q    Type
REMARK                         _______ _______ _______ _____ _____    ______ ____
ROOT
ATOM      1  C   UNL     1       1.188  12.556  20.571  0.00  0.00    +0.000 C 
ATOM      2  N   UNL     1      -0.110  12.507  21.252  0.00  0.00    +0.000 NA
ATOM      3  C   UNL     1      -0.183  13.618  22.214  0.00  0.00    +0.000 C 
ATOM      4  C   UNL     1      -1.432  13.531  23.089  0.00  0.00    +0.000 C 
ATOM      5  C   UNL     1      -2.683  13.240  22.306  0.00  0.00    +0.000 A 
ATOM      6  C   UNL     1      -3.922  13.393  22.935  0.00  0.00    +0.000 A 
ATOM      7  C   UNL     1      -5.086  13.052  22.263  0.00  0.00    +0.000 A 
ATOM      8  C   UNL     1      -5.021  12.565  20.957  0.00  0.00    +0.000 A 
ATOM      9  C   UNL     1      -3.800  12.425  20.271  0.00  0.00    +0.000 A 
ATOM     10  C   UNL     1      -2.613  12.741  20.987  0.00  0.00    +0.000 A 
ATOM     11  C   UNL     1      -1.253  12.589  20.296  0.00  0.00    +0.000 C 
ATOM     12  C   UNL     1      -1.303  11.343  19.381  0.00  0.00    +0.000 C 
ATOM     13  C   UNL     1      -2.482  11.375  18.434  0.00  0.00    +0.000 A 
ATOM     14  C   UNL     1      -2.339  10.821  17.148  0.00  0.00    +0.000 A 
ATOM     15  C   UNL     1      -3.407  10.825  16.265  0.00  0.00    +0.000 A 
ATOM     16 BR   UNL     1      -3.207  10.087  14.536  0.00  0.00    +0.000 Br
ATOM     17  C   UNL     1      -4.624  11.377  16.644  0.00  0.00    +0.000 A 
ATOM     18  C   UNL     1      -4.770  11.919  17.928  0.00  0.00    +0.000 A 
ATOM     19  C   UNL     1      -3.715  11.913  18.871  0.00  0.00    +0.000 A 
ENDROOT
BRANCH  18  20
ATOM     20  O   UNL     1      -5.982  12.484  18.234  0.00  0.00    +0.000 OA
ATOM     21  H   UNL     1      -6.344  12.071  19.034  0.00  0.00    +0.000 HD
ENDBRANCH  18  20
TORSDOF 1
ENDMDL
