MODEL 1
REMARK VINA RESULT:      -7.1      0.000      0.000
REMARK  Name = 
REMARK  6 active torsions:
REMARK  status: ('A' for Active; 'I' for Inactive)
REMARK    1  A    between atoms: C_1  and  C_2
REMARK    2  A    between atoms: C_2  and  S_3
REMARK    3  A    between atoms: S_3  and  C_6
REMARK    4  A    between atoms: C_9  and  C_10
REMARK    5  A    between atoms: C_10  and  C_11
REMARK    6  A    between atoms: C_16  and  C_17
REMARK                            x       y       z     vdW  Elec       q    Type
REMARK                         _______ _______ _______ _____ _____    ______ ____
ROOT
ATOM      1  C   UNL     1       3.936   4.106  18.122  0.00  0.00    +0.000 A 
ATOM      2  C   UNL     1       4.818   3.991  17.045  0.00  0.00    +0.000 A 
ATOM      3  C   UNL     1       6.057   4.634  17.096  0.00  0.00    +0.000 A 
ATOM      4  C   UNL     1       6.418   5.396  18.219  0.00  0.00    +0.000 A 
ATOM      5  C   UNL     1       5.525   5.490  19.296  0.00  0.00    +0.000 A 
ATOM      6  C   UNL     1       4.283   4.857  19.248  0.00  0.00    +0.000 A 
ENDROOT
BRANCH   1   7
ATOM      7  S   UNL     1       2.325   3.351  18.044  0.00  0.00    +0.000 S 
ATOM      8  O   UNL     1       2.445   2.160  17.226  0.00  0.00    +0.000 OA
ATOM      9  O   UNL     1       1.399   4.411  17.694  0.00  0.00    +0.000 OA
BRANCH   7  11
ATOM     10  C   UNL     1       0.964   3.739  20.378  0.00  0.00    +0.000 C 
ATOM     11  C   UNL     1       1.986   2.832  19.716  0.00  0.00    +0.000 C 
ENDBRANCH   7  11
ENDBRANCH   1   7
BRANCH   4  12
ATOM     12  C   UNL     1       7.772   6.062  18.302  0.00  0.00    +0.000 C 
BRANCH  12  13
ATOM     13  C   UNL     1       7.815   7.542  17.957  0.00  0.00    +0.000 C 
ATOM     14  O   UNL     1       7.283   7.928  16.917  0.00  0.00    +0.000 OA
ATOM     15  N   UNL     1       8.563   8.313  18.822  0.00  0.00    +0.000 N 
ATOM     16  C   UNL     1       8.686   9.665  18.643  0.00  0.00    +0.000 A 
ATOM     17  N   UNL     1       8.067  10.437  17.790  0.00  0.00    +0.000 NA
ATOM     18  C   UNL     1       8.492  11.745  17.938  0.00  0.00    +0.000 A 
ATOM     19  C   UNL     1       7.891  12.786  17.063  0.00  0.00    +0.000 C 
ATOM     20  C   UNL     1       9.464  11.928  18.901  0.00  0.00    +0.000 A 
ATOM     21  S   UNL     1       9.798  10.434  19.684  0.00  0.00    +0.000 S 
ATOM     22  H   UNL     1       9.063   7.903  19.596  0.00  0.00    +0.000 HD
ENDBRANCH  12  13
ENDBRANCH   4  12
TORSDOF 4
ENDMDL
MODEL 2
REMARK VINA RESULT:      -7.0      5.678      7.153
REMARK  Name = 
REMARK  6 active torsions:
REMARK  status: ('A' for Active; 'I' for Inactive)
REMARK    1  A    between atoms: C_1  and  C_2
REMARK    2  A    between atoms: C_2  and  S_3
REMARK    3  A    between atoms: S_3  and  C_6
REMARK    4  A    between atoms: C_9  and  C_10
REMARK    5  A    between atoms: C_10  and  C_11
REMARK    6  A    between atoms: C_16  and  C_17
REMARK                            x       y       z     vdW  Elec       q    Type
REMARK                         _______ _______ _______ _____ _____    ______ ____
ROOT
ATOM      1  C   UNL     1       2.935   4.819  19.428  0.00  0.00    +0.000 A 
ATOM      2  C   UNL     1       2.229   5.764  20.175  0.00  0.00    +0.000 A 
ATOM      3  C   UNL     1       2.076   7.062  19.679  0.00  0.00    +0.000 A 
ATOM      4  C   UNL     1       2.632   7.420  18.440  0.00  0.00    +0.000 A 
ATOM      5  C   UNL     1       3.328   6.454  17.698  0.00  0.00    +0.000 A 
ATOM      6  C   UNL     1       3.489   5.159  18.192  0.00  0.00    +0.000 A 
ENDROOT
BRANCH   1   7
ATOM      7  S   UNL     1       3.197   3.181  20.077  0.00  0.00    +0.000 S 
ATOM      8  O   UNL     1       2.568   3.127  21.382  0.00  0.00    +0.000 OA
ATOM      9  O   UNL     1       4.613   2.906  19.915  0.00  0.00    +0.000 OA
BRANCH   7  11
ATOM     10  C   UNL     1       0.839   2.560  18.851  0.00  0.00    +0.000 C 
ATOM     11  C   UNL     1       2.283   2.109  18.984  0.00  0.00    +0.000 C 
ENDBRANCH   7  11
ENDBRANCH   1   7
BRANCH   4  12
ATOM     12  C   UNL     1       2.439   8.809  17.876  0.00  0.00    +0.000 C 
BRANCH  12  13
ATOM     13  C   UNL     1       1.264   9.601  18.426  0.00  0.00    +0.000 C 
ATOM     14  O   UNL     1       1.339  10.066  19.563  0.00  0.00    +0.000 OA
ATOM     15  N   UNL     1       0.155   9.630  17.608  0.00  0.00    +0.000 N 
ATOM     16  C   UNL     1      -0.976  10.312  17.968  0.00  0.00    +0.000 A 
ATOM     17  N   UNL     1      -1.161  11.110  18.985  0.00  0.00    +0.000 NA
ATOM     18  C   UNL     1      -2.459  11.587  18.985  0.00  0.00    +0.000 A 
ATOM     19  C   UNL     1      -2.867  12.527  20.062  0.00  0.00    +0.000 C 
ATOM     20  C   UNL     1      -3.249  11.105  17.960  0.00  0.00    +0.000 A 
ATOM     21  S   UNL     1      -2.316  10.086  16.936  0.00  0.00    +0.000 S 
ATOM     22  H   UNL     1       0.132   9.129  16.733  0.00  0.00    +0.000 HD
ENDBRANCH  12  13
ENDBRANCH   4  12
TORSDOF 4
ENDMDL
MODEL 3
REMARK VINA RESULT:      -6.9      0.467      1.143
REMARK  Name = 
REMARK  6 active torsions:
REMARK  status: ('A' for Active; 'I' for Inactive)
REMARK    1  A    between atoms: C_1  and  C_2
REMARK    2  A    between atoms: C_2  and  S_3
REMARK    3  A    between atoms: S_3  and  C_6
REMARK    4  A    between atoms: C_9  and  C_10
REMARK    5  A    between atoms: C_10  and  C_11
REMARK    6  A    between atoms: C_16  and  C_17
REMARK                            x       y       z     vdW  Elec       q    Type
REMARK                         _______ _______ _______ _____ _____    ______ ____
ROOT
ATOM      1  C   UNL     1       3.809   4.317  18.200  0.00  0.00    +0.000 A 
ATOM      2  C   UNL     1       4.357   4.765  19.404  0.00  0.00    +0.000 A 
ATOM      3  C   UNL     1       5.639   5.323  19.414  0.00  0.00    +0.000 A 
ATOM      4  C   UNL     1       6.377   5.430  18.225  0.00  0.00    +0.000 A 
ATOM      5  C   UNL     1       5.806   4.986  17.023  0.00  0.00    +0.000 A 
ATOM      6  C   UNL     1       4.530   4.422  17.008  0.00  0.00    +0.000 A 
ENDROOT
BRANCH   1   7
ATOM      7  S   UNL     1       2.207   3.541  18.180  0.00  0.00    +0.000 S 
ATOM      8  O   UNL     1       2.418   2.108  18.247  0.00  0.00    +0.000 OA
ATOM      9  O   UNL     1       1.481   4.142  17.077  0.00  0.00    +0.000 OA
BRANCH   7  11
ATOM     10  C   UNL     1       1.055   2.853  20.558  0.00  0.00    +0.000 C 
ATOM     11  C   UNL     1       1.438   4.051  19.707  0.00  0.00    +0.000 C 
ENDBRANCH   7  11
ENDBRANCH   1   7
BRANCH   4  12
ATOM     12  C   UNL     1       7.747   6.068  18.218  0.00  0.00    +0.000 C 
BRANCH  12  13
ATOM     13  C   UNL     1       7.796   7.552  17.891  0.00  0.00    +0.000 C 
ATOM     14  O   UNL     1       7.269   7.952  16.853  0.00  0.00    +0.000 OA
ATOM     15  N   UNL     1       8.543   8.311  18.768  0.00  0.00    +0.000 N 
ATOM     16  C   UNL     1       8.671   9.664  18.605  0.00  0.00    +0.000 A 
ATOM     17  N   UNL     1       8.056  10.448  17.760  0.00  0.00    +0.000 NA
ATOM     18  C   UNL     1       8.484  11.753  17.925  0.00  0.00    +0.000 A 
ATOM     19  C   UNL     1       7.890  12.806  17.060  0.00  0.00    +0.000 C 
ATOM     20  C   UNL     1       9.454  11.922  18.894  0.00  0.00    +0.000 A 
ATOM     21  S   UNL     1       9.780  10.417  19.660  0.00  0.00    +0.000 S 
ATOM     22  H   UNL     1       9.039   7.890  19.538  0.00  0.00    +0.000 HD
ENDBRANCH  12  13
ENDBRANCH   4  12
TORSDOF 4
ENDMDL
MODEL 4
REMARK VINA RESULT:      -6.9      6.818      8.445
REMARK  Name = 
REMARK  6 active torsions:
REMARK  status: ('A' for Active; 'I' for Inactive)
REMARK    1  A    between atoms: C_1  and  C_2
REMARK    2  A    between atoms: C_2  and  S_3
REMARK    3  A    between atoms: S_3  and  C_6
REMARK    4  A    between atoms: C_9  and  C_10
REMARK    5  A    between atoms: C_10  and  C_11
REMARK    6  A    between atoms: C_16  and  C_17
REMARK                            x       y       z     vdW  Elec       q    Type
REMARK                         _______ _______ _______ _____ _____    ______ ____
ROOT
ATOM      1  C   UNL     1       2.359   6.596  19.465  0.00  0.00    +0.000 A 
ATOM      2  C   UNL     1       2.574   7.166  18.208  0.00  0.00    +0.000 A 
ATOM      3  C   UNL     1       2.173   8.483  17.969  0.00  0.00    +0.000 A 
ATOM      4  C   UNL     1       1.552   9.232  18.981  0.00  0.00    +0.000 A 
ATOM      5  C   UNL     1       1.355   8.649  20.240  0.00  0.00    +0.000 A 
ATOM      6  C   UNL     1       1.747   7.331  20.483  0.00  0.00    +0.000 A 
ENDROOT
BRANCH   1   7
ATOM      7  S   UNL     1       2.801   4.897  19.765  0.00  0.00    +0.000 S 
ATOM      8  O   UNL     1       2.390   4.575  21.118  0.00  0.00    +0.000 OA
ATOM      9  O   UNL     1       4.185   4.762  19.349  0.00  0.00    +0.000 OA
BRANCH   7  11
ATOM     10  C   UNL     1       2.563   3.516  17.422  0.00  0.00    +0.000 C 
ATOM     11  C   UNL     1       1.779   3.958  18.645  0.00  0.00    +0.000 C 
ENDBRANCH   7  11
ENDBRANCH   1   7
BRANCH   4  12
ATOM     12  C   UNL     1       1.151  10.670  18.745  0.00  0.00    +0.000 C 
BRANCH  12  13
ATOM     13  C   UNL     1      -0.341  10.963  18.760  0.00  0.00    +0.000 C 
ATOM     14  O   UNL     1      -0.897  11.172  19.838  0.00  0.00    +0.000 OA
ATOM     15  N   UNL     1      -0.961  10.859  17.533  0.00  0.00    +0.000 N 
ATOM     16  C   UNL     1      -2.300  11.102  17.390  0.00  0.00    +0.000 A 
ATOM     17  N   UNL     1      -3.143  11.575  18.269  0.00  0.00    +0.000 NA
ATOM     18  C   UNL     1      -4.408  11.659  17.716  0.00  0.00    +0.000 A 
ATOM     19  C   UNL     1      -5.513  12.190  18.557  0.00  0.00    +0.000 C 
ATOM     20  C   UNL     1      -4.497  11.211  16.413  0.00  0.00    +0.000 A 
ATOM     21  S   UNL     1      -2.941  10.742  15.851  0.00  0.00    +0.000 S 
ATOM     22  H   UNL     1      -0.453  10.574  16.709  0.00  0.00    +0.000 HD
ENDBRANCH  12  13
ENDBRANCH   4  12
TORSDOF 4
ENDMDL
MODEL 5
REMARK VINA RESULT:      -6.9      5.853      7.328
REMARK  Name = 
REMARK  6 active torsions:
REMARK  status: ('A' for Active; 'I' for Inactive)
REMARK    1  A    between atoms: C_1  and  C_2
REMARK    2  A    between atoms: C_2  and  S_3
REMARK    3  A    between atoms: S_3  and  C_6
REMARK    4  A    between atoms: C_9  and  C_10
REMARK    5  A    between atoms: C_10  and  C_11
REMARK    6  A    between atoms: C_16  and  C_17
REMARK                            x       y       z     vdW  Elec       q    Type
REMARK                         _______ _______ _______ _____ _____    ______ ____
ROOT
ATOM      1  C   UNL     1       2.301   4.787  19.657  0.00  0.00    +0.000 A 
ATOM      2  C   UNL     1       1.899   5.800  20.530  0.00  0.00    +0.000 A 
ATOM      3  C   UNL     1       1.893   7.127  20.091  0.00  0.00    +0.000 A 
ATOM      4  C   UNL     1       2.291   7.446  18.783  0.00  0.00    +0.000 A 
ATOM      5  C   UNL     1       2.678   6.414  17.916  0.00  0.00    +0.000 A 
ATOM      6  C   UNL     1       2.694   5.088  18.351  0.00  0.00    +0.000 A 
ENDROOT
BRANCH   1   7
ATOM      7  S   UNL     1       2.381   3.100  20.221  0.00  0.00    +0.000 S 
ATOM      8  O   UNL     1       1.258   2.393  19.634  0.00  0.00    +0.000 OA
ATOM      9  O   UNL     1       2.557   3.164  21.660  0.00  0.00    +0.000 OA
BRANCH   7  11
ATOM     10  C   UNL     1       3.563   1.486  18.364  0.00  0.00    +0.000 C 
ATOM     11  C   UNL     1       3.874   2.449  19.495  0.00  0.00    +0.000 C 
ENDBRANCH   7  11
ENDBRANCH   1   7
BRANCH   4  12
ATOM     12  C   UNL     1       2.249   8.873  18.286  0.00  0.00    +0.000 C 
BRANCH  12  13
ATOM     13  C   UNL     1       1.061   9.708  18.738  0.00  0.00    +0.000 C 
ATOM     14  O   UNL     1       1.055  10.165  19.880  0.00  0.00    +0.000 OA
ATOM     15  N   UNL     1       0.030   9.784  17.826  0.00  0.00    +0.000 N 
ATOM     16  C   UNL     1      -1.100  10.508  18.091  0.00  0.00    +0.000 A 
ATOM     17  N   UNL     1      -1.343  11.309  19.095  0.00  0.00    +0.000 NA
ATOM     18  C   UNL     1      -2.617  11.836  18.985  0.00  0.00    +0.000 A 
ATOM     19  C   UNL     1      -3.080  12.787  20.030  0.00  0.00    +0.000 C 
ATOM     20  C   UNL     1      -3.331  11.390  17.891  0.00  0.00    +0.000 A 
ATOM     21  S   UNL     1      -2.353  10.340  16.944  0.00  0.00    +0.000 S 
ATOM     22  H   UNL     1       0.065   9.288  16.948  0.00  0.00    +0.000 HD
ENDBRANCH  12  13
ENDBRANCH   4  12
TORSDOF 4
ENDMDL
MODEL 6
REMARK VINA RESULT:      -6.9      5.855      7.253
REMARK  Name = 
REMARK  6 active torsions:
REMARK  status: ('A' for Active; 'I' for Inactive)
REMARK    1  A    between atoms: C_1  and  C_2
REMARK    2  A    between atoms: C_2  and  S_3
REMARK    3  A    between atoms: S_3  and  C_6
REMARK    4  A    between atoms: C_9  and  C_10
REMARK    5  A    between atoms: C_10  and  C_11
REMARK    6  A    between atoms: C_16  and  C_17
REMARK                            x       y       z     vdW  Elec       q    Type
REMARK                         _______ _______ _______ _____ _____    ______ ____
ROOT
ATOM      1  C   UNL     1       2.330   4.748  19.620  0.00  0.00    +0.000 A 
ATOM      2  C   UNL     1       2.557   5.025  18.270  0.00  0.00    +0.000 A 
ATOM      3  C   UNL     1       2.507   6.347  17.818  0.00  0.00    +0.000 A 
ATOM      4  C   UNL     1       2.226   7.393  18.711  0.00  0.00    +0.000 A 
ATOM      5  C   UNL     1       2.014   7.098  20.065  0.00  0.00    +0.000 A 
ATOM      6  C   UNL     1       2.055   5.780  20.521  0.00  0.00    +0.000 A 
ENDROOT
BRANCH   1   7
ATOM      7  S   UNL     1       2.322   3.064  20.198  0.00  0.00    +0.000 S 
ATOM      8  O   UNL     1       1.223   2.385  19.540  0.00  0.00    +0.000 OA
ATOM      9  O   UNL     1       2.401   3.134  21.645  0.00  0.00    +0.000 OA
BRANCH   7  11
ATOM     10  C   UNL     1       3.589   1.457  18.391  0.00  0.00    +0.000 C 
ATOM     11  C   UNL     1       3.843   2.365  19.581  0.00  0.00    +0.000 C 
ENDBRANCH   7  11
ENDBRANCH   1   7
BRANCH   4  12
ATOM     12  C   UNL     1       2.210   8.830  18.242  0.00  0.00    +0.000 C 
BRANCH  12  13
ATOM     13  C   UNL     1       1.036   9.677  18.709  0.00  0.00    +0.000 C 
ATOM     14  O   UNL     1       1.044  10.126  19.854  0.00  0.00    +0.000 OA
ATOM     15  N   UNL     1      -0.002   9.771  17.806  0.00  0.00    +0.000 N 
ATOM     16  C   UNL     1      -1.121  10.507  18.085  0.00  0.00    +0.000 A 
ATOM     17  N   UNL     1      -1.346  11.303  19.096  0.00  0.00    +0.000 NA
ATOM     18  C   UNL     1      -2.614  11.847  19.000  0.00  0.00    +0.000 A 
ATOM     19  C   UNL     1      -3.057  12.797  20.055  0.00  0.00    +0.000 C 
ATOM     20  C   UNL     1      -3.343  11.417  17.909  0.00  0.00    +0.000 A 
ATOM     21  S   UNL     1      -2.385  10.361  16.948  0.00  0.00    +0.000 S 
ATOM     22  H   UNL     1       0.020   9.280  16.925  0.00  0.00    +0.000 HD
ENDBRANCH  12  13
ENDBRANCH   4  12
TORSDOF 4
ENDMDL
MODEL 7
REMARK VINA RESULT:      -6.8      5.021      6.658
REMARK  Name = 
REMARK  6 active torsions:
REMARK  status: ('A' for Active; 'I' for Inactive)
REMARK    1  A    between atoms: C_1  and  C_2
REMARK    2  A    between atoms: C_2  and  S_3
REMARK    3  A    between atoms: S_3  and  C_6
REMARK    4  A    between atoms: C_9  and  C_10
REMARK    5  A    between atoms: C_10  and  C_11
REMARK    6  A    between atoms: C_16  and  C_17
REMARK                            x       y       z     vdW  Elec       q    Type
REMARK                         _______ _______ _______ _____ _____    ______ ____
ROOT
ATOM      1  C   UNL     1       5.649   5.311  17.531  0.00  0.00    +0.000 A 
ATOM      2  C   UNL     1       4.562   6.017  17.009  0.00  0.00    +0.000 A 
ATOM      3  C   UNL     1       3.453   6.274  17.819  0.00  0.00    +0.000 A 
ATOM      4  C   UNL     1       3.423   5.825  19.149  0.00  0.00    +0.000 A 
ATOM      5  C   UNL     1       4.528   5.129  19.660  0.00  0.00    +0.000 A 
ATOM      6  C   UNL     1       5.635   4.863  18.854  0.00  0.00    +0.000 A 
ENDROOT
BRANCH   1   7
ATOM      7  S   UNL     1       7.040   4.915  16.493  0.00  0.00    +0.000 S 
ATOM      8  O   UNL     1       8.021   4.241  17.321  0.00  0.00    +0.000 OA
ATOM      9  O   UNL     1       7.372   6.134  15.780  0.00  0.00    +0.000 OA
BRANCH   7  11
ATOM     10  C   UNL     1       6.371   4.306  13.917  0.00  0.00    +0.000 C 
ATOM     11  C   UNL     1       6.408   3.728  15.321  0.00  0.00    +0.000 C 
ENDBRANCH   7  11
ENDBRANCH   1   7
BRANCH   4  12
ATOM     12  C   UNL     1       2.246   6.133  20.045  0.00  0.00    +0.000 C 
BRANCH  12  13
ATOM     13  C   UNL     1       1.789   7.583  20.081  0.00  0.00    +0.000 C 
ATOM     14  O   UNL     1       2.171   8.350  19.198  0.00  0.00    +0.000 OA
ATOM     15  N   UNL     1       1.053   7.927  21.195  0.00  0.00    +0.000 N 
ATOM     16  C   UNL     1       0.567   9.196  21.361  0.00  0.00    +0.000 A 
ATOM     17  N   UNL     1       0.577  10.193  20.516  0.00  0.00    +0.000 NA
ATOM     18  C   UNL     1      -0.012  11.306  21.088  0.00  0.00    +0.000 A 
ATOM     19  C   UNL     1      -0.112  12.548  20.277  0.00  0.00    +0.000 C 
ATOM     20  C   UNL     1      -0.438  11.127  22.389  0.00  0.00    +0.000 A 
ATOM     21  S   UNL     1      -0.153   9.503  22.878  0.00  0.00    +0.000 S 
ATOM     22  H   UNL     1       0.873   7.264  21.933  0.00  0.00    +0.000 HD
ENDBRANCH  12  13
ENDBRANCH   4  12
TORSDOF 4
ENDMDL
MODEL 8
REMARK VINA RESULT:      -6.8      6.707      8.318
REMARK  Name = 
REMARK  6 active torsions:
REMARK  status: ('A' for Active; 'I' for Inactive)
REMARK    1  A    between atoms: C_1  and  C_2
REMARK    2  A    between atoms: C_2  and  S_3
REMARK    3  A    between atoms: S_3  and  C_6
REMARK    4  A    between atoms: C_9  and  C_10
REMARK    5  A    between atoms: C_10  and  C_11
REMARK    6  A    between atoms: C_16  and  C_17
REMARK                            x       y       z     vdW  Elec       q    Type
REMARK                         _______ _______ _______ _____ _____    ______ ____
ROOT
ATOM      1  C   UNL     1       2.408   6.532  18.965  0.00  0.00    +0.000 A 
ATOM      2  C   UNL     1       2.455   7.306  17.803  0.00  0.00    +0.000 A 
ATOM      3  C   UNL     1       2.033   8.637  17.842  0.00  0.00    +0.000 A 
ATOM      4  C   UNL     1       1.559   9.198  19.039  0.00  0.00    +0.000 A 
ATOM      5  C   UNL     1       1.531   8.411  20.198  0.00  0.00    +0.000 A 
ATOM      6  C   UNL     1       1.944   7.079  20.164  0.00  0.00    +0.000 A 
ENDROOT
BRANCH   1   7
ATOM      7  S   UNL     1       2.877   4.815  18.916  0.00  0.00    +0.000 S 
ATOM      8  O   UNL     1       3.713   4.562  20.073  0.00  0.00    +0.000 OA
ATOM      9  O   UNL     1       3.363   4.568  17.571  0.00  0.00    +0.000 OA
BRANCH   7  11
ATOM     10  C   UNL     1       1.168   3.494  20.585  0.00  0.00    +0.000 C 
ATOM     11  C   UNL     1       1.350   3.921  19.140  0.00  0.00    +0.000 C 
ENDBRANCH   7  11
ENDBRANCH   1   7
BRANCH   4  12
ATOM     12  C   UNL     1       1.138  10.648  19.102  0.00  0.00    +0.000 C 
BRANCH  12  13
ATOM     13  C   UNL     1      -0.356  10.920  19.006  0.00  0.00    +0.000 C 
ATOM     14  O   UNL     1      -0.991  11.126  20.039  0.00  0.00    +0.000 OA
ATOM     15  N   UNL     1      -0.882  10.800  17.737  0.00  0.00    +0.000 N 
ATOM     16  C   UNL     1      -2.211  11.024  17.496  0.00  0.00    +0.000 A 
ATOM     17  N   UNL     1      -3.123  11.489  18.307  0.00  0.00    +0.000 NA
ATOM     18  C   UNL     1      -4.345  11.552  17.663  0.00  0.00    +0.000 A 
ATOM     19  C   UNL     1      -5.516  12.071  18.418  0.00  0.00    +0.000 C 
ATOM     20  C   UNL     1      -4.332  11.096  16.360  0.00  0.00    +0.000 A 
ATOM     21  S   UNL     1      -2.733  10.646  15.916  0.00  0.00    +0.000 S 
ATOM     22  H   UNL     1      -0.312  10.519  16.954  0.00  0.00    +0.000 HD
ENDBRANCH  12  13
ENDBRANCH   4  12
TORSDOF 4
ENDMDL
MODEL 9
REMARK VINA RESULT:      -6.8      4.707      5.888
REMARK  Name = 
REMARK  6 active torsions:
REMARK  status: ('A' for Active; 'I' for Inactive)
REMARK    1  A    between atoms: C_1  and  C_2
REMARK    2  A    between atoms: C_2  and  S_3
REMARK    3  A    between atoms: S_3  and  C_6
REMARK    4  A    between atoms: C_9  and  C_10
REMARK    5  A    between atoms: C_10  and  C_11
REMARK    6  A    between atoms: C_16  and  C_17
REMARK                            x       y       z     vdW  Elec       q    Type
REMARK                         _______ _______ _______ _____ _____    ______ ____
ROOT
ATOM      1  C   UNL     1       3.463   3.880  18.999  0.00  0.00    +0.000 A 
ATOM      2  C   UNL     1       2.335   4.256  18.267  0.00  0.00    +0.000 A 
ATOM      3  C   UNL     1       2.235   5.560  17.774  0.00  0.00    +0.000 A 
ATOM      4  C   UNL     1       3.258   6.491  18.013  0.00  0.00    +0.000 A 
ATOM      5  C   UNL     1       4.390   6.092  18.739  0.00  0.00    +0.000 A 
ATOM      6  C   UNL     1       4.491   4.794  19.241  0.00  0.00    +0.000 A 
ENDROOT
BRANCH   1   7
ATOM      7  S   UNL     1       3.574   2.244  19.694  0.00  0.00    +0.000 S 
ATOM      8  O   UNL     1       4.810   2.177  20.449  0.00  0.00    +0.000 OA
ATOM      9  O   UNL     1       3.311   1.324  18.602  0.00  0.00    +0.000 OA
BRANCH   7  11
ATOM     10  C   UNL     1       2.109   3.422  21.673  0.00  0.00    +0.000 C 
ATOM     11  C   UNL     1       2.221   2.150  20.852  0.00  0.00    +0.000 C 
ENDBRANCH   7  11
ENDBRANCH   1   7
BRANCH   4  12
ATOM     12  C   UNL     1       3.179   7.892  17.450  0.00  0.00    +0.000 C 
BRANCH  12  13
ATOM     13  C   UNL     1       2.180   8.827  18.112  0.00  0.00    +0.000 C 
ATOM     14  O   UNL     1       1.789   9.816  17.492  0.00  0.00    +0.000 OA
ATOM     15  N   UNL     1       1.883   8.519  19.422  0.00  0.00    +0.000 N 
ATOM     16  C   UNL     1       0.993   9.268  20.144  0.00  0.00    +0.000 A 
ATOM     17  N   UNL     1       0.217  10.236  19.734  0.00  0.00    +0.000 NA
ATOM     18  C   UNL     1      -0.524  10.732  20.791  0.00  0.00    +0.000 A 
ATOM     19  C   UNL     1      -1.483  11.836  20.526  0.00  0.00    +0.000 C 
ATOM     20  C   UNL     1      -0.263  10.131  22.007  0.00  0.00    +0.000 A 
ATOM     21  S   UNL     1       0.886   8.869  21.800  0.00  0.00    +0.000 S 
ATOM     22  H   UNL     1       2.331   7.751  19.898  0.00  0.00    +0.000 HD
ENDBRANCH  12  13
ENDBRANCH   4  12
TORSDOF 4
ENDMDL
