MODEL 1
REMARK VINA RESULT:      -7.6      0.000      0.000
REMARK  Name = 
REMARK  2 active torsions:
REMARK  status: ('A' for Active; 'I' for Inactive)
REMARK    1  A    between atoms: N_11  and  C_12
REMARK    2  A    between atoms: C_12  and  N_13
REMARK                            x       y       z     vdW  Elec       q    Type
REMARK                         _______ _______ _______ _____ _____    ______ ____
ROOT
ATOM      1  C   UNL     1       2.306   7.460  19.564  0.00  0.00    +0.000 C 
ENDROOT
BRANCH   1  12
ATOM      2  O   UNL     1       1.437   8.530  22.108  0.00  0.00    +0.000 OA
ATOM      3  C   UNL     1       1.057   9.055  21.056  0.00  0.00    +0.000 A 
ATOM      4  C   UNL     1       0.098  10.201  21.124  0.00  0.00    +0.000 A 
ATOM      5  C   UNL     1      -0.361  10.766  22.316  0.00  0.00    +0.000 A 
ATOM      6  C   UNL     1      -1.343  11.775  22.287  0.00  0.00    +0.000 A 
ATOM      7  C   UNL     1      -1.898  12.183  21.074  0.00  0.00    +0.000 A 
ATOM      8  C   UNL     1      -1.416  11.651  19.881  0.00  0.00    +0.000 A 
ATOM      9  C   UNL     1      -0.387  10.712  19.939  0.00  0.00    +0.000 A 
ATOM     10  C   UNL     1       0.311  10.350  18.723  0.00  0.00    +0.000 A 
ATOM     11  N   UNL     1       1.190   9.413  18.658  0.00  0.00    +0.000 NA
ATOM     12  N   UNL     1       1.419   8.626  19.768  0.00  0.00    +0.000 N 
ENDBRANCH   1  12
BRANCH   1  13
ATOM     13  N   UNL     1       2.271   6.902  18.182  0.00  0.00    +0.000 NA
ATOM     14  C   UNL     1       3.375   7.263  17.283  0.00  0.00    +0.000 C 
ATOM     15  C   UNL     1       4.745   6.813  17.779  0.00  0.00    +0.000 C 
ATOM     16  C   UNL     1       4.850   5.296  18.096  0.00  0.00    +0.000 C 
ATOM     17  C   UNL     1       5.263   4.453  16.851  0.00  0.00    +0.000 C 
ATOM     18  C   UNL     1       6.694   4.682  16.354  0.00  0.00    +0.000 C 
ATOM     19  C   UNL     1       7.713   4.517  17.476  0.00  0.00    +0.000 C 
ATOM     20  C   UNL     1       7.371   5.415  18.655  0.00  0.00    +0.000 C 
ATOM     21  C   UNL     1       5.960   5.122  19.178  0.00  0.00    +0.000 C 
ATOM     22  C   UNL     1       3.497   4.727  18.642  0.00  0.00    +0.000 C 
ATOM     23  C   UNL     1       2.211   5.436  18.183  0.00  0.00    +0.000 C 
ENDBRANCH   1  13
TORSDOF 2
ENDMDL
MODEL 2
REMARK VINA RESULT:      -7.3      1.010      1.304
REMARK  Name = 
REMARK  2 active torsions:
REMARK  status: ('A' for Active; 'I' for Inactive)
REMARK    1  A    between atoms: N_11  and  C_12
REMARK    2  A    between atoms: C_12  and  N_13
REMARK                            x       y       z     vdW  Elec       q    Type
REMARK                         _______ _______ _______ _____ _____    ______ ____
ROOT
ATOM      1  C   UNL     1       2.566   6.965  20.056  0.00  0.00    +0.000 C 
ENDROOT
BRANCH   1  12
ATOM      2  O   UNL     1       1.128   8.567  21.989  0.00  0.00    +0.000 OA
ATOM      3  C   UNL     1       1.067   8.848  20.787  0.00  0.00    +0.000 A 
ATOM      4  C   UNL     1       0.191   9.980  20.352  0.00  0.00    +0.000 A 
ATOM      5  C   UNL     1      -0.529  10.792  21.230  0.00  0.00    +0.000 A 
ATOM      6  C   UNL     1      -1.409  11.770  20.726  0.00  0.00    +0.000 A 
ATOM      7  C   UNL     1      -1.603  11.901  19.351  0.00  0.00    +0.000 A 
ATOM      8  C   UNL     1      -0.859  11.121  18.471  0.00  0.00    +0.000 A 
ATOM      9  C   UNL     1       0.063  10.218  18.999  0.00  0.00    +0.000 A 
ATOM     10  C   UNL     1       1.032   9.598  18.120  0.00  0.00    +0.000 A 
ATOM     11  N   UNL     1       1.841   8.670  18.492  0.00  0.00    +0.000 NA
ATOM     12  N   UNL     1       1.727   8.147  19.763  0.00  0.00    +0.000 N 
ENDBRANCH   1  12
BRANCH   1  13
ATOM     13  N   UNL     1       2.192   5.746  19.284  0.00  0.00    +0.000 NA
ATOM     14  C   UNL     1       2.394   5.783  17.829  0.00  0.00    +0.000 C 
ATOM     15  C   UNL     1       3.845   5.997  17.414  0.00  0.00    +0.000 C 
ATOM     16  C   UNL     1       4.847   4.974  18.018  0.00  0.00    +0.000 C 
ATOM     17  C   UNL     1       5.007   3.701  17.134  0.00  0.00    +0.000 C 
ATOM     18  C   UNL     1       5.697   3.926  15.785  0.00  0.00    +0.000 C 
ATOM     19  C   UNL     1       7.036   4.636  15.950  0.00  0.00    +0.000 C 
ATOM     20  C   UNL     1       6.869   5.934  16.726  0.00  0.00    +0.000 C 
ATOM     21  C   UNL     1       6.238   5.676  18.099  0.00  0.00    +0.000 C 
ATOM     22  C   UNL     1       4.410   4.520  19.452  0.00  0.00    +0.000 C 
ATOM     23  C   UNL     1       2.902   4.553  19.761  0.00  0.00    +0.000 C 
ENDBRANCH   1  13
TORSDOF 2
ENDMDL
MODEL 3
REMARK VINA RESULT:      -7.1      1.378      2.013
REMARK  Name = 
REMARK  2 active torsions:
REMARK  status: ('A' for Active; 'I' for Inactive)
REMARK    1  A    between atoms: N_11  and  C_12
REMARK    2  A    between atoms: C_12  and  N_13
REMARK                            x       y       z     vdW  Elec       q    Type
REMARK                         _______ _______ _______ _____ _____    ______ ____
ROOT
ATOM      1  C   UNL     1       2.651   7.068  20.097  0.00  0.00    +0.000 C 
ENDROOT
BRANCH   1  12
ATOM      2  O   UNL     1       1.995   9.172  18.222  0.00  0.00    +0.000 OA
ATOM      3  C   UNL     1       1.385   9.088  19.294  0.00  0.00    +0.000 A 
ATOM      4  C   UNL     1       0.358  10.124  19.625  0.00  0.00    +0.000 A 
ATOM      5  C   UNL     1      -0.006  11.164  18.768  0.00  0.00    +0.000 A 
ATOM      6  C   UNL     1      -0.908  12.155  19.203  0.00  0.00    +0.000 A 
ATOM      7  C   UNL     1      -1.406  12.131  20.507  0.00  0.00    +0.000 A 
ATOM      8  C   UNL     1      -1.076  11.076  21.351  0.00  0.00    +0.000 A 
ATOM      9  C   UNL     1      -0.244  10.068  20.864  0.00  0.00    +0.000 A 
ATOM     10  C   UNL     1      -0.106   8.837  21.615  0.00  0.00    +0.000 A 
ATOM     11  N   UNL     1       0.723   7.904  21.307  0.00  0.00    +0.000 NA
ATOM     12  N   UNL     1       1.613   8.107  20.274  0.00  0.00    +0.000 N 
ENDBRANCH   1  12
BRANCH   1  13
ATOM     13  N   UNL     1       2.205   5.893  19.297  0.00  0.00    +0.000 NA
ATOM     14  C   UNL     1       2.401   5.956  17.841  0.00  0.00    +0.000 C 
ATOM     15  C   UNL     1       3.859   6.100  17.422  0.00  0.00    +0.000 C 
ATOM     16  C   UNL     1       4.806   5.007  17.993  0.00  0.00    +0.000 C 
ATOM     17  C   UNL     1       4.889   3.750  17.076  0.00  0.00    +0.000 C 
ATOM     18  C   UNL     1       5.584   3.971  15.728  0.00  0.00    +0.000 C 
ATOM     19  C   UNL     1       6.961   4.601  15.902  0.00  0.00    +0.000 C 
ATOM     20  C   UNL     1       6.870   5.886  16.712  0.00  0.00    +0.000 C 
ATOM     21  C   UNL     1       6.234   5.628  18.082  0.00  0.00    +0.000 C 
ATOM     22  C   UNL     1       4.351   4.541  19.418  0.00  0.00    +0.000 C 
ATOM     23  C   UNL     1       2.850   4.650  19.738  0.00  0.00    +0.000 C 
ENDBRANCH   1  13
TORSDOF 2
ENDMDL
MODEL 4
REMARK VINA RESULT:      -6.9      1.138      1.710
REMARK  Name = 
REMARK  2 active torsions:
REMARK  status: ('A' for Active; 'I' for Inactive)
REMARK    1  A    between atoms: N_11  and  C_12
REMARK    2  A    between atoms: C_12  and  N_13
REMARK                            x       y       z     vdW  Elec       q    Type
REMARK                         _______ _______ _______ _____ _____    ______ ____
ROOT
ATOM      1  C   UNL     1       2.486   7.394  19.678  0.00  0.00    +0.000 C 
ENDROOT
BRANCH   1  12
ATOM      2  O   UNL     1       1.509   9.761  18.331  0.00  0.00    +0.000 OA
ATOM      3  C   UNL     1       1.100   9.482  19.463  0.00  0.00    +0.000 A 
ATOM      4  C   UNL     1       0.150  10.419  20.140  0.00  0.00    +0.000 A 
ATOM      5  C   UNL     1      -0.360  11.576  19.549  0.00  0.00    +0.000 A 
ATOM      6  C   UNL     1      -1.169  12.454  20.297  0.00  0.00    +0.000 A 
ATOM      7  C   UNL     1      -1.426  12.199  21.644  0.00  0.00    +0.000 A 
ATOM      8  C   UNL     1      -0.952  11.027  22.227  0.00  0.00    +0.000 A 
ATOM      9  C   UNL     1      -0.222  10.139  21.438  0.00  0.00    +0.000 A 
ATOM     10  C   UNL     1       0.046   8.805  21.934  0.00  0.00    +0.000 A 
ATOM     11  N   UNL     1       0.806   7.960  21.332  0.00  0.00    +0.000 NA
ATOM     12  N   UNL     1       1.498   8.359  20.207  0.00  0.00    +0.000 N 
ENDBRANCH   1  12
BRANCH   1  13
ATOM     13  N   UNL     1       2.261   7.012  18.254  0.00  0.00    +0.000 NA
ATOM     14  C   UNL     1       3.285   7.413  17.280  0.00  0.00    +0.000 C 
ATOM     15  C   UNL     1       4.664   6.826  17.560  0.00  0.00    +0.000 C 
ATOM     16  C   UNL     1       4.693   5.277  17.686  0.00  0.00    +0.000 C 
ATOM     17  C   UNL     1       4.906   4.570  16.314  0.00  0.00    +0.000 C 
ATOM     18  C   UNL     1       6.288   4.772  15.684  0.00  0.00    +0.000 C 
ATOM     19  C   UNL     1       7.407   4.411  16.654  0.00  0.00    +0.000 C 
ATOM     20  C   UNL     1       7.260   5.178  17.959  0.00  0.00    +0.000 C 
ATOM     21  C   UNL     1       5.897   4.907  18.606  0.00  0.00    +0.000 C 
ATOM     22  C   UNL     1       3.369   4.728  18.317  0.00  0.00    +0.000 C 
ATOM     23  C   UNL     1       2.095   5.563  18.094  0.00  0.00    +0.000 C 
ENDBRANCH   1  13
TORSDOF 2
ENDMDL
MODEL 5
REMARK VINA RESULT:      -6.7      1.481      8.266
REMARK  Name = 
REMARK  2 active torsions:
REMARK  status: ('A' for Active; 'I' for Inactive)
REMARK    1  A    between atoms: N_11  and  C_12
REMARK    2  A    between atoms: C_12  and  N_13
REMARK                            x       y       z     vdW  Elec       q    Type
REMARK                         _______ _______ _______ _____ _____    ______ ____
ROOT
ATOM      1  C   UNL     1       1.362   9.030  19.906  0.00  0.00    +0.000 C 
ENDROOT
BRANCH   1  12
ATOM      2  O   UNL     1       1.666   6.266  20.707  0.00  0.00    +0.000 OA
ATOM      3  C   UNL     1       2.247   6.685  19.699  0.00  0.00    +0.000 A 
ATOM      4  C   UNL     1       3.151   5.759  18.949  0.00  0.00    +0.000 A 
ATOM      5  C   UNL     1       3.343   4.416  19.280  0.00  0.00    +0.000 A 
ATOM      6  C   UNL     1       4.292   3.645  18.581  0.00  0.00    +0.000 A 
ATOM      7  C   UNL     1       5.079   4.228  17.587  0.00  0.00    +0.000 A 
ATOM      8  C   UNL     1       4.864   5.555  17.227  0.00  0.00    +0.000 A 
ATOM      9  C   UNL     1       3.862   6.269  17.883  0.00  0.00    +0.000 A 
ATOM     10  C   UNL     1       3.436   7.547  17.351  0.00  0.00    +0.000 A 
ATOM     11  N   UNL     1       2.607   8.327  17.948  0.00  0.00    +0.000 NA
ATOM     12  N   UNL     1       2.166   8.001  19.213  0.00  0.00    +0.000 N 
ENDBRANCH   1  12
BRANCH   1  13
ATOM     13  N   UNL     1       0.808  10.079  19.004  0.00  0.00    +0.000 NA
ATOM     14  C   UNL     1      -0.651  10.253  18.988  0.00  0.00    +0.000 C 
ATOM     15  C   UNL     1      -1.238  10.645  20.339  0.00  0.00    +0.000 C 
ATOM     16  C   UNL     1      -0.604  11.913  20.976  0.00  0.00    +0.000 C 
ATOM     17  C   UNL     1      -1.315  13.225  20.527  0.00  0.00    +0.000 C 
ATOM     18  C   UNL     1      -2.746  13.401  21.046  0.00  0.00    +0.000 C 
ATOM     19  C   UNL     1      -2.819  13.242  22.560  0.00  0.00    +0.000 C 
ATOM     20  C   UNL     1      -2.218  11.913  22.994  0.00  0.00    +0.000 C 
ATOM     21  C   UNL     1      -0.765  11.788  22.522  0.00  0.00    +0.000 C 
ATOM     22  C   UNL     1       0.916  12.036  20.619  0.00  0.00    +0.000 C 
ATOM     23  C   UNL     1       1.371  11.404  19.291  0.00  0.00    +0.000 C 
ENDBRANCH   1  13
TORSDOF 2
ENDMDL
MODEL 6
REMARK VINA RESULT:      -6.7      2.227      8.345
REMARK  Name = 
REMARK  2 active torsions:
REMARK  status: ('A' for Active; 'I' for Inactive)
REMARK    1  A    between atoms: N_11  and  C_12
REMARK    2  A    between atoms: C_12  and  N_13
REMARK                            x       y       z     vdW  Elec       q    Type
REMARK                         _______ _______ _______ _____ _____    ______ ____
ROOT
ATOM      1  C   UNL     1       1.146  11.199  19.341  0.00  0.00    +0.000 C 
ENDROOT
BRANCH   1  12
ATOM      2  O   UNL     1       0.811   8.993  21.184  0.00  0.00    +0.000 OA
ATOM      3  C   UNL     1       1.340   8.803  20.083  0.00  0.00    +0.000 A 
ATOM      4  C   UNL     1       1.857   7.438  19.755  0.00  0.00    +0.000 A 
ATOM      5  C   UNL     1       1.729   6.332  20.596  0.00  0.00    +0.000 A 
ATOM      6  C   UNL     1       2.336   5.108  20.252  0.00  0.00    +0.000 A 
ATOM      7  C   UNL     1       3.108   5.007  19.094  0.00  0.00    +0.000 A 
ATOM      8  C   UNL     1       3.207   6.095  18.233  0.00  0.00    +0.000 A 
ATOM      9  C   UNL     1       2.528   7.269  18.562  0.00  0.00    +0.000 A 
ATOM     10  C   UNL     1       2.389   8.311  17.567  0.00  0.00    +0.000 A 
ATOM     11  N   UNL     1       1.885   9.468  17.812  0.00  0.00    +0.000 NA
ATOM     12  N   UNL     1       1.548   9.795  19.109  0.00  0.00    +0.000 N 
ENDBRANCH   1  12
BRANCH   1  13
ATOM     13  N   UNL     1      -0.083  11.610  18.605  0.00  0.00    +0.000 NA
ATOM     14  C   UNL     1      -1.345  10.959  18.985  0.00  0.00    +0.000 C 
ATOM     15  C   UNL     1      -1.744  11.192  20.437  0.00  0.00    +0.000 C 
ATOM     16  C   UNL     1      -1.824  12.687  20.854  0.00  0.00    +0.000 C 
ATOM     17  C   UNL     1      -3.230  13.306  20.593  0.00  0.00    +0.000 C 
ATOM     18  C   UNL     1      -4.356  12.763  21.478  0.00  0.00    +0.000 C 
ATOM     19  C   UNL     1      -3.999  12.848  22.958  0.00  0.00    +0.000 C 
ATOM     20  C   UNL     1      -2.674  12.154  23.235  0.00  0.00    +0.000 C 
ATOM     21  C   UNL     1      -1.549  12.758  22.387  0.00  0.00    +0.000 C 
ATOM     22  C   UNL     1      -0.762  13.552  20.094  0.00  0.00    +0.000 C 
ATOM     23  C   UNL     1      -0.326  13.054  18.704  0.00  0.00    +0.000 C 
ENDBRANCH   1  13
TORSDOF 2
ENDMDL
MODEL 7
REMARK VINA RESULT:      -6.7      2.421      7.901
REMARK  Name = 
REMARK  2 active torsions:
REMARK  status: ('A' for Active; 'I' for Inactive)
REMARK    1  A    between atoms: N_11  and  C_12
REMARK    2  A    between atoms: C_12  and  N_13
REMARK                            x       y       z     vdW  Elec       q    Type
REMARK                         _______ _______ _______ _____ _____    ______ ____
ROOT
ATOM      1  C   UNL     1       1.826   8.874  19.936  0.00  0.00    +0.000 C 
ENDROOT
BRANCH   1  12
ATOM      2  O   UNL     1       3.128   7.526  17.732  0.00  0.00    +0.000 OA
ATOM      3  C   UNL     1       2.573   6.866  18.618  0.00  0.00    +0.000 A 
ATOM      4  C   UNL     1       2.534   5.376  18.493  0.00  0.00    +0.000 A 
ATOM      5  C   UNL     1       3.140   4.663  17.457  0.00  0.00    +0.000 A 
ATOM      6  C   UNL     1       2.964   3.269  17.362  0.00  0.00    +0.000 A 
ATOM      7  C   UNL     1       2.146   2.598  18.272  0.00  0.00    +0.000 A 
ATOM      8  C   UNL     1       1.572   3.298  19.329  0.00  0.00    +0.000 A 
ATOM      9  C   UNL     1       1.830   4.665  19.441  0.00  0.00    +0.000 A 
ATOM     10  C   UNL     1       1.476   5.355  20.663  0.00  0.00    +0.000 A 
ATOM     11  N   UNL     1       1.567   6.629  20.815  0.00  0.00    +0.000 NA
ATOM     12  N   UNL     1       1.918   7.412  19.735  0.00  0.00    +0.000 N 
ENDBRANCH   1  12
BRANCH   1  13
ATOM     13  N   UNL     1       0.521   9.331  20.494  0.00  0.00    +0.000 NA
ATOM     14  C   UNL     1       0.539  10.512  21.367  0.00  0.00    +0.000 C 
ATOM     15  C   UNL     1       1.060  11.773  20.686  0.00  0.00    +0.000 C 
ATOM     16  C   UNL     1       0.320  12.150  19.373  0.00  0.00    +0.000 C 
ATOM     17  C   UNL     1      -0.921  13.058  19.626  0.00  0.00    +0.000 C 
ATOM     18  C   UNL     1      -0.604  14.472  20.123  0.00  0.00    +0.000 C 
ATOM     19  C   UNL     1       0.400  15.175  19.215  0.00  0.00    +0.000 C 
ATOM     20  C   UNL     1       1.658  14.337  19.047  0.00  0.00    +0.000 C 
ATOM     21  C   UNL     1       1.323  12.950  18.486  0.00  0.00    +0.000 C 
ATOM     22  C   UNL     1      -0.158  10.877  18.597  0.00  0.00    +0.000 C 
ATOM     23  C   UNL     1      -0.456   9.622  19.438  0.00  0.00    +0.000 C 
ENDBRANCH   1  13
TORSDOF 2
ENDMDL
MODEL 8
REMARK VINA RESULT:      -6.7      3.421     10.178
REMARK  Name = 
REMARK  2 active torsions:
REMARK  status: ('A' for Active; 'I' for Inactive)
REMARK    1  A    between atoms: N_11  and  C_12
REMARK    2  A    between atoms: C_12  and  N_13
REMARK                            x       y       z     vdW  Elec       q    Type
REMARK                         _______ _______ _______ _____ _____    ______ ____
ROOT
ATOM      1  C   UNL     1      -1.551  11.648  22.415  0.00  0.00    +0.000 C 
ENDROOT
BRANCH   1  12
ATOM      2  O   UNL     1       0.025   9.253  22.807  0.00  0.00    +0.000 OA
ATOM      3  C   UNL     1      -0.073   9.750  21.680  0.00  0.00    +0.000 A 
ATOM      4  C   UNL     1       0.686   9.131  20.549  0.00  0.00    +0.000 A 
ATOM      5  C   UNL     1       1.463   7.978  20.669  0.00  0.00    +0.000 A 
ATOM      6  C   UNL     1       2.226   7.523  19.575  0.00  0.00    +0.000 A 
ATOM      7  C   UNL     1       2.248   8.247  18.382  0.00  0.00    +0.000 A 
ATOM      8  C   UNL     1       1.444   9.375  18.245  0.00  0.00    +0.000 A 
ATOM      9  C   UNL     1       0.639   9.754  19.319  0.00  0.00    +0.000 A 
ATOM     10  C   UNL     1      -0.395  10.746  19.115  0.00  0.00    +0.000 A 
ATOM     11  N   UNL     1      -1.106  11.241  20.066  0.00  0.00    +0.000 NA
ATOM     12  N   UNL     1      -0.814  10.903  21.371  0.00  0.00    +0.000 N 
ENDBRANCH   1  12
BRANCH   1  13
ATOM     13  N   UNL     1      -1.873  13.055  22.045  0.00  0.00    +0.000 NA
ATOM     14  C   UNL     1      -3.147  13.295  21.352  0.00  0.00    +0.000 C 
ATOM     15  C   UNL     1      -4.373  12.882  22.159  0.00  0.00    +0.000 C 
ATOM     16  C   UNL     1      -4.461  13.521  23.572  0.00  0.00    +0.000 C 
ATOM     17  C   UNL     1      -5.196  14.896  23.562  0.00  0.00    +0.000 C 
ATOM     18  C   UNL     1      -6.694  14.832  23.248  0.00  0.00    +0.000 C 
ATOM     19  C   UNL     1      -7.417  13.843  24.155  0.00  0.00    +0.000 C 
ATOM     20  C   UNL     1      -6.764  12.471  24.090  0.00  0.00    +0.000 C 
ATOM     21  C   UNL     1      -5.282  12.548  24.473  0.00  0.00    +0.000 C 
ATOM     22  C   UNL     1      -3.040  13.733  24.196  0.00  0.00    +0.000 C 
ATOM     23  C   UNL     1      -1.875  13.944  23.213  0.00  0.00    +0.000 C 
ENDBRANCH   1  13
TORSDOF 2
ENDMDL
MODEL 9
REMARK VINA RESULT:      -6.6      2.211      8.193
REMARK  Name = 
REMARK  2 active torsions:
REMARK  status: ('A' for Active; 'I' for Inactive)
REMARK    1  A    between atoms: N_11  and  C_12
REMARK    2  A    between atoms: C_12  and  N_13
REMARK                            x       y       z     vdW  Elec       q    Type
REMARK                         _______ _______ _______ _____ _____    ______ ____
ROOT
ATOM      1  C   UNL     1       1.805   8.983  20.003  0.00  0.00    +0.000 C 
ENDROOT
BRANCH   1  12
ATOM      2  O   UNL     1       3.282   7.790  17.820  0.00  0.00    +0.000 OA
ATOM      3  C   UNL     1       2.692   7.070  18.632  0.00  0.00    +0.000 A 
ATOM      4  C   UNL     1       2.704   5.588  18.427  0.00  0.00    +0.000 A 
ATOM      5  C   UNL     1       3.395   4.948  17.396  0.00  0.00    +0.000 A 
ATOM      6  C   UNL     1       3.267   3.557  17.218  0.00  0.00    +0.000 A 
ATOM      7  C   UNL     1       2.413   2.817  18.037  0.00  0.00    +0.000 A 
ATOM      8  C   UNL     1       1.753   3.444  19.089  0.00  0.00    +0.000 A 
ATOM      9  C   UNL     1       1.963   4.808  19.290  0.00  0.00    +0.000 A 
ATOM     10  C   UNL     1       1.513   5.422  20.521  0.00  0.00    +0.000 A 
ATOM     11  N   UNL     1       1.557   6.688  20.745  0.00  0.00    +0.000 NA
ATOM     12  N   UNL     1       1.952   7.537  19.732  0.00  0.00    +0.000 N 
ENDBRANCH   1  12
BRANCH   1  13
ATOM     13  N   UNL     1       1.032   9.721  18.964  0.00  0.00    +0.000 NA
ATOM     14  C   UNL     1      -0.434   9.686  19.064  0.00  0.00    +0.000 C 
ATOM     15  C   UNL     1      -0.977  10.282  20.357  0.00  0.00    +0.000 C 
ATOM     16  C   UNL     1      -0.506  11.733  20.648  0.00  0.00    +0.000 C 
ATOM     17  C   UNL     1      -1.443  12.804  20.013  0.00  0.00    +0.000 C 
ATOM     18  C   UNL     1      -2.843  12.893  20.628  0.00  0.00    +0.000 C 
ATOM     19  C   UNL     1      -2.783  13.063  22.142  0.00  0.00    +0.000 C 
ATOM     20  C   UNL     1      -1.952  11.958  22.777  0.00  0.00    +0.000 C 
ATOM     21  C   UNL     1      -0.535  11.932  22.195  0.00  0.00    +0.000 C 
ATOM     22  C   UNL     1       0.947  11.982  20.119  0.00  0.00    +0.000 C 
ATOM     23  C   UNL     1       1.400  11.141  18.911  0.00  0.00    +0.000 C 
ENDBRANCH   1  13
TORSDOF 2
ENDMDL
