MODEL 1
REMARK VINA RESULT:      -7.3      0.000      0.000
REMARK  Name = 
REMARK  3 active torsions:
REMARK  status: ('A' for Active; 'I' for Inactive)
REMARK    1  A    between atoms: C_1  and  C_2
REMARK    2  A    between atoms: C_7  and  C_8
REMARK    3  A    between atoms: N_17  and  N_18
REMARK                            x       y       z     vdW  Elec       q    Type
REMARK                         _______ _______ _______ _____ _____    ______ ____
ROOT
ATOM      1  C   UNL     1       2.247  11.360  17.766  0.00  0.00    +0.000 C 
ATOM      2  C   UNL     1       2.337   9.875  18.013  0.00  0.00    +0.000 A 
ATOM      3  N   UNL     1       3.275   9.197  17.418  0.00  0.00    +0.000 NA
ATOM      4  C   UNL     1       3.314   7.875  17.725  0.00  0.00    +0.000 A 
ATOM      5  S   UNL     1       4.328   6.802  16.881  0.00  0.00    +0.000 S 
ATOM      6  C   UNL     1       3.807   5.474  17.825  0.00  0.00    +0.000 A 
ATOM      7  C   UNL     1       2.854   5.808  18.776  0.00  0.00    +0.000 A 
ATOM      8  C   UNL     1       2.599   7.236  18.719  0.00  0.00    +0.000 A 
ATOM      9  C   UNL     1       1.720   8.090  19.500  0.00  0.00    +0.000 A 
ATOM     10  O   UNL     1       1.311   7.793  20.623  0.00  0.00    +0.000 OA
ATOM     11  N   UNL     1       1.409   9.318  18.890  0.00  0.00    +0.000 N 
ENDROOT
BRANCH  11  12
ATOM     12  N   UNL     1       0.471  10.156  19.494  0.00  0.00    +0.000 NA
ATOM     13  C   UNL     1      -0.671  10.380  18.903  0.00  0.00    +0.000 C 
ATOM     14  C   UNL     1      -1.727  11.059  19.704  0.00  0.00    +0.000 C 
ATOM     15  C   UNL     1      -2.965  11.262  19.235  0.00  0.00    +0.000 C 
ATOM     16  C   UNL     1      -3.356  10.844  17.881  0.00  0.00    +0.000 C 
ATOM     17  O   UNL     1      -4.493  11.017  17.460  0.00  0.00    +0.000 OA
ATOM     18  C   UNL     1      -2.310  10.238  17.042  0.00  0.00    +0.000 C 
ATOM     19  C   UNL     1      -1.067  10.052  17.497  0.00  0.00    +0.000 C 
ENDBRANCH  11  12
BRANCH   7  20
ATOM     20  C   UNL     1       2.234   4.762  19.614  0.00  0.00    +0.000 A 
ATOM     21  C   UNL     1       1.259   3.896  19.107  0.00  0.00    +0.000 A 
ATOM     22  C   UNL     1       0.759   2.827  19.856  0.00  0.00    +0.000 A 
ATOM     23  C   UNL     1       1.158   2.657  21.174  0.00  0.00    +0.000 A 
ATOM     24  C   UNL     1       2.064   3.552  21.733  0.00  0.00    +0.000 A 
ATOM     25  C   UNL     1       2.614   4.581  20.956  0.00  0.00    +0.000 A 
ENDBRANCH   7  20
TORSDOF 2
ENDMDL
MODEL 2
REMARK VINA RESULT:      -7.1      2.120      3.777
REMARK  Name = 
REMARK  3 active torsions:
REMARK  status: ('A' for Active; 'I' for Inactive)
REMARK    1  A    between atoms: C_1  and  C_2
REMARK    2  A    between atoms: C_7  and  C_8
REMARK    3  A    between atoms: N_17  and  N_18
REMARK                            x       y       z     vdW  Elec       q    Type
REMARK                         _______ _______ _______ _____ _____    ______ ____
ROOT
ATOM      1  C   UNL     1      -0.061   9.115  21.554  0.00  0.00    +0.000 C 
ATOM      2  C   UNL     1       0.904   8.203  20.839  0.00  0.00    +0.000 A 
ATOM      3  N   UNL     1       1.011   6.968  21.237  0.00  0.00    +0.000 NA
ATOM      4  C   UNL     1       1.869   6.202  20.516  0.00  0.00    +0.000 A 
ATOM      5  S   UNL     1       2.293   4.636  21.024  0.00  0.00    +0.000 S 
ATOM      6  C   UNL     1       3.307   4.406  19.664  0.00  0.00    +0.000 A 
ATOM      7  C   UNL     1       3.356   5.503  18.817  0.00  0.00    +0.000 A 
ATOM      8  C   UNL     1       2.477   6.541  19.323  0.00  0.00    +0.000 A 
ATOM      9  C   UNL     1       2.149   7.861  18.811  0.00  0.00    +0.000 A 
ATOM     10  O   UNL     1       2.281   8.180  17.629  0.00  0.00    +0.000 OA
ATOM     11  N   UNL     1       1.617   8.741  19.770  0.00  0.00    +0.000 N 
ENDROOT
BRANCH  11  12
ATOM     12  N   UNL     1       1.389  10.072  19.415  0.00  0.00    +0.000 NA
ATOM     13  C   UNL     1       0.304  10.391  18.765  0.00  0.00    +0.000 C 
ATOM     14  C   UNL     1      -0.013  11.841  18.645  0.00  0.00    +0.000 C 
ATOM     15  C   UNL     1      -1.143  12.284  18.079  0.00  0.00    +0.000 C 
ATOM     16  C   UNL     1      -2.137  11.362  17.514  0.00  0.00    +0.000 C 
ATOM     17  O   UNL     1      -3.176  11.769  17.010  0.00  0.00    +0.000 OA
ATOM     18  C   UNL     1      -1.814   9.927  17.551  0.00  0.00    +0.000 C 
ATOM     19  C   UNL     1      -0.678   9.479  18.097  0.00  0.00    +0.000 C 
ENDBRANCH  11  12
BRANCH   7  20
ATOM     20  C   UNL     1       4.252   5.502  17.643  0.00  0.00    +0.000 A 
ATOM     21  C   UNL     1       5.157   6.544  17.409  0.00  0.00    +0.000 A 
ATOM     22  C   UNL     1       6.092   6.490  16.371  0.00  0.00    +0.000 A 
ATOM     23  C   UNL     1       6.079   5.427  15.480  0.00  0.00    +0.000 A 
ATOM     24  C   UNL     1       5.136   4.416  15.637  0.00  0.00    +0.000 A 
ATOM     25  C   UNL     1       4.246   4.441  16.720  0.00  0.00    +0.000 A 
ENDBRANCH   7  20
TORSDOF 2
ENDMDL
MODEL 3
REMARK VINA RESULT:      -6.9      5.326      8.893
REMARK  Name = 
REMARK  3 active torsions:
REMARK  status: ('A' for Active; 'I' for Inactive)
REMARK    1  A    between atoms: C_1  and  C_2
REMARK    2  A    between atoms: C_7  and  C_8
REMARK    3  A    between atoms: N_17  and  N_18
REMARK                            x       y       z     vdW  Elec       q    Type
REMARK                         _______ _______ _______ _____ _____    ______ ____
ROOT
ATOM      1  C   UNL     1      -0.391  10.719  21.982  0.00  0.00    +0.000 C 
ATOM      2  C   UNL     1      -0.256  12.132  21.475  0.00  0.00    +0.000 A 
ATOM      3  N   UNL     1      -0.142  13.100  22.338  0.00  0.00    +0.000 NA
ATOM      4  C   UNL     1       0.017  14.337  21.801  0.00  0.00    +0.000 A 
ATOM      5  S   UNL     1      -0.034  15.733  22.770  0.00  0.00    +0.000 S 
ATOM      6  C   UNL     1       0.238  16.750  21.421  0.00  0.00    +0.000 A 
ATOM      7  C   UNL     1       0.356  16.063  20.222  0.00  0.00    +0.000 A 
ATOM      8  C   UNL     1       0.252  14.637  20.473  0.00  0.00    +0.000 A 
ATOM      9  C   UNL     1       0.329  13.493  19.581  0.00  0.00    +0.000 A 
ATOM     10  O   UNL     1       0.886  13.528  18.482  0.00  0.00    +0.000 OA
ATOM     11  N   UNL     1      -0.243  12.315  20.094  0.00  0.00    +0.000 N 
ENDROOT
BRANCH  11  12
ATOM     12  N   UNL     1      -0.339  11.194  19.268  0.00  0.00    +0.000 NA
ATOM     13  C   UNL     1      -1.383  11.045  18.499  0.00  0.00    +0.000 C 
ATOM     14  C   UNL     1      -1.312   9.982  17.459  0.00  0.00    +0.000 C 
ATOM     15  C   UNL     1      -2.284   9.795  16.556  0.00  0.00    +0.000 C 
ATOM     16  C   UNL     1      -3.501  10.618  16.550  0.00  0.00    +0.000 C 
ATOM     17  O   UNL     1      -4.381  10.455  15.715  0.00  0.00    +0.000 OA
ATOM     18  C   UNL     1      -3.631  11.626  17.614  0.00  0.00    +0.000 C 
ATOM     19  C   UNL     1      -2.673  11.804  18.531  0.00  0.00    +0.000 C 
ENDBRANCH  11  12
BRANCH   7  20
ATOM     20  C   UNL     1       0.505  16.798  18.950  0.00  0.00    +0.000 A 
ATOM     21  C   UNL     1      -0.579  17.442  18.342  0.00  0.00    +0.000 A 
ATOM     22  C   UNL     1      -0.420  18.241  17.206  0.00  0.00    +0.000 A 
ATOM     23  C   UNL     1       0.821  18.337  16.593  0.00  0.00    +0.000 A 
ATOM     24  C   UNL     1       1.901  17.641  17.126  0.00  0.00    +0.000 A 
ATOM     25  C   UNL     1       1.751  16.897  18.305  0.00  0.00    +0.000 A 
ENDBRANCH   7  20
TORSDOF 2
ENDMDL
MODEL 4
REMARK VINA RESULT:      -6.6      4.534      7.088
REMARK  Name = 
REMARK  3 active torsions:
REMARK  status: ('A' for Active; 'I' for Inactive)
REMARK    1  A    between atoms: C_1  and  C_2
REMARK    2  A    between atoms: C_7  and  C_8
REMARK    3  A    between atoms: N_17  and  N_18
REMARK                            x       y       z     vdW  Elec       q    Type
REMARK                         _______ _______ _______ _____ _____    ______ ____
ROOT
ATOM      1  C   UNL     1       1.139  16.410  18.674  0.00  0.00    +0.000 C 
ATOM      2  C   UNL     1       0.923  14.926  18.829  0.00  0.00    +0.000 A 
ATOM      3  N   UNL     1      -0.296  14.475  18.910  0.00  0.00    +0.000 NA
ATOM      4  C   UNL     1      -0.406  13.125  19.006  0.00  0.00    +0.000 A 
ATOM      5  S   UNL     1      -1.900  12.383  19.336  0.00  0.00    +0.000 S 
ATOM      6  C   UNL     1      -1.204  10.821  19.278  0.00  0.00    +0.000 A 
ATOM      7  C   UNL     1       0.160  10.830  19.026  0.00  0.00    +0.000 A 
ATOM      8  C   UNL     1       0.605  12.199  18.839  0.00  0.00    +0.000 A 
ATOM      9  C   UNL     1       1.913  12.754  18.535  0.00  0.00    +0.000 A 
ATOM     10  O   UNL     1       2.815  12.108  17.999  0.00  0.00    +0.000 OA
ATOM     11  N   UNL     1       2.056  14.116  18.856  0.00  0.00    +0.000 N 
ENDROOT
BRANCH  11  12
ATOM     12  N   UNL     1       3.310  14.714  18.726  0.00  0.00    +0.000 NA
ATOM     13  C   UNL     1       4.105  14.781  19.759  0.00  0.00    +0.000 C 
ATOM     14  C   UNL     1       5.515  15.186  19.504  0.00  0.00    +0.000 C 
ATOM     15  C   UNL     1       6.443  15.204  20.470  0.00  0.00    +0.000 C 
ATOM     16  C   UNL     1       6.119  14.847  21.858  0.00  0.00    +0.000 C 
ATOM     17  O   UNL     1       6.972  14.850  22.737  0.00  0.00    +0.000 OA
ATOM     18  C   UNL     1       4.716  14.516  22.152  0.00  0.00    +0.000 C 
ATOM     19  C   UNL     1       3.781  14.515  21.196  0.00  0.00    +0.000 C 
ENDBRANCH  11  12
BRANCH   7  20
ATOM     20  C   UNL     1       0.930   9.570  19.032  0.00  0.00    +0.000 A 
ATOM     21  C   UNL     1       1.524   9.067  17.869  0.00  0.00    +0.000 A 
ATOM     22  C   UNL     1       2.356   7.944  17.891  0.00  0.00    +0.000 A 
ATOM     23  C   UNL     1       2.537   7.238  19.072  0.00  0.00    +0.000 A 
ATOM     24  C   UNL     1       1.893   7.666  20.228  0.00  0.00    +0.000 A 
ATOM     25  C   UNL     1       1.116   8.832  20.215  0.00  0.00    +0.000 A 
ENDBRANCH   7  20
TORSDOF 2
ENDMDL
MODEL 5
REMARK VINA RESULT:      -6.6      4.789      8.601
REMARK  Name = 
REMARK  3 active torsions:
REMARK  status: ('A' for Active; 'I' for Inactive)
REMARK    1  A    between atoms: C_1  and  C_2
REMARK    2  A    between atoms: C_7  and  C_8
REMARK    3  A    between atoms: N_17  and  N_18
REMARK                            x       y       z     vdW  Elec       q    Type
REMARK                         _______ _______ _______ _____ _____    ______ ____
ROOT
ATOM      1  C   UNL     1       0.845  10.196  20.746  0.00  0.00    +0.000 C 
ATOM      2  C   UNL     1       0.897  11.671  20.437  0.00  0.00    +0.000 A 
ATOM      3  N   UNL     1       1.590  12.451  21.217  0.00  0.00    +0.000 NA
ATOM      4  C   UNL     1       1.621  13.757  20.847  0.00  0.00    +0.000 A 
ATOM      5  S   UNL     1       2.294  14.944  21.860  0.00  0.00    +0.000 S 
ATOM      6  C   UNL     1       1.959  16.183  20.729  0.00  0.00    +0.000 A 
ATOM      7  C   UNL     1       1.324  15.731  19.582  0.00  0.00    +0.000 A 
ATOM      8  C   UNL     1       1.161  14.291  19.659  0.00  0.00    +0.000 A 
ATOM      9  C   UNL     1       0.587  13.334  18.729  0.00  0.00    +0.000 A 
ATOM     10  O   UNL     1       0.478  13.547  17.520  0.00  0.00    +0.000 OA
ATOM     11  N   UNL     1       0.206  12.112  19.311  0.00  0.00    +0.000 N 
ENDROOT
BRANCH  11  12
ATOM     12  N   UNL     1      -0.474  11.174  18.533  0.00  0.00    +0.000 NA
ATOM     13  C   UNL     1      -1.778  11.200  18.483  0.00  0.00    +0.000 C 
ATOM     14  C   UNL     1      -2.433  10.357  17.444  0.00  0.00    +0.000 C 
ATOM     15  C   UNL     1      -3.757  10.370  17.239  0.00  0.00    +0.000 C 
ATOM     16  C   UNL     1      -4.655  11.205  18.048  0.00  0.00    +0.000 C 
ATOM     17  O   UNL     1      -5.863  11.226  17.848  0.00  0.00    +0.000 OA
ATOM     18  C   UNL     1      -4.042  11.990  19.131  0.00  0.00    +0.000 C 
ATOM     19  C   UNL     1      -2.724  11.967  19.354  0.00  0.00    +0.000 C 
ENDBRANCH  11  12
BRANCH   7  20
ATOM     20  C   UNL     1       0.885  16.685  18.544  0.00  0.00    +0.000 A 
ATOM     21  C   UNL     1      -0.455  17.067  18.416  0.00  0.00    +0.000 A 
ATOM     22  C   UNL     1      -0.858  18.060  17.519  0.00  0.00    +0.000 A 
ATOM     23  C   UNL     1       0.067  18.631  16.656  0.00  0.00    +0.000 A 
ATOM     24  C   UNL     1       1.392  18.212  16.701  0.00  0.00    +0.000 A 
ATOM     25  C   UNL     1       1.803  17.266  17.650  0.00  0.00    +0.000 A 
ENDBRANCH   7  20
TORSDOF 2
ENDMDL
MODEL 6
REMARK VINA RESULT:      -6.6      4.980      8.787
REMARK  Name = 
REMARK  3 active torsions:
REMARK  status: ('A' for Active; 'I' for Inactive)
REMARK    1  A    between atoms: C_1  and  C_2
REMARK    2  A    between atoms: C_7  and  C_8
REMARK    3  A    between atoms: N_17  and  N_18
REMARK                            x       y       z     vdW  Elec       q    Type
REMARK                         _______ _______ _______ _____ _____    ______ ____
ROOT
ATOM      1  C   UNL     1       0.909  10.475  20.890  0.00  0.00    +0.000 C 
ATOM      2  C   UNL     1       0.896  11.952  20.589  0.00  0.00    +0.000 A 
ATOM      3  N   UNL     1       1.487  12.766  21.415  0.00  0.00    +0.000 NA
ATOM      4  C   UNL     1       1.465  14.074  21.051  0.00  0.00    +0.000 A 
ATOM      5  S   UNL     1       1.996  15.293  22.110  0.00  0.00    +0.000 S 
ATOM      6  C   UNL     1       1.667  16.517  20.961  0.00  0.00    +0.000 A 
ATOM      7  C   UNL     1       1.140  16.035  19.772  0.00  0.00    +0.000 A 
ATOM      8  C   UNL     1       1.057  14.587  19.835  0.00  0.00    +0.000 A 
ATOM      9  C   UNL     1       0.606  13.603  18.866  0.00  0.00    +0.000 A 
ATOM     10  O   UNL     1       0.568  13.817  17.653  0.00  0.00    +0.000 OA
ATOM     11  N   UNL     1       0.259  12.358  19.418  0.00  0.00    +0.000 N 
ENDROOT
BRANCH  11  12
ATOM     12  N   UNL     1      -0.310  11.386  18.594  0.00  0.00    +0.000 NA
ATOM     13  C   UNL     1      -1.608  11.319  18.474  0.00  0.00    +0.000 C 
ATOM     14  C   UNL     1      -2.145  10.448  17.392  0.00  0.00    +0.000 C 
ATOM     15  C   UNL     1      -3.453  10.369  17.117  0.00  0.00    +0.000 C 
ATOM     16  C   UNL     1      -4.451  11.124  17.886  0.00  0.00    +0.000 C 
ATOM     17  O   UNL     1      -5.646  11.062  17.623  0.00  0.00    +0.000 OA
ATOM     18  C   UNL     1      -3.954  11.935  19.010  0.00  0.00    +0.000 C 
ATOM     19  C   UNL     1      -2.652  12.002  19.303  0.00  0.00    +0.000 C 
ENDBRANCH  11  12
BRANCH   7  20
ATOM     20  C   UNL     1       0.718  16.967  18.707  0.00  0.00    +0.000 A 
ATOM     21  C   UNL     1       1.625  17.469  17.767  0.00  0.00    +0.000 A 
ATOM     22  C   UNL     1       1.211  18.251  16.686  0.00  0.00    +0.000 A 
ATOM     23  C   UNL     1      -0.119  18.631  16.574  0.00  0.00    +0.000 A 
ATOM     24  C   UNL     1      -1.031  18.217  17.539  0.00  0.00    +0.000 A 
ATOM     25  C   UNL     1      -0.622  17.375  18.583  0.00  0.00    +0.000 A 
ENDBRANCH   7  20
TORSDOF 2
ENDMDL
MODEL 7
REMARK VINA RESULT:      -6.5      5.179      8.655
REMARK  Name = 
REMARK  3 active torsions:
REMARK  status: ('A' for Active; 'I' for Inactive)
REMARK    1  A    between atoms: C_1  and  C_2
REMARK    2  A    between atoms: C_7  and  C_8
REMARK    3  A    between atoms: N_17  and  N_18
REMARK                            x       y       z     vdW  Elec       q    Type
REMARK                         _______ _______ _______ _____ _____    ______ ____
ROOT
ATOM      1  C   UNL     1      -0.178  10.255  20.948  0.00  0.00    +0.000 C 
ATOM      2  C   UNL     1       0.181  11.666  20.557  0.00  0.00    +0.000 A 
ATOM      3  N   UNL     1       1.214  12.229  21.115  0.00  0.00    +0.000 NA
ATOM      4  C   UNL     1       1.494  13.483  20.679  0.00  0.00    +0.000 A 
ATOM      5  S   UNL     1       2.668  14.443  21.447  0.00  0.00    +0.000 S 
ATOM      6  C   UNL     1       2.410  15.736  20.356  0.00  0.00    +0.000 A 
ATOM      7  C   UNL     1       1.431  15.476  19.409  0.00  0.00    +0.000 A 
ATOM      8  C   UNL     1       0.924  14.129  19.599  0.00  0.00    +0.000 A 
ATOM      9  C   UNL     1      -0.079  13.366  18.876  0.00  0.00    +0.000 A 
ATOM     10  O   UNL     1      -0.408  13.610  17.714  0.00  0.00    +0.000 OA
ATOM     11  N   UNL     1      -0.616  12.283  19.595  0.00  0.00    +0.000 N 
ENDROOT
BRANCH  11  12
ATOM     12  N   UNL     1      -1.678  11.564  19.044  0.00  0.00    +0.000 NA
ATOM     13  C   UNL     1      -2.905  11.942  19.278  0.00  0.00    +0.000 C 
ATOM     14  C   UNL     1      -3.977  11.308  18.461  0.00  0.00    +0.000 C 
ATOM     15  C   UNL     1      -5.261  11.679  18.550  0.00  0.00    +0.000 C 
ATOM     16  C   UNL     1      -5.700  12.726  19.482  0.00  0.00    +0.000 C 
ATOM     17  O   UNL     1      -6.872  13.074  19.550  0.00  0.00    +0.000 OA
ATOM     18  C   UNL     1      -4.672  13.317  20.354  0.00  0.00    +0.000 C 
ATOM     19  C   UNL     1      -3.392  12.937  20.285  0.00  0.00    +0.000 C 
ENDBRANCH  11  12
BRANCH   7  20
ATOM     20  C   UNL     1       1.024  16.520  18.448  0.00  0.00    +0.000 A 
ATOM     21  C   UNL     1      -0.299  16.971  18.368  0.00  0.00    +0.000 A 
ATOM     22  C   UNL     1      -0.666  18.043  17.550  0.00  0.00    +0.000 A 
ATOM     23  C   UNL     1       0.273  18.631  16.715  0.00  0.00    +0.000 A 
ATOM     24  C   UNL     1       1.578  18.150  16.710  0.00  0.00    +0.000 A 
ATOM     25  C   UNL     1       1.956  17.121  17.583  0.00  0.00    +0.000 A 
ENDBRANCH   7  20
TORSDOF 2
ENDMDL
MODEL 8
REMARK VINA RESULT:      -6.5      4.266      8.321
REMARK  Name = 
REMARK  3 active torsions:
REMARK  status: ('A' for Active; 'I' for Inactive)
REMARK    1  A    between atoms: C_1  and  C_2
REMARK    2  A    between atoms: C_7  and  C_8
REMARK    3  A    between atoms: N_17  and  N_18
REMARK                            x       y       z     vdW  Elec       q    Type
REMARK                         _______ _______ _______ _____ _____    ______ ____
ROOT
ATOM      1  C   UNL     1      -2.100  12.365  20.460  0.00  0.00    +0.000 C 
ATOM      2  C   UNL     1      -0.875  13.141  20.047  0.00  0.00    +0.000 A 
ATOM      3  N   UNL     1      -1.022  14.359  19.609  0.00  0.00    +0.000 NA
ATOM      4  C   UNL     1       0.132  15.003  19.298  0.00  0.00    +0.000 A 
ATOM      5  S   UNL     1       0.117  16.511  18.514  0.00  0.00    +0.000 S 
ATOM      6  C   UNL     1       1.825  16.596  18.515  0.00  0.00    +0.000 A 
ATOM      7  C   UNL     1       2.436  15.490  19.088  0.00  0.00    +0.000 A 
ATOM      8  C   UNL     1       1.417  14.576  19.571  0.00  0.00    +0.000 A 
ATOM      9  C   UNL     1       1.515  13.300  20.259  0.00  0.00    +0.000 A 
ATOM     10  O   UNL     1       2.508  12.951  20.900  0.00  0.00    +0.000 OA
ATOM     11  N   UNL     1       0.358  12.505  20.180  0.00  0.00    +0.000 N 
ENDROOT
BRANCH  11  12
ATOM     12  N   UNL     1       0.390  11.208  20.695  0.00  0.00    +0.000 NA
ATOM     13  C   UNL     1       0.904  10.243  19.982  0.00  0.00    +0.000 C 
ATOM     14  C   UNL     1       1.151   8.948  20.675  0.00  0.00    +0.000 C 
ATOM     15  C   UNL     1       1.756   7.916  20.072  0.00  0.00    +0.000 C 
ATOM     16  C   UNL     1       2.195   7.989  18.672  0.00  0.00    +0.000 C 
ATOM     17  O   UNL     1       2.761   7.049  18.127  0.00  0.00    +0.000 OA
ATOM     18  C   UNL     1       1.895   9.231  17.942  0.00  0.00    +0.000 C 
ATOM     19  C   UNL     1       1.274  10.257  18.532  0.00  0.00    +0.000 C 
ENDBRANCH  11  12
BRANCH   7  20
ATOM     20  C   UNL     1       3.907  15.364  19.090  0.00  0.00    +0.000 A 
ATOM     21  C   UNL     1       4.668  15.652  20.229  0.00  0.00    +0.000 A 
ATOM     22  C   UNL     1       6.045  15.417  20.275  0.00  0.00    +0.000 A 
ATOM     23  C   UNL     1       6.712  14.974  19.142  0.00  0.00    +0.000 A 
ATOM     24  C   UNL     1       5.996  14.759  17.969  0.00  0.00    +0.000 A 
ATOM     25  C   UNL     1       4.605  14.930  17.948  0.00  0.00    +0.000 A 
ENDBRANCH   7  20
TORSDOF 2
ENDMDL
MODEL 9
REMARK VINA RESULT:      -6.4      5.795      9.060
REMARK  Name = 
REMARK  3 active torsions:
REMARK  status: ('A' for Active; 'I' for Inactive)
REMARK    1  A    between atoms: C_1  and  C_2
REMARK    2  A    between atoms: C_7  and  C_8
REMARK    3  A    between atoms: N_17  and  N_18
REMARK                            x       y       z     vdW  Elec       q    Type
REMARK                         _______ _______ _______ _____ _____    ______ ____
ROOT
ATOM      1  C   UNL     1      -0.780  10.886  21.478  0.00  0.00    +0.000 C 
ATOM      2  C   UNL     1      -0.477  12.298  21.044  0.00  0.00    +0.000 A 
ATOM      3  N   UNL     1       0.140  13.090  21.872  0.00  0.00    +0.000 NA
ATOM      4  C   UNL     1       0.413  14.330  21.391  0.00  0.00    +0.000 A 
ATOM      5  S   UNL     1       1.016  15.556  22.402  0.00  0.00    +0.000 S 
ATOM      6  C   UNL     1       1.078  16.674  21.108  0.00  0.00    +0.000 A 
ATOM      7  C   UNL     1       0.634  16.152  19.902  0.00  0.00    +0.000 A 
ATOM      8  C   UNL     1       0.274  14.758  20.085  0.00  0.00    +0.000 A 
ATOM      9  C   UNL     1      -0.220  13.760  19.152  0.00  0.00    +0.000 A 
ATOM     10  O   UNL     1      -0.055  13.832  17.933  0.00  0.00    +0.000 OA
ATOM     11  N   UNL     1      -0.865  12.666  19.757  0.00  0.00    +0.000 N 
ENDROOT
BRANCH  11  12
ATOM     12  N   UNL     1      -1.490  11.716  18.948  0.00  0.00    +0.000 NA
ATOM     13  C   UNL     1      -2.789  11.727  18.826  0.00  0.00    +0.000 C 
ATOM     14  C   UNL     1      -3.376  10.870  17.758  0.00  0.00    +0.000 C 
ATOM     15  C   UNL     1      -4.686  10.867  17.480  0.00  0.00    +0.000 C 
ATOM     16  C   UNL     1      -5.638  11.695  18.233  0.00  0.00    +0.000 C 
ATOM     17  O   UNL     1      -6.833  11.701  17.967  0.00  0.00    +0.000 OA
ATOM     18  C   UNL     1      -5.095  12.494  19.343  0.00  0.00    +0.000 C 
ATOM     19  C   UNL     1      -3.791  12.487  19.639  0.00  0.00    +0.000 C 
ENDBRANCH  11  12
BRANCH   7  20
ATOM     20  C   UNL     1       0.540  17.011  18.705  0.00  0.00    +0.000 A 
ATOM     21  C   UNL     1       1.652  17.269  17.895  0.00  0.00    +0.000 A 
ATOM     22  C   UNL     1       1.544  17.978  16.695  0.00  0.00    +0.000 A 
ATOM     23  C   UNL     1       0.327  18.530  16.323  0.00  0.00    +0.000 A 
ATOM     24  C   UNL     1      -0.779  18.362  17.149  0.00  0.00    +0.000 A 
ATOM     25  C   UNL     1      -0.681  17.592  18.316  0.00  0.00    +0.000 A 
ENDBRANCH   7  20
TORSDOF 2
ENDMDL
