MODEL 1
REMARK VINA RESULT:      -7.9      0.000      0.000
REMARK  Name = 
REMARK  5 active torsions:
REMARK  status: ('A' for Active; 'I' for Inactive)
REMARK    1  A    between atoms: C_4  and  C_5
REMARK    2  A    between atoms: C_8  and  C_9
REMARK    3  A    between atoms: C_9  and  N_10
REMARK    4  A    between atoms: N_13  and  C_14
REMARK    5  A    between atoms: C_23  and  O_24
REMARK                            x       y       z     vdW  Elec       q    Type
REMARK                         _______ _______ _______ _____ _____    ______ ____
ROOT
ATOM      1  N   UNL     1       5.444   5.152  17.297  0.00  0.00    +0.000 NA
ATOM      2  C   UNL     1       5.383   6.643  17.263  0.00  0.00    +0.000 C 
ATOM      3  C   UNL     1       3.978   7.281  17.372  0.00  0.00    +0.000 C 
ATOM      4  N   UNL     1       3.285   6.756  18.561  0.00  0.00    +0.000 N 
ATOM      5  C   UNL     1       3.220   5.289  18.625  0.00  0.00    +0.000 C 
ATOM      6  C   UNL     1       4.656   4.705  18.488  0.00  0.00    +0.000 C 
ENDROOT
BRANCH   4   7
ATOM      7  C   UNL     1       2.309   7.545  19.164  0.00  0.00    +0.000 A 
ATOM      8  C   UNL     1       1.898   8.729  18.525  0.00  0.00    +0.000 A 
ATOM      9  C   UNL     1       0.961   9.599  19.089  0.00  0.00    +0.000 A 
ATOM     10  C   UNL     1       0.406   9.315  20.333  0.00  0.00    +0.000 A 
ATOM     11  C   UNL     1       0.797   8.161  21.000  0.00  0.00    +0.000 A 
ATOM     12  C   UNL     1       1.733   7.295  20.427  0.00  0.00    +0.000 A 
ATOM     13  F   UNL     1       2.055   6.190  21.118  0.00  0.00    +0.000 F 
ENDBRANCH   4   7
BRANCH   1  14
ATOM     14  C   UNL     1       4.890   4.539  16.074  0.00  0.00    +0.000 C 
BRANCH  14  20
ATOM     15  O   UNL     1       8.698   5.683  13.134  0.00  0.00    +0.000 OA
ATOM     16  C   UNL     1       7.665   5.075  13.395  0.00  0.00    +0.000 A 
ATOM     17  C   UNL     1       7.083   4.160  12.395  0.00  0.00    +0.000 A 
ATOM     18  C   UNL     1       5.897   3.590  12.640  0.00  0.00    +0.000 A 
ATOM     19  O   UNL     1       5.176   3.847  13.793  0.00  0.00    +0.000 OA
ATOM     20  C   UNL     1       5.756   4.571  14.829  0.00  0.00    +0.000 A 
ATOM     21  C   UNL     1       6.949   5.186  14.701  0.00  0.00    +0.000 A 
BRANCH  18  22
ATOM     22  C   UNL     1       5.234   2.642  11.686  0.00  0.00    +0.000 C 
ATOM     23 CL   UNL     1       3.807   3.398  10.939  0.00  0.00    +0.000 Cl
ENDBRANCH  18  22
BRANCH  21  24
ATOM     24  O   UNL     1       7.564   5.888  15.721  0.00  0.00    +0.000 OA
ATOM     25  H   UNL     1       6.949   6.606  15.989  0.00  0.00    +0.000 HD
ENDBRANCH  21  24
ENDBRANCH  14  20
ENDBRANCH   1  14
TORSDOF 5
ENDMDL
MODEL 2
REMARK VINA RESULT:      -7.9      4.033      7.808
REMARK  Name = 
REMARK  5 active torsions:
REMARK  status: ('A' for Active; 'I' for Inactive)
REMARK    1  A    between atoms: C_4  and  C_5
REMARK    2  A    between atoms: C_8  and  C_9
REMARK    3  A    between atoms: C_9  and  N_10
REMARK    4  A    between atoms: N_13  and  C_14
REMARK    5  A    between atoms: C_23  and  O_24
REMARK                            x       y       z     vdW  Elec       q    Type
REMARK                         _______ _______ _______ _____ _____    ______ ____
ROOT
ATOM      1  N   UNL     1       5.901   5.837  18.285  0.00  0.00    +0.000 NA
ATOM      2  C   UNL     1       7.207   5.734  17.570  0.00  0.00    +0.000 C 
ATOM      3  C   UNL     1       7.291   4.695  16.426  0.00  0.00    +0.000 C 
ATOM      4  N   UNL     1       6.189   4.915  15.474  0.00  0.00    +0.000 N 
ATOM      5  C   UNL     1       4.854   4.939  16.087  0.00  0.00    +0.000 C 
ATOM      6  C   UNL     1       4.838   5.982  17.241  0.00  0.00    +0.000 C 
ENDROOT
BRANCH   4   7
ATOM      7  C   UNL     1       6.365   4.518  14.151  0.00  0.00    +0.000 A 
ATOM      8  C   UNL     1       5.447   3.617  13.581  0.00  0.00    +0.000 A 
ATOM      9  C   UNL     1       5.583   3.133  12.277  0.00  0.00    +0.000 A 
ATOM     10  C   UNL     1       6.662   3.531  11.493  0.00  0.00    +0.000 A 
ATOM     11  C   UNL     1       7.595   4.411  12.027  0.00  0.00    +0.000 A 
ATOM     12  C   UNL     1       7.450   4.892  13.331  0.00  0.00    +0.000 A 
ATOM     13  F   UNL     1       8.380   5.751  13.779  0.00  0.00    +0.000 F 
ENDBRANCH   4   7
BRANCH   1  14
ATOM     14  C   UNL     1       5.622   4.651  19.118  0.00  0.00    +0.000 C 
BRANCH  14  20
ATOM     15  O   UNL     1       1.503   1.920  19.295  0.00  0.00    +0.000 OA
ATOM     16  C   UNL     1       2.145   2.942  19.514  0.00  0.00    +0.000 A 
ATOM     17  C   UNL     1       1.483   4.099  20.146  0.00  0.00    +0.000 A 
ATOM     18  C   UNL     1       2.156   5.248  20.276  0.00  0.00    +0.000 A 
ATOM     19  O   UNL     1       3.451   5.405  19.812  0.00  0.00    +0.000 OA
ATOM     20  C   UNL     1       4.165   4.301  19.359  0.00  0.00    +0.000 A 
ATOM     21  C   UNL     1       3.596   3.091  19.193  0.00  0.00    +0.000 A 
BRANCH  18  22
ATOM     22  C   UNL     1       1.568   6.472  20.912  0.00  0.00    +0.000 C 
ATOM     23 CL   UNL     1       1.934   7.921  19.946  0.00  0.00    +0.000 Cl
ENDBRANCH  18  22
BRANCH  21  24
ATOM     24  O   UNL     1       4.287   1.970  18.772  0.00  0.00    +0.000 OA
ATOM     25  H   UNL     1       4.660   2.175  17.886  0.00  0.00    +0.000 HD
ENDBRANCH  21  24
ENDBRANCH  14  20
ENDBRANCH   1  14
TORSDOF 5
ENDMDL
MODEL 3
REMARK VINA RESULT:      -7.9      2.645      3.150
REMARK  Name = 
REMARK  5 active torsions:
REMARK  status: ('A' for Active; 'I' for Inactive)
REMARK    1  A    between atoms: C_4  and  C_5
REMARK    2  A    between atoms: C_8  and  C_9
REMARK    3  A    between atoms: C_9  and  N_10
REMARK    4  A    between atoms: N_13  and  C_14
REMARK    5  A    between atoms: C_23  and  O_24
REMARK                            x       y       z     vdW  Elec       q    Type
REMARK                         _______ _______ _______ _____ _____    ______ ____
ROOT
ATOM      1  N   UNL     1       5.908   5.161  16.762  0.00  0.00    +0.000 NA
ATOM      2  C   UNL     1       4.434   5.385  16.705  0.00  0.00    +0.000 C 
ATOM      3  C   UNL     1       3.544   4.319  17.388  0.00  0.00    +0.000 C 
ATOM      4  N   UNL     1       3.990   4.116  18.777  0.00  0.00    +0.000 N 
ATOM      5  C   UNL     1       5.419   3.800  18.915  0.00  0.00    +0.000 C 
ATOM      6  C   UNL     1       6.258   4.891  18.191  0.00  0.00    +0.000 C 
ENDROOT
BRANCH   4   7
ATOM      7  C   UNL     1       3.062   3.671  19.715  0.00  0.00    +0.000 A 
ATOM      8  C   UNL     1       1.784   4.260  19.743  0.00  0.00    +0.000 A 
ATOM      9  C   UNL     1       0.815   3.904  20.685  0.00  0.00    +0.000 A 
ATOM     10  C   UNL     1       1.099   2.941  21.649  0.00  0.00    +0.000 A 
ATOM     11  C   UNL     1       2.355   2.346  21.659  0.00  0.00    +0.000 A 
ATOM     12  C   UNL     1       3.318   2.707  20.712  0.00  0.00    +0.000 A 
ATOM     13  F   UNL     1       4.505   2.083  20.770  0.00  0.00    +0.000 F 
ENDBRANCH   4   7
BRANCH   1  14
ATOM     14  C   UNL     1       6.337   4.026  15.921  0.00  0.00    +0.000 C 
BRANCH  14  20
ATOM     15  O   UNL     1       8.374   6.240  11.996  0.00  0.00    +0.000 OA
ATOM     16  C   UNL     1       7.700   5.363  12.527  0.00  0.00    +0.000 A 
ATOM     17  C   UNL     1       7.043   4.340  11.691  0.00  0.00    +0.000 A 
ATOM     18  C   UNL     1       6.217   3.458  12.265  0.00  0.00    +0.000 A 
ATOM     19  O   UNL     1       5.930   3.483  13.619  0.00  0.00    +0.000 OA
ATOM     20  C   UNL     1       6.647   4.322  14.465  0.00  0.00    +0.000 A 
ATOM     21  C   UNL     1       7.511   5.247  14.004  0.00  0.00    +0.000 A 
BRANCH  18  22
ATOM     22  C   UNL     1       5.514   2.379  11.496  0.00  0.00    +0.000 C 
ATOM     23 CL   UNL     1       3.873   2.898  11.044  0.00  0.00    +0.000 Cl
ENDBRANCH  18  22
BRANCH  21  24
ATOM     24  O   UNL     1       8.258   6.074  14.822  0.00  0.00    +0.000 OA
ATOM     25  H   UNL     1       8.875   5.501  15.327  0.00  0.00    +0.000 HD
ENDBRANCH  21  24
ENDBRANCH  14  20
ENDBRANCH   1  14
TORSDOF 5
ENDMDL
MODEL 4
REMARK VINA RESULT:      -7.8      2.443      3.127
REMARK  Name = 
REMARK  5 active torsions:
REMARK  status: ('A' for Active; 'I' for Inactive)
REMARK    1  A    between atoms: C_4  and  C_5
REMARK    2  A    between atoms: C_8  and  C_9
REMARK    3  A    between atoms: C_9  and  N_10
REMARK    4  A    between atoms: N_13  and  C_14
REMARK    5  A    between atoms: C_23  and  O_24
REMARK                            x       y       z     vdW  Elec       q    Type
REMARK                         _______ _______ _______ _____ _____    ______ ____
ROOT
ATOM      1  N   UNL     1       5.993   5.132  16.796  0.00  0.00    +0.000 NA
ATOM      2  C   UNL     1       4.539   5.468  16.770  0.00  0.00    +0.000 C 
ATOM      3  C   UNL     1       3.582   4.461  17.451  0.00  0.00    +0.000 C 
ATOM      4  N   UNL     1       4.034   4.200  18.829  0.00  0.00    +0.000 N 
ATOM      5  C   UNL     1       5.437   3.773  18.935  0.00  0.00    +0.000 C 
ATOM      6  C   UNL     1       6.345   4.810  18.214  0.00  0.00    +0.000 C 
ENDROOT
BRANCH   4   7
ATOM      7  C   UNL     1       3.091   3.810  19.776  0.00  0.00    +0.000 A 
ATOM      8  C   UNL     1       3.380   2.723  20.620  0.00  0.00    +0.000 A 
ATOM      9  C   UNL     1       2.467   2.240  21.561  0.00  0.00    +0.000 A 
ATOM     10  C   UNL     1       1.212   2.831  21.682  0.00  0.00    +0.000 A 
ATOM     11  C   UNL     1       0.887   3.900  20.857  0.00  0.00    +0.000 A 
ATOM     12  C   UNL     1       1.808   4.378  19.920  0.00  0.00    +0.000 A 
ATOM     13  F   UNL     1       1.434   5.423  19.165  0.00  0.00    +0.000 F 
ENDBRANCH   4   7
BRANCH   1  14
ATOM     14  C   UNL     1       6.319   3.983  15.929  0.00  0.00    +0.000 C 
BRANCH  14  20
ATOM     15  O   UNL     1       8.335   6.201  11.996  0.00  0.00    +0.000 OA
ATOM     16  C   UNL     1       7.665   5.323  12.529  0.00  0.00    +0.000 A 
ATOM     17  C   UNL     1       7.006   4.299  11.696  0.00  0.00    +0.000 A 
ATOM     18  C   UNL     1       6.184   3.415  12.273  0.00  0.00    +0.000 A 
ATOM     19  O   UNL     1       5.903   3.439  13.628  0.00  0.00    +0.000 OA
ATOM     20  C   UNL     1       6.622   4.279  14.472  0.00  0.00    +0.000 A 
ATOM     21  C   UNL     1       7.483   5.206  14.007  0.00  0.00    +0.000 A 
BRANCH  18  22
ATOM     22  C   UNL     1       5.479   2.335  11.508  0.00  0.00    +0.000 C 
ATOM     23 CL   UNL     1       3.889   2.901  10.945  0.00  0.00    +0.000 Cl
ENDBRANCH  18  22
BRANCH  21  24
ATOM     24  O   UNL     1       8.232   6.034  14.822  0.00  0.00    +0.000 OA
ATOM     25  H   UNL     1       7.618   6.421  15.484  0.00  0.00    +0.000 HD
ENDBRANCH  21  24
ENDBRANCH  14  20
ENDBRANCH   1  14
TORSDOF 5
ENDMDL
MODEL 5
REMARK VINA RESULT:      -7.8      3.152      4.426
REMARK  Name = 
REMARK  5 active torsions:
REMARK  status: ('A' for Active; 'I' for Inactive)
REMARK    1  A    between atoms: C_4  and  C_5
REMARK    2  A    between atoms: C_8  and  C_9
REMARK    3  A    between atoms: C_9  and  N_10
REMARK    4  A    between atoms: N_13  and  C_14
REMARK    5  A    between atoms: C_23  and  O_24
REMARK                            x       y       z     vdW  Elec       q    Type
REMARK                         _______ _______ _______ _____ _____    ______ ____
ROOT
ATOM      1  N   UNL     1       2.583   4.765  18.963  0.00  0.00    +0.000 NA
ATOM      2  C   UNL     1       1.595   4.892  20.075  0.00  0.00    +0.000 C 
ATOM      3  C   UNL     1       1.662   6.188  20.918  0.00  0.00    +0.000 C 
ATOM      4  N   UNL     1       1.603   7.361  20.029  0.00  0.00    +0.000 N 
ATOM      5  C   UNL     1       2.608   7.360  18.957  0.00  0.00    +0.000 C 
ATOM      6  C   UNL     1       2.507   6.026  18.161  0.00  0.00    +0.000 C 
ENDROOT
BRANCH   4   7
ATOM      7  C   UNL     1       1.097   8.555  20.537  0.00  0.00    +0.000 A 
ATOM      8  C   UNL     1       0.959   8.700  21.930  0.00  0.00    +0.000 A 
ATOM      9  C   UNL     1       0.413   9.846  22.514  0.00  0.00    +0.000 A 
ATOM     10  C   UNL     1      -0.029  10.895  21.713  0.00  0.00    +0.000 A 
ATOM     11  C   UNL     1       0.081  10.782  20.333  0.00  0.00    +0.000 A 
ATOM     12  C   UNL     1       0.630   9.633  19.757  0.00  0.00    +0.000 A 
ATOM     13  F   UNL     1       0.719   9.596  18.418  0.00  0.00    +0.000 F 
ENDBRANCH   4   7
BRANCH   1  14
ATOM     14  C   UNL     1       3.960   4.570  19.456  0.00  0.00    +0.000 C 
BRANCH  14  20
ATOM     15  O   UNL     1       6.496   3.765  15.288  0.00  0.00    +0.000 OA
ATOM     16  C   UNL     1       6.305   4.337  16.356  0.00  0.00    +0.000 A 
ATOM     17  C   UNL     1       7.269   5.351  16.824  0.00  0.00    +0.000 A 
ATOM     18  C   UNL     1       7.117   5.887  18.041  0.00  0.00    +0.000 A 
ATOM     19  O   UNL     1       6.099   5.504  18.897  0.00  0.00    +0.000 OA
ATOM     20  C   UNL     1       5.081   4.675  18.439  0.00  0.00    +0.000 A 
ATOM     21  C   UNL     1       5.120   4.083  17.229  0.00  0.00    +0.000 A 
BRANCH  18  22
ATOM     22  C   UNL     1       8.042   6.929  18.595  0.00  0.00    +0.000 C 
ATOM     23 CL   UNL     1       7.939   8.430  17.644  0.00  0.00    +0.000 Cl
ENDBRANCH  18  22
BRANCH  21  24
ATOM     24  O   UNL     1       4.110   3.278  16.735  0.00  0.00    +0.000 OA
ATOM     25  H   UNL     1       3.469   3.867  16.279  0.00  0.00    +0.000 HD
ENDBRANCH  21  24
ENDBRANCH  14  20
ENDBRANCH   1  14
TORSDOF 5
ENDMDL
MODEL 6
REMARK VINA RESULT:      -7.7      2.709      3.204
REMARK  Name = 
REMARK  5 active torsions:
REMARK  status: ('A' for Active; 'I' for Inactive)
REMARK    1  A    between atoms: C_4  and  C_5
REMARK    2  A    between atoms: C_8  and  C_9
REMARK    3  A    between atoms: C_9  and  N_10
REMARK    4  A    between atoms: N_13  and  C_14
REMARK    5  A    between atoms: C_23  and  O_24
REMARK                            x       y       z     vdW  Elec       q    Type
REMARK                         _______ _______ _______ _____ _____    ______ ____
ROOT
ATOM      1  N   UNL     1       6.466   5.237  16.780  0.00  0.00    +0.000 NA
ATOM      2  C   UNL     1       5.085   5.683  16.433  0.00  0.00    +0.000 C 
ATOM      3  C   UNL     1       3.935   4.707  16.777  0.00  0.00    +0.000 C 
ATOM      4  N   UNL     1       4.020   4.319  18.196  0.00  0.00    +0.000 N 
ATOM      5  C   UNL     1       5.326   3.782  18.600  0.00  0.00    +0.000 C 
ATOM      6  C   UNL     1       6.441   4.794  18.209  0.00  0.00    +0.000 C 
ENDROOT
BRANCH   4   7
ATOM      7  C   UNL     1       2.852   3.938  18.851  0.00  0.00    +0.000 A 
ATOM      8  C   UNL     1       2.437   4.663  19.984  0.00  0.00    +0.000 A 
ATOM      9  C   UNL     1       1.306   4.313  20.725  0.00  0.00    +0.000 A 
ATOM     10  C   UNL     1       0.547   3.205  20.359  0.00  0.00    +0.000 A 
ATOM     11  C   UNL     1       0.932   2.459  19.253  0.00  0.00    +0.000 A 
ATOM     12  C   UNL     1       2.065   2.817  18.515  0.00  0.00    +0.000 A 
ATOM     13  F   UNL     1       2.372   2.061  17.450  0.00  0.00    +0.000 F 
ENDBRANCH   4   7
BRANCH   1  14
ATOM     14  C   UNL     1       6.930   4.129  15.923  0.00  0.00    +0.000 C 
BRANCH  14  20
ATOM     15  O   UNL     1       8.186   6.298  11.660  0.00  0.00    +0.000 OA
ATOM     16  C   UNL     1       7.655   5.408  12.317  0.00  0.00    +0.000 A 
ATOM     17  C   UNL     1       6.931   4.323  11.627  0.00  0.00    +0.000 A 
ATOM     18  C   UNL     1       6.259   3.421  12.352  0.00  0.00    +0.000 A 
ATOM     19  O   UNL     1       6.191   3.481  13.733  0.00  0.00    +0.000 OA
ATOM     20  C   UNL     1       6.986   4.386  14.429  0.00  0.00    +0.000 A 
ATOM     21  C   UNL     1       7.712   5.336  13.807  0.00  0.00    +0.000 A 
BRANCH  18  22
ATOM     22  C   UNL     1       5.502   2.281  11.738  0.00  0.00    +0.000 C 
ATOM     23 CL   UNL     1       6.615   1.157  10.921  0.00  0.00    +0.000 Cl
ENDBRANCH  18  22
BRANCH  21  24
ATOM     24  O   UNL     1       8.533   6.230  14.470  0.00  0.00    +0.000 OA
ATOM     25  H   UNL     1       9.416   5.806  14.550  0.00  0.00    +0.000 HD
ENDBRANCH  21  24
ENDBRANCH  14  20
ENDBRANCH   1  14
TORSDOF 5
ENDMDL
MODEL 7
REMARK VINA RESULT:      -7.6      3.825      5.332
REMARK  Name = 
REMARK  5 active torsions:
REMARK  status: ('A' for Active; 'I' for Inactive)
REMARK    1  A    between atoms: C_4  and  C_5
REMARK    2  A    between atoms: C_8  and  C_9
REMARK    3  A    between atoms: C_9  and  N_10
REMARK    4  A    between atoms: N_13  and  C_14
REMARK    5  A    between atoms: C_23  and  O_24
REMARK                            x       y       z     vdW  Elec       q    Type
REMARK                         _______ _______ _______ _____ _____    ______ ____
ROOT
ATOM      1  N   UNL     1       5.598   5.678  15.036  0.00  0.00    +0.000 NA
ATOM      2  C   UNL     1       4.810   4.410  15.055  0.00  0.00    +0.000 C 
ATOM      3  C   UNL     1       4.474   3.824  16.447  0.00  0.00    +0.000 C 
ATOM      4  N   UNL     1       3.828   4.855  17.277  0.00  0.00    +0.000 N 
ATOM      5  C   UNL     1       4.587   6.109  17.386  0.00  0.00    +0.000 C 
ATOM      6  C   UNL     1       4.914   6.636  15.959  0.00  0.00    +0.000 C 
ENDROOT
BRANCH   4   7
ATOM      7  C   UNL     1       2.965   4.447  18.291  0.00  0.00    +0.000 A 
ATOM      8  C   UNL     1       1.841   3.668  17.959  0.00  0.00    +0.000 A 
ATOM      9  C   UNL     1       0.903   3.262  18.912  0.00  0.00    +0.000 A 
ATOM     10  C   UNL     1       1.055   3.635  20.244  0.00  0.00    +0.000 A 
ATOM     11  C   UNL     1       2.146   4.413  20.607  0.00  0.00    +0.000 A 
ATOM     12  C   UNL     1       3.081   4.814  19.648  0.00  0.00    +0.000 A 
ATOM     13  F   UNL     1       4.120   5.553  20.070  0.00  0.00    +0.000 F 
ENDBRANCH   4   7
BRANCH   1  14
ATOM     14  C   UNL     1       6.994   5.478  15.471  0.00  0.00    +0.000 C 
BRANCH  14  20
ATOM     15  O   UNL     1       8.037   5.302  20.302  0.00  0.00    +0.000 OA
ATOM     16  C   UNL     1       7.947   5.883  19.225  0.00  0.00    +0.000 A 
ATOM     17  C   UNL     1       8.256   7.323  19.144  0.00  0.00    +0.000 A 
ATOM     18  C   UNL     1       8.045   7.975  17.994  0.00  0.00    +0.000 A 
ATOM     19  O   UNL     1       7.518   7.352  16.876  0.00  0.00    +0.000 OA
ATOM     20  C   UNL     1       7.365   5.970  16.858  0.00  0.00    +0.000 A 
ATOM     21  C   UNL     1       7.555   5.208  17.953  0.00  0.00    +0.000 A 
BRANCH  18  22
ATOM     22  C   UNL     1       8.337   9.435  17.817  0.00  0.00    +0.000 C 
ATOM     23 CL   UNL     1       9.254  10.065  19.207  0.00  0.00    +0.000 Cl
ENDBRANCH  18  22
BRANCH  21  24
ATOM     24  O   UNL     1       7.438   3.830  17.957  0.00  0.00    +0.000 OA
ATOM     25  H   UNL     1       6.666   3.603  17.394  0.00  0.00    +0.000 HD
ENDBRANCH  21  24
ENDBRANCH  14  20
ENDBRANCH   1  14
TORSDOF 5
ENDMDL
MODEL 8
REMARK VINA RESULT:      -7.5      3.968      7.702
REMARK  Name = 
REMARK  5 active torsions:
REMARK  status: ('A' for Active; 'I' for Inactive)
REMARK    1  A    between atoms: C_4  and  C_5
REMARK    2  A    between atoms: C_8  and  C_9
REMARK    3  A    between atoms: C_9  and  N_10
REMARK    4  A    between atoms: N_13  and  C_14
REMARK    5  A    between atoms: C_23  and  O_24
REMARK                            x       y       z     vdW  Elec       q    Type
REMARK                         _______ _______ _______ _____ _____    ______ ____
ROOT
ATOM      1  N   UNL     1       5.882   5.668  18.653  0.00  0.00    +0.000 NA
ATOM      2  C   UNL     1       7.255   5.555  18.079  0.00  0.00    +0.000 C 
ATOM      3  C   UNL     1       7.416   4.644  16.839  0.00  0.00    +0.000 C 
ATOM      4  N   UNL     1       6.446   5.040  15.803  0.00  0.00    +0.000 N 
ATOM      5  C   UNL     1       5.052   5.087  16.265  0.00  0.00    +0.000 C 
ATOM      6  C   UNL     1       4.958   5.997  17.523  0.00  0.00    +0.000 C 
ENDROOT
BRANCH   4   7
ATOM      7  C   UNL     1       6.753   4.778  14.470  0.00  0.00    +0.000 A 
ATOM      8  C   UNL     1       7.698   5.590  13.816  0.00  0.00    +0.000 A 
ATOM      9  C   UNL     1       8.023   5.423  12.467  0.00  0.00    +0.000 A 
ATOM     10  C   UNL     1       7.399   4.431  11.716  0.00  0.00    +0.000 A 
ATOM     11  C   UNL     1       6.452   3.618  12.326  0.00  0.00    +0.000 A 
ATOM     12  C   UNL     1       6.134   3.790  13.677  0.00  0.00    +0.000 A 
ATOM     13  F   UNL     1       5.222   2.960  14.207  0.00  0.00    +0.000 F 
ENDBRANCH   4   7
BRANCH   1  14
ATOM     14  C   UNL     1       5.443   4.420  19.308  0.00  0.00    +0.000 C 
BRANCH  14  20
ATOM     15  O   UNL     1       1.135   2.044  18.811  0.00  0.00    +0.000 OA
ATOM     16  C   UNL     1       1.828   2.975  19.208  0.00  0.00    +0.000 A 
ATOM     17  C   UNL     1       1.200   4.099  19.928  0.00  0.00    +0.000 A 
ATOM     18  C   UNL     1       1.942   5.163  20.255  0.00  0.00    +0.000 A 
ATOM     19  O   UNL     1       3.281   5.265  19.919  0.00  0.00    +0.000 OA
ATOM     20  C   UNL     1       3.949   4.167  19.387  0.00  0.00    +0.000 A 
ATOM     21  C   UNL     1       3.309   3.038  19.024  0.00  0.00    +0.000 A 
BRANCH  18  22
ATOM     22  C   UNL     1       1.391   6.346  20.994  0.00  0.00    +0.000 C 
ATOM     23 CL   UNL     1       1.876   7.864  20.200  0.00  0.00    +0.000 Cl
ENDBRANCH  18  22
BRANCH  21  24
ATOM     24  O   UNL     1       3.950   1.922  18.519  0.00  0.00    +0.000 OA
ATOM     25  H   UNL     1       3.288   1.423  17.991  0.00  0.00    +0.000 HD
ENDBRANCH  21  24
ENDBRANCH  14  20
ENDBRANCH   1  14
TORSDOF 5
ENDMDL
MODEL 9
REMARK VINA RESULT:      -7.5      1.191      1.537
REMARK  Name = 
REMARK  5 active torsions:
REMARK  status: ('A' for Active; 'I' for Inactive)
REMARK    1  A    between atoms: C_4  and  C_5
REMARK    2  A    between atoms: C_8  and  C_9
REMARK    3  A    between atoms: C_9  and  N_10
REMARK    4  A    between atoms: N_13  and  C_14
REMARK    5  A    between atoms: C_23  and  O_24
REMARK                            x       y       z     vdW  Elec       q    Type
REMARK                         _______ _______ _______ _____ _____    ______ ____
ROOT
ATOM      1  N   UNL     1       5.376   5.093  17.315  0.00  0.00    +0.000 NA
ATOM      2  C   UNL     1       5.420   6.585  17.313  0.00  0.00    +0.000 C 
ATOM      3  C   UNL     1       4.061   7.319  17.399  0.00  0.00    +0.000 C 
ATOM      4  N   UNL     1       3.300   6.819  18.558  0.00  0.00    +0.000 N 
ATOM      5  C   UNL     1       3.131   5.360  18.588  0.00  0.00    +0.000 C 
ATOM      6  C   UNL     1       4.526   4.679  18.475  0.00  0.00    +0.000 C 
ENDROOT
BRANCH   4   7
ATOM      7  C   UNL     1       2.366   7.663  19.153  0.00  0.00    +0.000 A 
ATOM      8  C   UNL     1       1.937   7.388  20.465  0.00  0.00    +0.000 A 
ATOM      9  C   UNL     1       0.967   8.158  21.112  0.00  0.00    +0.000 A 
ATOM     10  C   UNL     1       0.379   9.236  20.457  0.00  0.00    +0.000 A 
ATOM     11  C   UNL     1       0.770   9.530  19.157  0.00  0.00    +0.000 A 
ATOM     12  C   UNL     1       1.742   8.756  18.517  0.00  0.00    +0.000 A 
ATOM     13  F   UNL     1       2.083   9.104  17.266  0.00  0.00    +0.000 F 
ENDBRANCH   4   7
BRANCH   1  14
ATOM     14  C   UNL     1       4.814   4.546  16.065  0.00  0.00    +0.000 C 
BRANCH  14  20
ATOM     15  O   UNL     1       8.697   5.638  13.204  0.00  0.00    +0.000 OA
ATOM     16  C   UNL     1       7.648   5.047  13.442  0.00  0.00    +0.000 A 
ATOM     17  C   UNL     1       7.069   4.148  12.425  0.00  0.00    +0.000 A 
ATOM     18  C   UNL     1       5.869   3.598  12.645  0.00  0.00    +0.000 A 
ATOM     19  O   UNL     1       5.131   3.861  13.786  0.00  0.00    +0.000 OA
ATOM     20  C   UNL     1       5.704   4.569  14.837  0.00  0.00    +0.000 A 
ATOM     21  C   UNL     1       6.910   5.163  14.734  0.00  0.00    +0.000 A 
BRANCH  18  22
ATOM     22  C   UNL     1       5.208   2.667  11.673  0.00  0.00    +0.000 C 
ATOM     23 CL   UNL     1       6.353   1.425  11.114  0.00  0.00    +0.000 Cl
ENDBRANCH  18  22
BRANCH  21  24
ATOM     24  O   UNL     1       7.518   5.848  15.771  0.00  0.00    +0.000 OA
ATOM     25  H   UNL     1       6.975   5.696  16.575  0.00  0.00    +0.000 HD
ENDBRANCH  21  24
ENDBRANCH  14  20
ENDBRANCH   1  14
TORSDOF 5
ENDMDL
