MODEL 1
REMARK VINA RESULT:      -7.7      0.000      0.000
REMARK  Name = 
REMARK  4 active torsions:
REMARK  status: ('A' for Active; 'I' for Inactive)
REMARK    1  A    between atoms: C_1  and  O_2
REMARK    2  A    between atoms: O_2  and  C_3
REMARK    3  A    between atoms: C_8  and  C_9
REMARK    4  A    between atoms: N_18  and  C_19
REMARK                            x       y       z     vdW  Elec       q    Type
REMARK                         _______ _______ _______ _____ _____    ______ ____
ROOT
ATOM      1  C   UNL     1       6.944   4.786  14.514  0.00  0.00    +0.000 C 
ATOM      2  O   UNL     1       6.184   3.833  14.530  0.00  0.00    +0.000 OA
ATOM      3  N   UNL     1       7.453   5.484  15.581  0.00  0.00    +0.000 N 
ATOM      4  C   UNL     1       7.100   5.313  16.888  0.00  0.00    +0.000 C 
ATOM      5  N   UNL     1       6.304   4.354  17.260  0.00  0.00    +0.000 NA
ATOM      6  C   UNL     1       5.999   4.616  18.691  0.00  0.00    +0.000 C 
ATOM      7  C   UNL     1       7.012   5.690  19.139  0.00  0.00    +0.000 C 
ATOM      8  N   UNL     1       7.556   6.159  17.868  0.00  0.00    +0.000 N 
ATOM      9  C   UNL     1       7.748   7.581  17.696  0.00  0.00    +0.000 C 
ATOM     10  H   UNL     1       8.077   6.232  15.343  0.00  0.00    +0.000 HD
ENDROOT
BRANCH   6  11
ATOM     11  C   UNL     1       4.557   5.065  18.876  0.00  0.00    +0.000 A 
ATOM     12  C   UNL     1       3.674   4.292  19.642  0.00  0.00    +0.000 A 
ATOM     13  C   UNL     1       2.347   4.697  19.810  0.00  0.00    +0.000 A 
ATOM     14 CL   UNL     1       1.277   3.728  20.747  0.00  0.00    +0.000 Cl
ATOM     15  C   UNL     1       1.880   5.875  19.233  0.00  0.00    +0.000 A 
ATOM     16  C   UNL     1       2.752   6.651  18.478  0.00  0.00    +0.000 A 
ATOM     17 CL   UNL     1       2.197   8.115  17.763  0.00  0.00    +0.000 Cl
ATOM     18  C   UNL     1       4.078   6.255  18.300  0.00  0.00    +0.000 A 
ENDBRANCH   6  11
BRANCH   1  20
ATOM     19  C   UNL     1       7.288   4.457  12.234  0.00  0.00    +0.000 C 
ATOM     20  O   UNL     1       7.426   5.332  13.358  0.00  0.00    +0.000 OA
ENDBRANCH   1  20
TORSDOF 2
ENDMDL
MODEL 2
REMARK VINA RESULT:      -7.7      0.053      2.066
REMARK  Name = 
REMARK  4 active torsions:
REMARK  status: ('A' for Active; 'I' for Inactive)
REMARK    1  A    between atoms: C_1  and  O_2
REMARK    2  A    between atoms: O_2  and  C_3
REMARK    3  A    between atoms: C_8  and  C_9
REMARK    4  A    between atoms: N_18  and  C_19
REMARK                            x       y       z     vdW  Elec       q    Type
REMARK                         _______ _______ _______ _____ _____    ______ ____
ROOT
ATOM      1  C   UNL     1       6.947   4.773  14.519  0.00  0.00    +0.000 C 
ATOM      2  O   UNL     1       6.187   3.820  14.538  0.00  0.00    +0.000 OA
ATOM      3  N   UNL     1       7.454   5.476  15.583  0.00  0.00    +0.000 N 
ATOM      4  C   UNL     1       7.097   5.312  16.890  0.00  0.00    +0.000 C 
ATOM      5  N   UNL     1       6.300   4.355  17.266  0.00  0.00    +0.000 NA
ATOM      6  C   UNL     1       5.992   4.624  18.695  0.00  0.00    +0.000 C 
ATOM      7  C   UNL     1       7.004   5.701  19.140  0.00  0.00    +0.000 C 
ATOM      8  N   UNL     1       7.551   6.163  17.868  0.00  0.00    +0.000 N 
ATOM      9  C   UNL     1       7.744   7.584  17.688  0.00  0.00    +0.000 C 
ATOM     10  H   UNL     1       8.079   6.223  15.343  0.00  0.00    +0.000 HD
ENDROOT
BRANCH   6  11
ATOM     11  C   UNL     1       4.550   5.074  18.874  0.00  0.00    +0.000 A 
ATOM     12  C   UNL     1       4.114   6.278  18.305  0.00  0.00    +0.000 A 
ATOM     13  C   UNL     1       2.791   6.698  18.472  0.00  0.00    +0.000 A 
ATOM     14 CL   UNL     1       2.279   8.185  17.772  0.00  0.00    +0.000 Cl
ATOM     15  C   UNL     1       1.882   5.930  19.194  0.00  0.00    +0.000 A 
ATOM     16  C   UNL     1       2.305   4.730  19.755  0.00  0.00    +0.000 A 
ATOM     17 CL   UNL     1       1.195   3.761  20.644  0.00  0.00    +0.000 Cl
ATOM     18  C   UNL     1       3.624   4.302  19.598  0.00  0.00    +0.000 A 
ENDBRANCH   6  11
BRANCH   1  20
ATOM     19  C   UNL     1       7.272   4.443  12.237  0.00  0.00    +0.000 C 
ATOM     20  O   UNL     1       7.432   5.313  13.362  0.00  0.00    +0.000 OA
ENDBRANCH   1  20
TORSDOF 2
ENDMDL
MODEL 3
REMARK VINA RESULT:      -7.3      1.054      2.208
REMARK  Name = 
REMARK  4 active torsions:
REMARK  status: ('A' for Active; 'I' for Inactive)
REMARK    1  A    between atoms: C_1  and  O_2
REMARK    2  A    between atoms: O_2  and  C_3
REMARK    3  A    between atoms: C_8  and  C_9
REMARK    4  A    between atoms: N_18  and  C_19
REMARK                            x       y       z     vdW  Elec       q    Type
REMARK                         _______ _______ _______ _____ _____    ______ ____
ROOT
ATOM      1  C   UNL     1       7.097   4.825  13.987  0.00  0.00    +0.000 C 
ATOM      2  O   UNL     1       6.421   3.814  13.899  0.00  0.00    +0.000 OA
ATOM      3  N   UNL     1       7.478   5.495  15.122  0.00  0.00    +0.000 N 
ATOM      4  C   UNL     1       7.059   5.217  16.391  0.00  0.00    +0.000 C 
ATOM      5  N   UNL     1       6.325   4.177  16.656  0.00  0.00    +0.000 NA
ATOM      6  C   UNL     1       5.911   4.326  18.075  0.00  0.00    +0.000 C 
ATOM      7  C   UNL     1       6.800   5.450  18.649  0.00  0.00    +0.000 C 
ATOM      8  N   UNL     1       7.380   6.036  17.445  0.00  0.00    +0.000 N 
ATOM      9  C   UNL     1       7.462   7.477  17.365  0.00  0.00    +0.000 C 
ATOM     10  H   UNL     1       8.050   6.304  14.968  0.00  0.00    +0.000 HD
ENDROOT
BRANCH   6  11
ATOM     11  C   UNL     1       4.428   4.645  18.187  0.00  0.00    +0.000 A 
ATOM     12  C   UNL     1       3.988   5.974  18.116  0.00  0.00    +0.000 A 
ATOM     13  C   UNL     1       2.626   6.272  18.225  0.00  0.00    +0.000 A 
ATOM     14 CL   UNL     1       2.109   7.912  18.143  0.00  0.00    +0.000 Cl
ATOM     15  C   UNL     1       1.684   5.262  18.395  0.00  0.00    +0.000 A 
ATOM     16  C   UNL     1       2.112   3.941  18.458  0.00  0.00    +0.000 A 
ATOM     17 CL   UNL     1       0.962   2.676  18.659  0.00  0.00    +0.000 Cl
ATOM     18  C   UNL     1       3.468   3.630  18.355  0.00  0.00    +0.000 A 
ENDBRANCH   6  11
BRANCH   1  20
ATOM     19  C   UNL     1       8.967   5.870  13.073  0.00  0.00    +0.000 C 
ATOM     20  O   UNL     1       7.602   5.476  12.898  0.00  0.00    +0.000 OA
ENDBRANCH   1  20
TORSDOF 2
ENDMDL
MODEL 4
REMARK VINA RESULT:      -7.0      2.873      4.517
REMARK  Name = 
REMARK  4 active torsions:
REMARK  status: ('A' for Active; 'I' for Inactive)
REMARK    1  A    between atoms: C_1  and  O_2
REMARK    2  A    between atoms: O_2  and  C_3
REMARK    3  A    between atoms: C_8  and  C_9
REMARK    4  A    between atoms: N_18  and  C_19
REMARK                            x       y       z     vdW  Elec       q    Type
REMARK                         _______ _______ _______ _____ _____    ______ ____
ROOT
ATOM      1  C   UNL     1       8.499   9.322  18.458  0.00  0.00    +0.000 C 
ATOM      2  O   UNL     1       7.833   9.889  17.609  0.00  0.00    +0.000 OA
ATOM      3  N   UNL     1       8.585   7.975  18.711  0.00  0.00    +0.000 N 
ATOM      4  C   UNL     1       7.829   7.004  18.122  0.00  0.00    +0.000 C 
ATOM      5  N   UNL     1       7.011   7.271  17.146  0.00  0.00    +0.000 NA
ATOM      6  C   UNL     1       6.236   6.024  16.917  0.00  0.00    +0.000 C 
ATOM      7  C   UNL     1       6.980   4.924  17.703  0.00  0.00    +0.000 C 
ATOM      8  N   UNL     1       7.885   5.699  18.546  0.00  0.00    +0.000 N 
ATOM      9  C   UNL     1       8.042   5.294  19.925  0.00  0.00    +0.000 C 
ATOM     10  H   UNL     1       9.208   7.719  19.453  0.00  0.00    +0.000 HD
ENDROOT
BRANCH   6  11
ATOM     11  C   UNL     1       4.791   6.182  17.365  0.00  0.00    +0.000 A 
ATOM     12  C   UNL     1       4.195   7.450  17.384  0.00  0.00    +0.000 A 
ATOM     13  C   UNL     1       2.869   7.600  17.801  0.00  0.00    +0.000 A 
ATOM     14 CL   UNL     1       2.161   9.169  17.824  0.00  0.00    +0.000 Cl
ATOM     15  C   UNL     1       2.114   6.499  18.194  0.00  0.00    +0.000 A 
ATOM     16  C   UNL     1       2.695   5.237  18.171  0.00  0.00    +0.000 A 
ATOM     17 CL   UNL     1       1.776   3.861  18.645  0.00  0.00    +0.000 Cl
ATOM     18  C   UNL     1       4.019   5.074  17.760  0.00  0.00    +0.000 A 
ENDBRANCH   6  11
BRANCH   1  20
ATOM     19  C   UNL     1       9.925  11.138  18.755  0.00  0.00    +0.000 C 
ATOM     20  O   UNL     1       9.303   9.989  19.338  0.00  0.00    +0.000 OA
ENDBRANCH   1  20
TORSDOF 2
ENDMDL
MODEL 5
REMARK VINA RESULT:      -6.9      2.886      4.098
REMARK  Name = 
REMARK  4 active torsions:
REMARK  status: ('A' for Active; 'I' for Inactive)
REMARK    1  A    between atoms: C_1  and  O_2
REMARK    2  A    between atoms: O_2  and  C_3
REMARK    3  A    between atoms: C_8  and  C_9
REMARK    4  A    between atoms: N_18  and  C_19
REMARK                            x       y       z     vdW  Elec       q    Type
REMARK                         _______ _______ _______ _____ _____    ______ ____
ROOT
ATOM      1  C   UNL     1       8.473   9.330  18.411  0.00  0.00    +0.000 C 
ATOM      2  O   UNL     1       7.821   9.905  17.556  0.00  0.00    +0.000 OA
ATOM      3  N   UNL     1       8.540   7.983  18.664  0.00  0.00    +0.000 N 
ATOM      4  C   UNL     1       7.778   7.020  18.068  0.00  0.00    +0.000 C 
ATOM      5  N   UNL     1       6.973   7.297  17.086  0.00  0.00    +0.000 NA
ATOM      6  C   UNL     1       6.184   6.060  16.849  0.00  0.00    +0.000 C 
ATOM      7  C   UNL     1       6.908   4.951  17.642  0.00  0.00    +0.000 C 
ATOM      8  N   UNL     1       7.815   5.715  18.493  0.00  0.00    +0.000 N 
ATOM      9  C   UNL     1       7.954   5.309  19.873  0.00  0.00    +0.000 C 
ATOM     10  H   UNL     1       9.154   7.719  19.412  0.00  0.00    +0.000 HD
ENDROOT
BRANCH   6  11
ATOM     11  C   UNL     1       4.737   6.235  17.284  0.00  0.00    +0.000 A 
ATOM     12  C   UNL     1       3.961   5.114  17.610  0.00  0.00    +0.000 A 
ATOM     13  C   UNL     1       2.629   5.270  18.005  0.00  0.00    +0.000 A 
ATOM     14 CL   UNL     1       1.692   3.879  18.392  0.00  0.00    +0.000 Cl
ATOM     15  C   UNL     1       2.052   6.533  18.093  0.00  0.00    +0.000 A 
ATOM     16  C   UNL     1       2.818   7.651  17.779  0.00  0.00    +0.000 A 
ATOM     17 CL   UNL     1       2.125   9.223  17.889  0.00  0.00    +0.000 Cl
ATOM     18  C   UNL     1       4.147   7.509  17.380  0.00  0.00    +0.000 A 
ENDBRANCH   6  11
BRANCH   1  20
ATOM     19  C   UNL     1       9.554  11.334  18.900  0.00  0.00    +0.000 C 
ATOM     20  O   UNL     1       9.278   9.987  19.298  0.00  0.00    +0.000 OA
ENDBRANCH   1  20
TORSDOF 2
ENDMDL
MODEL 6
REMARK VINA RESULT:      -6.2      3.994      6.191
REMARK  Name = 
REMARK  4 active torsions:
REMARK  status: ('A' for Active; 'I' for Inactive)
REMARK    1  A    between atoms: C_1  and  O_2
REMARK    2  A    between atoms: O_2  and  C_3
REMARK    3  A    between atoms: C_8  and  C_9
REMARK    4  A    between atoms: N_18  and  C_19
REMARK                            x       y       z     vdW  Elec       q    Type
REMARK                         _______ _______ _______ _____ _____    ______ ____
ROOT
ATOM      1  C   UNL     1       4.866   1.410  20.574  0.00  0.00    +0.000 C 
ATOM      2  O   UNL     1       5.307   0.696  19.690  0.00  0.00    +0.000 OA
ATOM      3  N   UNL     1       4.038   2.497  20.454  0.00  0.00    +0.000 N 
ATOM      4  C   UNL     1       3.639   3.070  19.281  0.00  0.00    +0.000 C 
ATOM      5  N   UNL     1       3.929   2.541  18.129  0.00  0.00    +0.000 NA
ATOM      6  C   UNL     1       3.512   3.539  17.110  0.00  0.00    +0.000 C 
ATOM      7  C   UNL     1       2.648   4.568  17.868  0.00  0.00    +0.000 C 
ATOM      8  N   UNL     1       2.928   4.244  19.264  0.00  0.00    +0.000 N 
ATOM      9  C   UNL     1       3.136   5.339  20.186  0.00  0.00    +0.000 C 
ATOM     10  H   UNL     1       3.782   2.937  21.318  0.00  0.00    +0.000 HD
ENDROOT
BRANCH   6  11
ATOM     11  C   UNL     1       4.718   4.177  16.436  0.00  0.00    +0.000 A 
ATOM     12  C   UNL     1       5.086   3.790  15.141  0.00  0.00    +0.000 A 
ATOM     13  C   UNL     1       6.196   4.370  14.521  0.00  0.00    +0.000 A 
ATOM     14 CL   UNL     1       6.636   3.872  12.932  0.00  0.00    +0.000 Cl
ATOM     15  C   UNL     1       6.949   5.345  15.168  0.00  0.00    +0.000 A 
ATOM     16  C   UNL     1       6.586   5.740  16.450  0.00  0.00    +0.000 A 
ATOM     17 CL   UNL     1       7.498   6.952  17.265  0.00  0.00    +0.000 Cl
ATOM     18  C   UNL     1       5.482   5.167  17.082  0.00  0.00    +0.000 A 
ENDBRANCH   6  11
BRANCH   1  20
ATOM     19  C   UNL     1       6.117   0.181  22.106  0.00  0.00    +0.000 C 
ATOM     20  O   UNL     1       5.155   1.219  21.895  0.00  0.00    +0.000 OA
ENDBRANCH   1  20
TORSDOF 2
ENDMDL
MODEL 7
REMARK VINA RESULT:      -6.2      4.003      6.209
REMARK  Name = 
REMARK  4 active torsions:
REMARK  status: ('A' for Active; 'I' for Inactive)
REMARK    1  A    between atoms: C_1  and  O_2
REMARK    2  A    between atoms: O_2  and  C_3
REMARK    3  A    between atoms: C_8  and  C_9
REMARK    4  A    between atoms: N_18  and  C_19
REMARK                            x       y       z     vdW  Elec       q    Type
REMARK                         _______ _______ _______ _____ _____    ______ ____
ROOT
ATOM      1  C   UNL     1       4.917   1.388  20.569  0.00  0.00    +0.000 C 
ATOM      2  O   UNL     1       5.346   0.668  19.684  0.00  0.00    +0.000 OA
ATOM      3  N   UNL     1       4.084   2.472  20.453  0.00  0.00    +0.000 N 
ATOM      4  C   UNL     1       3.666   3.035  19.282  0.00  0.00    +0.000 C 
ATOM      5  N   UNL     1       3.939   2.497  18.129  0.00  0.00    +0.000 NA
ATOM      6  C   UNL     1       3.505   3.486  17.109  0.00  0.00    +0.000 C 
ATOM      7  C   UNL     1       2.649   4.519  17.873  0.00  0.00    +0.000 C 
ATOM      8  N   UNL     1       2.951   4.207  19.266  0.00  0.00    +0.000 N 
ATOM      9  C   UNL     1       3.170   5.309  20.176  0.00  0.00    +0.000 C 
ATOM     10  H   UNL     1       3.840   2.919  21.317  0.00  0.00    +0.000 HD
ENDROOT
BRANCH   6  11
ATOM     11  C   UNL     1       4.698   4.122  16.413  0.00  0.00    +0.000 A 
ATOM     12  C   UNL     1       5.447   5.110  17.065  0.00  0.00    +0.000 A 
ATOM     13  C   UNL     1       6.541   5.702  16.426  0.00  0.00    +0.000 A 
ATOM     14 CL   UNL     1       7.442   6.920  17.243  0.00  0.00    +0.000 Cl
ATOM     15  C   UNL     1       6.914   5.317  15.141  0.00  0.00    +0.000 A 
ATOM     16  C   UNL     1       6.180   4.332  14.491  0.00  0.00    +0.000 A 
ATOM     17 CL   UNL     1       6.629   3.835  12.905  0.00  0.00    +0.000 Cl
ATOM     18  C   UNL     1       5.084   3.736  15.116  0.00  0.00    +0.000 A 
ENDBRANCH   6  11
BRANCH   1  20
ATOM     19  C   UNL     1       6.101   0.096  22.103  0.00  0.00    +0.000 C 
ATOM     20  O   UNL     1       5.226   1.208  21.887  0.00  0.00    +0.000 OA
ENDBRANCH   1  20
TORSDOF 2
ENDMDL
MODEL 8
REMARK VINA RESULT:      -6.2      3.999      6.120
REMARK  Name = 
REMARK  4 active torsions:
REMARK  status: ('A' for Active; 'I' for Inactive)
REMARK    1  A    between atoms: C_1  and  O_2
REMARK    2  A    between atoms: O_2  and  C_3
REMARK    3  A    between atoms: C_8  and  C_9
REMARK    4  A    between atoms: N_18  and  C_19
REMARK                            x       y       z     vdW  Elec       q    Type
REMARK                         _______ _______ _______ _____ _____    ______ ____
ROOT
ATOM      1  C   UNL     1       5.074   1.191  20.981  0.00  0.00    +0.000 C 
ATOM      2  O   UNL     1       5.610   0.835  19.945  0.00  0.00    +0.000 OA
ATOM      3  N   UNL     1       3.913   1.906  21.134  0.00  0.00    +0.000 N 
ATOM      4  C   UNL     1       3.185   2.470  20.127  0.00  0.00    +0.000 C 
ATOM      5  N   UNL     1       3.479   2.270  18.876  0.00  0.00    +0.000 NA
ATOM      6  C   UNL     1       2.608   3.194  18.104  0.00  0.00    +0.000 C 
ATOM      7  C   UNL     1       1.554   3.705  19.109  0.00  0.00    +0.000 C 
ATOM      8  N   UNL     1       2.116   3.291  20.391  0.00  0.00    +0.000 N 
ATOM      9  C   UNL     1       2.057   4.227  21.491  0.00  0.00    +0.000 C 
ATOM     10  H   UNL     1       3.642   2.081  22.083  0.00  0.00    +0.000 HD
ENDROOT
BRANCH   6  11
ATOM     11  C   UNL     1       3.415   4.325  17.484  0.00  0.00    +0.000 A 
ATOM     12  C   UNL     1       3.097   5.658  17.780  0.00  0.00    +0.000 A 
ATOM     13  C   UNL     1       3.832   6.700  17.207  0.00  0.00    +0.000 A 
ATOM     14 CL   UNL     1       3.419   8.330  17.577  0.00  0.00    +0.000 Cl
ATOM     15  C   UNL     1       4.894   6.439  16.346  0.00  0.00    +0.000 A 
ATOM     16  C   UNL     1       5.220   5.120  16.055  0.00  0.00    +0.000 A 
ATOM     17 CL   UNL     1       6.535   4.775  14.999  0.00  0.00    +0.000 Cl
ATOM     18  C   UNL     1       4.492   4.070  16.616  0.00  0.00    +0.000 A 
ENDBRANCH   6  11
BRANCH   1  20
ATOM     19  C   UNL     1       6.399  -0.266  22.225  0.00  0.00    +0.000 C 
ATOM     20  O   UNL     1       5.589   0.914  22.216  0.00  0.00    +0.000 OA
ENDBRANCH   1  20
TORSDOF 2
ENDMDL
MODEL 9
REMARK VINA RESULT:      -6.1      2.649      3.665
REMARK  Name = 
REMARK  4 active torsions:
REMARK  status: ('A' for Active; 'I' for Inactive)
REMARK    1  A    between atoms: C_1  and  O_2
REMARK    2  A    between atoms: O_2  and  C_3
REMARK    3  A    between atoms: C_8  and  C_9
REMARK    4  A    between atoms: N_18  and  C_19
REMARK                            x       y       z     vdW  Elec       q    Type
REMARK                         _______ _______ _______ _____ _____    ______ ____
ROOT
ATOM      1  C   UNL     1       7.745   8.665  17.793  0.00  0.00    +0.000 C 
ATOM      2  O   UNL     1       6.790   9.395  17.588  0.00  0.00    +0.000 OA
ATOM      3  N   UNL     1       7.878   7.335  17.484  0.00  0.00    +0.000 N 
ATOM      4  C   UNL     1       6.895   6.529  16.986  0.00  0.00    +0.000 C 
ATOM      5  N   UNL     1       5.735   7.002  16.638  0.00  0.00    +0.000 NA
ATOM      6  C   UNL     1       4.887   5.817  16.347  0.00  0.00    +0.000 C 
ATOM      7  C   UNL     1       5.859   4.621  16.276  0.00  0.00    +0.000 C 
ATOM      8  N   UNL     1       7.082   5.176  16.846  0.00  0.00    +0.000 N 
ATOM      9  C   UNL     1       7.834   4.356  17.769  0.00  0.00    +0.000 C 
ATOM     10  H   UNL     1       8.760   6.926  17.729  0.00  0.00    +0.000 HD
ENDROOT
BRANCH   6  11
ATOM     11  C   UNL     1       3.815   5.631  17.410  0.00  0.00    +0.000 A 
ATOM     12  C   UNL     1       3.267   4.361  17.640  0.00  0.00    +0.000 A 
ATOM     13  C   UNL     1       2.277   4.187  18.612  0.00  0.00    +0.000 A 
ATOM     14 CL   UNL     1       1.611   2.620  18.871  0.00  0.00    +0.000 Cl
ATOM     15  C   UNL     1       1.824   5.260  19.373  0.00  0.00    +0.000 A 
ATOM     16  C   UNL     1       2.369   6.520  19.157  0.00  0.00    +0.000 A 
ATOM     17 CL   UNL     1       1.830   7.859  20.095  0.00  0.00    +0.000 Cl
ATOM     18  C   UNL     1       3.355   6.709  18.188  0.00  0.00    +0.000 A 
ENDBRANCH   6  11
BRANCH   1  20
ATOM     19  C   UNL     1       9.038  10.518  18.357  0.00  0.00    +0.000 C 
ATOM     20  O   UNL     1       8.891   9.095  18.399  0.00  0.00    +0.000 OA
ENDBRANCH   1  20
TORSDOF 2
ENDMDL
