MODEL 1
REMARK VINA RESULT:      -8.4      0.000      0.000
REMARK  Name = 
REMARK  9 active torsions:
REMARK  status: ('A' for Active; 'I' for Inactive)
REMARK    1  A    between atoms: C_2  and  C_3
REMARK    2  A    between atoms: C_3  and  C_4
REMARK    3  A    between atoms: C_4  and  C_5
REMARK    4  A    between atoms: C_5  and  C_6
REMARK    5  A    between atoms: C_6  and  C_7
REMARK    6  A    between atoms: C_7  and  C_8
REMARK    7  A    between atoms: C_12  and  C_13
REMARK    8  A    between atoms: C_12  and  C_14
REMARK    9  A    between atoms: C_15  and  C_16
REMARK                            x       y       z     vdW  Elec       q    Type
REMARK                         _______ _______ _______ _____ _____    ______ ____
ROOT
ATOM      1  C   UNL     1       5.610   4.886  18.067  0.00  0.00    +0.000 C 
ATOM      2  O   UNL     1       6.542   4.139  18.334  0.00  0.00    +0.000 OA
ATOM      3  N   UNL     1       4.344   4.752  18.588  0.00  0.00    +0.000 N 
ATOM      4  C   UNL     1       3.798   3.745  19.476  0.00  0.00    +0.000 C 
ATOM      5  C   UNL     1       2.470   3.868  18.691  0.00  0.00    +0.000 C 
ATOM      6  C   UNL     1       1.227   4.030  19.563  0.00  0.00    +0.000 C 
ATOM      7  C   UNL     1       2.285   2.712  17.699  0.00  0.00    +0.000 C 
ATOM      8  C   UNL     1       3.046   5.165  18.034  0.00  0.00    +0.000 C 
ENDROOT
BRANCH   8   9
ATOM      9  C   UNL     1       2.504   6.601  18.447  0.00  0.00    +0.000 A 
ATOM     10  C   UNL     1       2.219   7.633  17.536  0.00  0.00    +0.000 A 
ATOM     11  C   UNL     1       1.720   8.864  17.960  0.00  0.00    +0.000 A 
ATOM     12  C   UNL     1       1.514   9.054  19.313  0.00  0.00    +0.000 A 
ATOM     13  N   UNL     1       1.770   8.111  20.238  0.00  0.00    +0.000 NA
ATOM     14  C   UNL     1       2.252   6.928  19.786  0.00  0.00    +0.000 A 
ENDBRANCH   8   9
BRANCH   1  15
ATOM     15  C   UNL     1       5.753   6.129  17.208  0.00  0.00    +0.000 C 
BRANCH  15  16
ATOM     16  C   UNL     1       5.357   5.978  15.747  0.00  0.00    +0.000 C 
BRANCH  16  17
ATOM     17  C   UNL     1       6.296   5.011  15.047  0.00  0.00    +0.000 C 
ATOM     18  N   UNL     1       7.635   4.948  15.543  0.00  0.00    +0.000 NA
ATOM     19  N   UNL     1       7.483   5.546  14.463  0.00  0.00    +0.000 NA
BRANCH  17  20
ATOM     20  C   UNL     1       5.734   3.736  14.444  0.00  0.00    +0.000 C 
BRANCH  20  21
ATOM     21  C   UNL     1       6.145   3.588  12.991  0.00  0.00    +0.000 C 
BRANCH  21  23
ATOM     22  C   UNL     1       3.995   3.206  11.201  0.00  0.00    +0.000 C 
ATOM     23  C   UNL     1       4.988   3.382  12.027  0.00  0.00    +0.000 C 
ENDBRANCH  21  23
ENDBRANCH  20  21
ENDBRANCH  17  20
ENDBRANCH  16  17
ENDBRANCH  15  16
ENDBRANCH   1  15
TORSDOF 7
ENDMDL
MODEL 2
REMARK VINA RESULT:      -8.3      0.829      1.182
REMARK  Name = 
REMARK  9 active torsions:
REMARK  status: ('A' for Active; 'I' for Inactive)
REMARK    1  A    between atoms: C_2  and  C_3
REMARK    2  A    between atoms: C_3  and  C_4
REMARK    3  A    between atoms: C_4  and  C_5
REMARK    4  A    between atoms: C_5  and  C_6
REMARK    5  A    between atoms: C_6  and  C_7
REMARK    6  A    between atoms: C_7  and  C_8
REMARK    7  A    between atoms: C_12  and  C_13
REMARK    8  A    between atoms: C_12  and  C_14
REMARK    9  A    between atoms: C_15  and  C_16
REMARK                            x       y       z     vdW  Elec       q    Type
REMARK                         _______ _______ _______ _____ _____    ______ ____
ROOT
ATOM      1  C   UNL     1       5.251   4.709  18.690  0.00  0.00    +0.000 C 
ATOM      2  O   UNL     1       6.138   3.916  18.972  0.00  0.00    +0.000 OA
ATOM      3  N   UNL     1       3.966   4.629  19.174  0.00  0.00    +0.000 N 
ATOM      4  C   UNL     1       3.348   3.639  20.034  0.00  0.00    +0.000 C 
ATOM      5  C   UNL     1       2.050   3.833  19.215  0.00  0.00    +0.000 C 
ATOM      6  C   UNL     1       0.793   4.044  20.055  0.00  0.00    +0.000 C 
ATOM      7  C   UNL     1       1.839   2.699  18.204  0.00  0.00    +0.000 C 
ATOM      8  C   UNL     1       2.704   5.109  18.591  0.00  0.00    +0.000 C 
ENDROOT
BRANCH   8   9
ATOM      9  C   UNL     1       2.219   6.564  19.007  0.00  0.00    +0.000 A 
ATOM     10  C   UNL     1       1.912   6.950  20.324  0.00  0.00    +0.000 A 
ATOM     11  C   UNL     1       1.515   8.252  20.628  0.00  0.00    +0.000 A 
ATOM     12  C   UNL     1       1.422   9.165  19.596  0.00  0.00    +0.000 A 
ATOM     13  N   UNL     1       1.695   8.860  18.314  0.00  0.00    +0.000 NA
ATOM     14  C   UNL     1       2.080   7.586  18.059  0.00  0.00    +0.000 A 
ENDBRANCH   8   9
BRANCH   1  15
ATOM     15  C   UNL     1       5.476   5.954  17.850  0.00  0.00    +0.000 C 
BRANCH  15  16
ATOM     16  C   UNL     1       5.198   5.811  16.361  0.00  0.00    +0.000 C 
BRANCH  16  17
ATOM     17  C   UNL     1       6.316   5.031  15.692  0.00  0.00    +0.000 C 
ATOM     18  N   UNL     1       7.589   5.053  16.342  0.00  0.00    +0.000 NA
ATOM     19  N   UNL     1       7.490   5.748  15.315  0.00  0.00    +0.000 NA
BRANCH  17  20
ATOM     20  C   UNL     1       5.978   3.779  14.902  0.00  0.00    +0.000 C 
BRANCH  20  21
ATOM     21  C   UNL     1       6.398   3.915  13.450  0.00  0.00    +0.000 C 
BRANCH  21  23
ATOM     22  C   UNL     1       4.405   3.196  11.584  0.00  0.00    +0.000 C 
ATOM     23  C   UNL     1       5.326   3.528  12.446  0.00  0.00    +0.000 C 
ENDBRANCH  21  23
ENDBRANCH  20  21
ENDBRANCH  17  20
ENDBRANCH  16  17
ENDBRANCH  15  16
ENDBRANCH   1  15
TORSDOF 7
ENDMDL
MODEL 3
REMARK VINA RESULT:      -8.0      2.371      3.751
REMARK  Name = 
REMARK  9 active torsions:
REMARK  status: ('A' for Active; 'I' for Inactive)
REMARK    1  A    between atoms: C_2  and  C_3
REMARK    2  A    between atoms: C_3  and  C_4
REMARK    3  A    between atoms: C_4  and  C_5
REMARK    4  A    between atoms: C_5  and  C_6
REMARK    5  A    between atoms: C_6  and  C_7
REMARK    6  A    between atoms: C_7  and  C_8
REMARK    7  A    between atoms: C_12  and  C_13
REMARK    8  A    between atoms: C_12  and  C_14
REMARK    9  A    between atoms: C_15  and  C_16
REMARK                            x       y       z     vdW  Elec       q    Type
REMARK                         _______ _______ _______ _____ _____    ______ ____
ROOT
ATOM      1  C   UNL     1       4.977   3.765  19.365  0.00  0.00    +0.000 C 
ATOM      2  O   UNL     1       5.707   2.873  19.775  0.00  0.00    +0.000 OA
ATOM      3  N   UNL     1       3.640   3.867  19.675  0.00  0.00    +0.000 N 
ATOM      4  C   UNL     1       2.790   2.993  20.459  0.00  0.00    +0.000 C 
ATOM      5  C   UNL     1       1.647   3.328  19.471  0.00  0.00    +0.000 C 
ATOM      6  C   UNL     1       0.330   3.726  20.133  0.00  0.00    +0.000 C 
ATOM      7  C   UNL     1       1.421   2.198  18.458  0.00  0.00    +0.000 C 
ATOM      8  C   UNL     1       2.540   4.488  18.922  0.00  0.00    +0.000 C 
ENDROOT
BRANCH   8   9
ATOM      9  C   UNL     1       2.201   6.006  19.249  0.00  0.00    +0.000 A 
ATOM     10  C   UNL     1       1.805   6.474  20.513  0.00  0.00    +0.000 A 
ATOM     11  C   UNL     1       1.546   7.825  20.743  0.00  0.00    +0.000 A 
ATOM     12  C   UNL     1       1.683   8.705  19.686  0.00  0.00    +0.000 A 
ATOM     13  N   UNL     1       2.053   8.322  18.450  0.00  0.00    +0.000 NA
ATOM     14  C   UNL     1       2.298   7.002  18.269  0.00  0.00    +0.000 A 
ENDBRANCH   8   9
BRANCH   1  15
ATOM     15  C   UNL     1       5.472   4.943  18.546  0.00  0.00    +0.000 C 
BRANCH  15  16
ATOM     16  C   UNL     1       6.442   4.611  17.422  0.00  0.00    +0.000 C 
BRANCH  16  17
ATOM     17  C   UNL     1       6.672   5.832  16.549  0.00  0.00    +0.000 C 
ATOM     18  N   UNL     1       6.202   5.752  15.201  0.00  0.00    +0.000 NA
ATOM     19  N   UNL     1       7.434   5.659  15.355  0.00  0.00    +0.000 NA
BRANCH  17  20
ATOM     20  C   UNL     1       6.676   7.210  17.187  0.00  0.00    +0.000 C 
BRANCH  20  21
ATOM     21  C   UNL     1       7.909   7.413  18.048  0.00  0.00    +0.000 C 
BRANCH  21  23
ATOM     22  C   UNL     1       8.752  10.098  18.270  0.00  0.00    +0.000 C 
ATOM     23  C   UNL     1       8.363   8.858  18.168  0.00  0.00    +0.000 C 
ENDBRANCH  21  23
ENDBRANCH  20  21
ENDBRANCH  17  20
ENDBRANCH  16  17
ENDBRANCH  15  16
ENDBRANCH   1  15
TORSDOF 7
ENDMDL
MODEL 4
REMARK VINA RESULT:      -7.9      2.242      3.638
REMARK  Name = 
REMARK  9 active torsions:
REMARK  status: ('A' for Active; 'I' for Inactive)
REMARK    1  A    between atoms: C_2  and  C_3
REMARK    2  A    between atoms: C_3  and  C_4
REMARK    3  A    between atoms: C_4  and  C_5
REMARK    4  A    between atoms: C_5  and  C_6
REMARK    5  A    between atoms: C_6  and  C_7
REMARK    6  A    between atoms: C_7  and  C_8
REMARK    7  A    between atoms: C_12  and  C_13
REMARK    8  A    between atoms: C_12  and  C_14
REMARK    9  A    between atoms: C_15  and  C_16
REMARK                            x       y       z     vdW  Elec       q    Type
REMARK                         _______ _______ _______ _____ _____    ______ ____
ROOT
ATOM      1  C   UNL     1       4.942   4.662  18.925  0.00  0.00    +0.000 C 
ATOM      2  O   UNL     1       5.824   3.841  19.135  0.00  0.00    +0.000 OA
ATOM      3  N   UNL     1       3.671   4.575  19.444  0.00  0.00    +0.000 N 
ATOM      4  C   UNL     1       3.063   3.548  20.268  0.00  0.00    +0.000 C 
ATOM      5  C   UNL     1       1.744   3.807  19.502  0.00  0.00    +0.000 C 
ATOM      6  C   UNL     1       0.517   3.990  20.391  0.00  0.00    +0.000 C 
ATOM      7  C   UNL     1       1.483   2.734  18.437  0.00  0.00    +0.000 C 
ATOM      8  C   UNL     1       2.401   5.106  18.928  0.00  0.00    +0.000 C 
ENDROOT
BRANCH   8   9
ATOM      9  C   UNL     1       1.953   6.543  19.438  0.00  0.00    +0.000 A 
ATOM     10  C   UNL     1       1.911   7.693  18.631  0.00  0.00    +0.000 A 
ATOM     11  C   UNL     1       1.483   8.922  19.132  0.00  0.00    +0.000 A 
ATOM     12  C   UNL     1       1.102   8.989  20.458  0.00  0.00    +0.000 A 
ATOM     13  N   UNL     1       1.123   7.928  21.287  0.00  0.00    +0.000 NA
ATOM     14  C   UNL     1       1.542   6.752  20.761  0.00  0.00    +0.000 A 
ENDBRANCH   8   9
BRANCH   1  15
ATOM     15  C   UNL     1       5.162   5.948  18.148  0.00  0.00    +0.000 C 
BRANCH  15  16
ATOM     16  C   UNL     1       5.564   5.784  16.690  0.00  0.00    +0.000 C 
BRANCH  16  17
ATOM     17  C   UNL     1       7.076   5.827  16.555  0.00  0.00    +0.000 C 
ATOM     18  N   UNL     1       7.606   5.652  15.239  0.00  0.00    +0.000 NA
ATOM     19  N   UNL     1       7.725   4.681  16.007  0.00  0.00    +0.000 NA
BRANCH  17  20
ATOM     20  C   UNL     1       7.881   6.701  17.500  0.00  0.00    +0.000 C 
BRANCH  20  21
ATOM     21  C   UNL     1       7.496   8.162  17.359  0.00  0.00    +0.000 C 
BRANCH  21  23
ATOM     22  C   UNL     1       9.096   9.944  18.855  0.00  0.00    +0.000 C 
ATOM     23  C   UNL     1       8.357   9.121  18.164  0.00  0.00    +0.000 C 
ENDBRANCH  21  23
ENDBRANCH  20  21
ENDBRANCH  17  20
ENDBRANCH  16  17
ENDBRANCH  15  16
ENDBRANCH   1  15
TORSDOF 7
ENDMDL
MODEL 5
REMARK VINA RESULT:      -7.8      1.341      1.865
REMARK  Name = 
REMARK  9 active torsions:
REMARK  status: ('A' for Active; 'I' for Inactive)
REMARK    1  A    between atoms: C_2  and  C_3
REMARK    2  A    between atoms: C_3  and  C_4
REMARK    3  A    between atoms: C_4  and  C_5
REMARK    4  A    between atoms: C_5  and  C_6
REMARK    5  A    between atoms: C_6  and  C_7
REMARK    6  A    between atoms: C_7  and  C_8
REMARK    7  A    between atoms: C_12  and  C_13
REMARK    8  A    between atoms: C_12  and  C_14
REMARK    9  A    between atoms: C_15  and  C_16
REMARK                            x       y       z     vdW  Elec       q    Type
REMARK                         _______ _______ _______ _____ _____    ______ ____
ROOT
ATOM      1  C   UNL     1       5.263   4.078  19.406  0.00  0.00    +0.000 C 
ATOM      2  O   UNL     1       5.719   3.072  19.930  0.00  0.00    +0.000 OA
ATOM      3  N   UNL     1       3.960   4.201  18.983  0.00  0.00    +0.000 N 
ATOM      4  C   UNL     1       2.877   3.237  18.989  0.00  0.00    +0.000 C 
ATOM      5  C   UNL     1       2.407   3.855  17.650  0.00  0.00    +0.000 C 
ATOM      6  C   UNL     1       0.919   4.188  17.591  0.00  0.00    +0.000 C 
ATOM      7  C   UNL     1       2.815   2.991  16.450  0.00  0.00    +0.000 C 
ATOM      8  C   UNL     1       3.387   5.044  17.922  0.00  0.00    +0.000 C 
ENDROOT
BRANCH   8   9
ATOM      9  C   UNL     1       2.839   6.474  18.347  0.00  0.00    +0.000 A 
ATOM     10  C   UNL     1       2.766   7.582  17.485  0.00  0.00    +0.000 A 
ATOM     11  C   UNL     1       2.249   8.806  17.912  0.00  0.00    +0.000 A 
ATOM     12  C   UNL     1       1.812   8.910  19.219  0.00  0.00    +0.000 A 
ATOM     13  N   UNL     1       1.859   7.890  20.097  0.00  0.00    +0.000 NA
ATOM     14  C   UNL     1       2.365   6.718  19.642  0.00  0.00    +0.000 A 
ENDBRANCH   8   9
BRANCH   1  15
ATOM     15  C   UNL     1       6.045   5.370  19.252  0.00  0.00    +0.000 C 
BRANCH  15  16
ATOM     16  C   UNL     1       7.187   5.340  18.246  0.00  0.00    +0.000 C 
BRANCH  16  17
ATOM     17  C   UNL     1       6.848   6.201  17.041  0.00  0.00    +0.000 C 
ATOM     18  N   UNL     1       7.769   7.247  16.724  0.00  0.00    +0.000 NA
ATOM     19  N   UNL     1       6.700   7.604  17.251  0.00  0.00    +0.000 NA
BRANCH  17  20
ATOM     20  C   UNL     1       6.093   5.584  15.878  0.00  0.00    +0.000 C 
BRANCH  20  21
ATOM     21  C   UNL     1       6.975   4.632  15.092  0.00  0.00    +0.000 C 
BRANCH  21  23
ATOM     22  C   UNL     1       5.745   3.502  12.817  0.00  0.00    +0.000 C 
ATOM     23  C   UNL     1       6.313   4.024  13.868  0.00  0.00    +0.000 C 
ENDBRANCH  21  23
ENDBRANCH  20  21
ENDBRANCH  17  20
ENDBRANCH  16  17
ENDBRANCH  15  16
ENDBRANCH   1  15
TORSDOF 7
ENDMDL
MODEL 6
REMARK VINA RESULT:      -7.8      1.219      1.777
REMARK  Name = 
REMARK  9 active torsions:
REMARK  status: ('A' for Active; 'I' for Inactive)
REMARK    1  A    between atoms: C_2  and  C_3
REMARK    2  A    between atoms: C_3  and  C_4
REMARK    3  A    between atoms: C_4  and  C_5
REMARK    4  A    between atoms: C_5  and  C_6
REMARK    5  A    between atoms: C_6  and  C_7
REMARK    6  A    between atoms: C_7  and  C_8
REMARK    7  A    between atoms: C_12  and  C_13
REMARK    8  A    between atoms: C_12  and  C_14
REMARK    9  A    between atoms: C_15  and  C_16
REMARK                            x       y       z     vdW  Elec       q    Type
REMARK                         _______ _______ _______ _____ _____    ______ ____
ROOT
ATOM      1  C   UNL     1       5.433   4.952  19.064  0.00  0.00    +0.000 C 
ATOM      2  O   UNL     1       6.338   4.168  19.316  0.00  0.00    +0.000 OA
ATOM      3  N   UNL     1       4.110   4.719  19.358  0.00  0.00    +0.000 N 
ATOM      4  C   UNL     1       3.471   3.557  19.945  0.00  0.00    +0.000 C 
ATOM      5  C   UNL     1       2.267   3.830  19.012  0.00  0.00    +0.000 C 
ATOM      6  C   UNL     1       0.908   3.818  19.707  0.00  0.00    +0.000 C 
ATOM      7  C   UNL     1       2.261   2.889  17.800  0.00  0.00    +0.000 C 
ATOM      8  C   UNL     1       2.893   5.231  18.710  0.00  0.00    +0.000 C 
ENDROOT
BRANCH   8   9
ATOM      9  C   UNL     1       2.255   6.558  19.307  0.00  0.00    +0.000 A 
ATOM     10  C   UNL     1       1.783   6.686  20.625  0.00  0.00    +0.000 A 
ATOM     11  C   UNL     1       1.256   7.887  21.098  0.00  0.00    +0.000 A 
ATOM     12  C   UNL     1       1.202   8.962  20.232  0.00  0.00    +0.000 A 
ATOM     13  N   UNL     1       1.631   8.906  18.957  0.00  0.00    +0.000 NA
ATOM     14  C   UNL     1       2.138   7.721  18.537  0.00  0.00    +0.000 A 
ENDBRANCH   8   9
BRANCH   1  15
ATOM     15  C   UNL     1       5.662   6.339  18.491  0.00  0.00    +0.000 C 
BRANCH  15  16
ATOM     16  C   UNL     1       6.724   6.445  17.407  0.00  0.00    +0.000 C 
BRANCH  16  17
ATOM     17  C   UNL     1       6.201   5.870  16.102  0.00  0.00    +0.000 C 
ATOM     18  N   UNL     1       5.426   6.747  15.282  0.00  0.00    +0.000 NA
ATOM     19  N   UNL     1       4.789   5.873  15.897  0.00  0.00    +0.000 NA
BRANCH  17  20
ATOM     20  C   UNL     1       7.010   4.805  15.383  0.00  0.00    +0.000 C 
BRANCH  20  21
ATOM     21  C   UNL     1       6.123   3.669  14.908  0.00  0.00    +0.000 C 
BRANCH  21  23
ATOM     22  C   UNL     1       5.908   3.447  12.102  0.00  0.00    +0.000 C 
ATOM     23  C   UNL     1       6.007   3.549  13.398  0.00  0.00    +0.000 C 
ENDBRANCH  21  23
ENDBRANCH  20  21
ENDBRANCH  17  20
ENDBRANCH  16  17
ENDBRANCH  15  16
ENDBRANCH   1  15
TORSDOF 7
ENDMDL
MODEL 7
REMARK VINA RESULT:      -7.7      1.603      2.099
REMARK  Name = 
REMARK  9 active torsions:
REMARK  status: ('A' for Active; 'I' for Inactive)
REMARK    1  A    between atoms: C_2  and  C_3
REMARK    2  A    between atoms: C_3  and  C_4
REMARK    3  A    between atoms: C_4  and  C_5
REMARK    4  A    between atoms: C_5  and  C_6
REMARK    5  A    between atoms: C_6  and  C_7
REMARK    6  A    between atoms: C_7  and  C_8
REMARK    7  A    between atoms: C_12  and  C_13
REMARK    8  A    between atoms: C_12  and  C_14
REMARK    9  A    between atoms: C_15  and  C_16
REMARK                            x       y       z     vdW  Elec       q    Type
REMARK                         _______ _______ _______ _____ _____    ______ ____
ROOT
ATOM      1  C   UNL     1       4.802   3.261  19.640  0.00  0.00    +0.000 C 
ATOM      2  O   UNL     1       5.422   2.341  20.157  0.00  0.00    +0.000 OA
ATOM      3  N   UNL     1       3.461   3.492  19.842  0.00  0.00    +0.000 N 
ATOM      4  C   UNL     1       2.486   2.745  20.611  0.00  0.00    +0.000 C 
ATOM      5  C   UNL     1       1.447   3.105  19.522  0.00  0.00    +0.000 C 
ATOM      6  C   UNL     1       0.127   3.652  20.058  0.00  0.00    +0.000 C 
ATOM      7  C   UNL     1       1.196   1.933  18.565  0.00  0.00    +0.000 C 
ATOM      8  C   UNL     1       2.474   4.149  18.972  0.00  0.00    +0.000 C 
ENDROOT
BRANCH   8   9
ATOM      9  C   UNL     1       2.245   5.708  19.180  0.00  0.00    +0.000 A 
ATOM     10  C   UNL     1       1.904   6.302  20.408  0.00  0.00    +0.000 A 
ATOM     11  C   UNL     1       1.743   7.682  20.531  0.00  0.00    +0.000 A 
ATOM     12  C   UNL     1       1.920   8.463  19.406  0.00  0.00    +0.000 A 
ATOM     13  N   UNL     1       2.241   7.959  18.200  0.00  0.00    +0.000 NA
ATOM     14  C   UNL     1       2.392   6.614  18.122  0.00  0.00    +0.000 A 
ENDBRANCH   8   9
BRANCH   1  15
ATOM     15  C   UNL     1       5.453   4.337  18.790  0.00  0.00    +0.000 C 
BRANCH  15  16
ATOM     16  C   UNL     1       5.561   4.036  17.303  0.00  0.00    +0.000 C 
BRANCH  16  17
ATOM     17  C   UNL     1       6.878   4.557  16.756  0.00  0.00    +0.000 C 
ATOM     18  N   UNL     1       8.053   4.235  17.505  0.00  0.00    +0.000 NA
ATOM     19  N   UNL     1       7.653   5.410  17.598  0.00  0.00    +0.000 NA
BRANCH  17  20
ATOM     20  C   UNL     1       7.050   4.711  15.256  0.00  0.00    +0.000 C 
BRANCH  20  21
ATOM     21  C   UNL     1       5.749   4.441  14.523  0.00  0.00    +0.000 C 
BRANCH  21  23
ATOM     22  C   UNL     1       6.056   3.137  12.038  0.00  0.00    +0.000 C 
ATOM     23  C   UNL     1       5.914   3.739  13.185  0.00  0.00    +0.000 C 
ENDBRANCH  21  23
ENDBRANCH  20  21
ENDBRANCH  17  20
ENDBRANCH  16  17
ENDBRANCH  15  16
ENDBRANCH   1  15
TORSDOF 7
ENDMDL
MODEL 8
REMARK VINA RESULT:      -7.6      1.363      1.712
REMARK  Name = 
REMARK  9 active torsions:
REMARK  status: ('A' for Active; 'I' for Inactive)
REMARK    1  A    between atoms: C_2  and  C_3
REMARK    2  A    between atoms: C_3  and  C_4
REMARK    3  A    between atoms: C_4  and  C_5
REMARK    4  A    between atoms: C_5  and  C_6
REMARK    5  A    between atoms: C_6  and  C_7
REMARK    6  A    between atoms: C_7  and  C_8
REMARK    7  A    between atoms: C_12  and  C_13
REMARK    8  A    between atoms: C_12  and  C_14
REMARK    9  A    between atoms: C_15  and  C_16
REMARK                            x       y       z     vdW  Elec       q    Type
REMARK                         _______ _______ _______ _____ _____    ______ ____
ROOT
ATOM      1  C   UNL     1       4.759   3.489  18.976  0.00  0.00    +0.000 C 
ATOM      2  O   UNL     1       5.478   2.604  19.419  0.00  0.00    +0.000 OA
ATOM      3  N   UNL     1       3.518   3.797  19.482  0.00  0.00    +0.000 N 
ATOM      4  C   UNL     1       2.760   3.175  20.550  0.00  0.00    +0.000 C 
ATOM      5  C   UNL     1       1.484   3.463  19.724  0.00  0.00    +0.000 C 
ATOM      6  C   UNL     1       0.351   4.118  20.511  0.00  0.00    +0.000 C 
ATOM      7  C   UNL     1       0.980   2.209  18.997  0.00  0.00    +0.000 C 
ATOM      8  C   UNL     1       2.351   4.400  18.821  0.00  0.00    +0.000 C 
ENDROOT
BRANCH   8   9
ATOM      9  C   UNL     1       2.205   5.980  18.905  0.00  0.00    +0.000 A 
ATOM     10  C   UNL     1       2.264   6.841  17.795  0.00  0.00    +0.000 A 
ATOM     11  C   UNL     1       2.102   8.220  17.931  0.00  0.00    +0.000 A 
ATOM     12  C   UNL     1       1.886   8.730  19.197  0.00  0.00    +0.000 A 
ATOM     13  N   UNL     1       1.824   7.963  20.302  0.00  0.00    +0.000 NA
ATOM     14  C   UNL     1       1.983   6.628  20.126  0.00  0.00    +0.000 A 
ENDBRANCH   8   9
BRANCH   1  15
ATOM     15  C   UNL     1       5.187   4.443  17.876  0.00  0.00    +0.000 C 
BRANCH  15  16
ATOM     16  C   UNL     1       6.660   4.825  17.862  0.00  0.00    +0.000 C 
BRANCH  16  17
ATOM     17  C   UNL     1       6.986   5.613  16.605  0.00  0.00    +0.000 C 
ATOM     18  N   UNL     1       7.734   6.818  16.782  0.00  0.00    +0.000 NA
ATOM     19  N   UNL     1       6.524   6.960  16.530  0.00  0.00    +0.000 NA
BRANCH  17  20
ATOM     20  C   UNL     1       7.193   4.871  15.297  0.00  0.00    +0.000 C 
BRANCH  20  21
ATOM     21  C   UNL     1       5.900   4.779  14.507  0.00  0.00    +0.000 C 
BRANCH  21  23
ATOM     22  C   UNL     1       6.033   3.109  12.235  0.00  0.00    +0.000 C 
ATOM     23  C   UNL     1       5.972   3.881  13.284  0.00  0.00    +0.000 C 
ENDBRANCH  21  23
ENDBRANCH  20  21
ENDBRANCH  17  20
ENDBRANCH  16  17
ENDBRANCH  15  16
ENDBRANCH   1  15
TORSDOF 7
ENDMDL
MODEL 9
REMARK VINA RESULT:      -7.6      2.654      4.231
REMARK  Name = 
REMARK  9 active torsions:
REMARK  status: ('A' for Active; 'I' for Inactive)
REMARK    1  A    between atoms: C_2  and  C_3
REMARK    2  A    between atoms: C_3  and  C_4
REMARK    3  A    between atoms: C_4  and  C_5
REMARK    4  A    between atoms: C_5  and  C_6
REMARK    5  A    between atoms: C_6  and  C_7
REMARK    6  A    between atoms: C_7  and  C_8
REMARK    7  A    between atoms: C_12  and  C_13
REMARK    8  A    between atoms: C_12  and  C_14
REMARK    9  A    between atoms: C_15  and  C_16
REMARK                            x       y       z     vdW  Elec       q    Type
REMARK                         _______ _______ _______ _____ _____    ______ ____
ROOT
ATOM      1  C   UNL     1       6.834   4.881  14.985  0.00  0.00    +0.000 C 
ATOM      2  O   UNL     1       7.565   5.595  14.313  0.00  0.00    +0.000 OA
ATOM      3  N   UNL     1       6.453   5.167  16.275  0.00  0.00    +0.000 N 
ATOM      4  C   UNL     1       6.825   6.271  17.139  0.00  0.00    +0.000 C 
ATOM      5  C   UNL     1       6.782   5.273  18.321  0.00  0.00    +0.000 C 
ATOM      6  C   UNL     1       5.994   5.758  19.535  0.00  0.00    +0.000 C 
ATOM      7  C   UNL     1       8.189   4.823  18.737  0.00  0.00    +0.000 C 
ATOM      8  C   UNL     1       6.062   4.264  17.368  0.00  0.00    +0.000 C 
ENDROOT
BRANCH   8   9
ATOM      9  C   UNL     1       4.513   3.949  17.530  0.00  0.00    +0.000 A 
ATOM     10  C   UNL     1       3.498   4.920  17.485  0.00  0.00    +0.000 A 
ATOM     11  C   UNL     1       2.152   4.576  17.609  0.00  0.00    +0.000 A 
ATOM     12  C   UNL     1       1.833   3.243  17.786  0.00  0.00    +0.000 A 
ATOM     13  N   UNL     1       2.755   2.264  17.843  0.00  0.00    +0.000 NA
ATOM     14  C   UNL     1       4.051   2.640  17.717  0.00  0.00    +0.000 A 
ENDBRANCH   8   9
BRANCH   1  15
ATOM     15  C   UNL     1       6.159   3.632  14.447  0.00  0.00    +0.000 C 
BRANCH  15  16
ATOM     16  C   UNL     1       5.155   3.850  13.324  0.00  0.00    +0.000 C 
BRANCH  16  17
ATOM     17  C   UNL     1       5.695   3.287  12.021  0.00  0.00    +0.000 C 
ATOM     18  N   UNL     1       7.023   2.760  12.054  0.00  0.00    +0.000 NA
ATOM     19  N   UNL     1       6.889   3.864  11.495  0.00  0.00    +0.000 NA
BRANCH  17  20
ATOM     20  C   UNL     1       4.734   2.648  11.034  0.00  0.00    +0.000 C 
BRANCH  20  21
ATOM     21  C   UNL     1       3.370   3.309  11.089  0.00  0.00    +0.000 C 
BRANCH  21  23
ATOM     22  C   UNL     1       2.693   4.787   8.780  0.00  0.00    +0.000 C 
ATOM     23  C   UNL     1       3.005   4.104   9.846  0.00  0.00    +0.000 C 
ENDBRANCH  21  23
ENDBRANCH  20  21
ENDBRANCH  17  20
ENDBRANCH  16  17
ENDBRANCH  15  16
ENDBRANCH   1  15
TORSDOF 7
ENDMDL
