MODEL 1
REMARK VINA RESULT:      -8.6      0.000      0.000
REMARK  Name = 
REMARK  5 active torsions:
REMARK  status: ('A' for Active; 'I' for Inactive)
REMARK    1  A    between atoms: C_2  and  O_3
REMARK    2  A    between atoms: C_2  and  C_4
REMARK    3  A    between atoms: N_6  and  C_7
REMARK    4  A    between atoms: C_7  and  C_8
REMARK    5  A    between atoms: C_12  and  C_13
REMARK                            x       y       z     vdW  Elec       q    Type
REMARK                         _______ _______ _______ _____ _____    ______ ____
ROOT
ATOM      1  C   UNL     1       5.748   5.433  16.780  0.00  0.00    +0.000 A 
ATOM      2  C   UNL     1       5.044   6.619  16.817  0.00  0.00    +0.000 A 
ATOM      3  C   UNL     1       4.078   6.662  17.879  0.00  0.00    +0.000 A 
ATOM      4  C   UNL     1       3.172   7.683  18.266  0.00  0.00    +0.000 A 
ATOM      5  C   UNL     1       2.268   7.513  19.334  0.00  0.00    +0.000 A 
ATOM      6  C   UNL     1       2.294   6.288  20.013  0.00  0.00    +0.000 A 
ATOM      7  C   UNL     1       3.198   5.274  19.684  0.00  0.00    +0.000 A 
ATOM      8  C   UNL     1       4.079   5.479  18.613  0.00  0.00    +0.000 A 
ATOM      9  S   UNL     1       5.254   4.374  18.029  0.00  0.00    +0.000 S 
ENDROOT
BRANCH   5  10
ATOM     10  C   UNL     1       1.335   8.592  19.734  0.00  0.00    +0.000 A 
ATOM     11  C   UNL     1       0.852   9.528  18.805  0.00  0.00    +0.000 A 
ATOM     12  C   UNL     1      -0.005  10.562  19.190  0.00  0.00    +0.000 A 
ATOM     13  C   UNL     1      -0.421  10.688  20.518  0.00  0.00    +0.000 A 
ATOM     14  C   UNL     1      -1.275  11.724  20.921  0.00  0.00    +0.000 A 
ATOM     15  C   UNL     1      -1.686  11.830  22.250  0.00  0.00    +0.000 A 
ATOM     16  C   UNL     1      -1.246  10.904  23.191  0.00  0.00    +0.000 A 
ATOM     17  C   UNL     1      -0.390   9.871  22.805  0.00  0.00    +0.000 A 
ATOM     18  C   UNL     1       0.033   9.753  21.472  0.00  0.00    +0.000 A 
ATOM     19  C   UNL     1       0.905   8.728  21.068  0.00  0.00    +0.000 A 
ENDBRANCH   5  10
BRANCH   1  20
ATOM     20  C   UNL     1       6.842   5.004  15.843  0.00  0.00    +0.000 C 
BRANCH  20  23
ATOM     21  C   UNL     1       6.150   3.522  13.433  0.00  0.00    +0.000 C 
ATOM     22  C   UNL     1       7.307   4.535  13.477  0.00  0.00    +0.000 C 
ATOM     23  N   UNL     1       6.546   5.361  14.442  0.00  0.00    +0.000 NA
ATOM     24  C   UNL     1       5.301   4.686  13.990  0.00  0.00    +0.000 C 
BRANCH  21  26
ATOM     25  O   UNL     1       4.770   3.221  11.417  0.00  0.00    +0.000 OA
ATOM     26  C   UNL     1       5.764   2.928  12.070  0.00  0.00    +0.000 C 
BRANCH  26  27
ATOM     27  O   UNL     1       6.631   1.980  11.614  0.00  0.00    +0.000 OA
ATOM     28  H   UNL     1       6.223   1.101  11.497  0.00  0.00    +0.000 HD
ENDBRANCH  26  27
ENDBRANCH  21  26
ENDBRANCH  20  23
ENDBRANCH   1  20
TORSDOF 5
ENDMDL
MODEL 2
REMARK VINA RESULT:      -8.4      1.004      1.218
REMARK  Name = 
REMARK  5 active torsions:
REMARK  status: ('A' for Active; 'I' for Inactive)
REMARK    1  A    between atoms: C_2  and  O_3
REMARK    2  A    between atoms: C_2  and  C_4
REMARK    3  A    between atoms: N_6  and  C_7
REMARK    4  A    between atoms: C_7  and  C_8
REMARK    5  A    between atoms: C_12  and  C_13
REMARK                            x       y       z     vdW  Elec       q    Type
REMARK                         _______ _______ _______ _____ _____    ______ ____
ROOT
ATOM      1  C   UNL     1       4.679   5.168  17.623  0.00  0.00    +0.000 A 
ATOM      2  C   UNL     1       4.108   6.419  17.509  0.00  0.00    +0.000 A 
ATOM      3  C   UNL     1       3.193   6.713  18.577  0.00  0.00    +0.000 A 
ATOM      4  C   UNL     1       2.417   7.872  18.837  0.00  0.00    +0.000 A 
ATOM      5  C   UNL     1       1.541   7.951  19.939  0.00  0.00    +0.000 A 
ATOM      6  C   UNL     1       1.460   6.834  20.781  0.00  0.00    +0.000 A 
ATOM      7  C   UNL     1       2.237   5.691  20.577  0.00  0.00    +0.000 A 
ATOM      8  C   UNL     1       3.095   5.648  19.468  0.00  0.00    +0.000 A 
ATOM      9  S   UNL     1       4.122   4.350  19.018  0.00  0.00    +0.000 S 
ENDROOT
BRANCH   5  10
ATOM     10  C   UNL     1       0.744   9.171  20.205  0.00  0.00    +0.000 A 
ATOM     11  C   UNL     1       0.532  10.141  19.212  0.00  0.00    +0.000 A 
ATOM     12  C   UNL     1      -0.195  11.305  19.474  0.00  0.00    +0.000 A 
ATOM     13  C   UNL     1      -0.749  11.534  20.737  0.00  0.00    +0.000 A 
ATOM     14  C   UNL     1      -1.475  12.699  21.017  0.00  0.00    +0.000 A 
ATOM     15  C   UNL     1      -2.025  12.907  22.281  0.00  0.00    +0.000 A 
ATOM     16  C   UNL     1      -1.856  11.953  23.281  0.00  0.00    +0.000 A 
ATOM     17  C   UNL     1      -1.130  10.790  23.018  0.00  0.00    +0.000 A 
ATOM     18  C   UNL     1      -0.568  10.569  21.751  0.00  0.00    +0.000 A 
ATOM     19  C   UNL     1       0.178   9.412  21.472  0.00  0.00    +0.000 A 
ENDBRANCH   5  10
BRANCH   1  20
ATOM     20  C   UNL     1       5.685   4.496  16.731  0.00  0.00    +0.000 C 
BRANCH  20  23
ATOM     21  C   UNL     1       6.293   3.742  13.984  0.00  0.00    +0.000 C 
ATOM     22  C   UNL     1       7.104   4.802  14.749  0.00  0.00    +0.000 C 
ATOM     23  N   UNL     1       5.878   5.226  15.462  0.00  0.00    +0.000 NA
ATOM     24  C   UNL     1       5.072   4.601  14.381  0.00  0.00    +0.000 C 
BRANCH  21  26
ATOM     25  O   UNL     1       7.219   4.324  11.779  0.00  0.00    +0.000 OA
ATOM     26  C   UNL     1       6.591   3.549  12.489  0.00  0.00    +0.000 C 
BRANCH  26  27
ATOM     27  O   UNL     1       6.060   2.410  11.962  0.00  0.00    +0.000 OA
ATOM     28  H   UNL     1       5.343   2.026  12.502  0.00  0.00    +0.000 HD
ENDBRANCH  26  27
ENDBRANCH  21  26
ENDBRANCH  20  23
ENDBRANCH   1  20
TORSDOF 5
ENDMDL
MODEL 3
REMARK VINA RESULT:      -8.3      1.126      1.907
REMARK  Name = 
REMARK  5 active torsions:
REMARK  status: ('A' for Active; 'I' for Inactive)
REMARK    1  A    between atoms: C_2  and  O_3
REMARK    2  A    between atoms: C_2  and  C_4
REMARK    3  A    between atoms: N_6  and  C_7
REMARK    4  A    between atoms: C_7  and  C_8
REMARK    5  A    between atoms: C_12  and  C_13
REMARK                            x       y       z     vdW  Elec       q    Type
REMARK                         _______ _______ _______ _____ _____    ______ ____
ROOT
ATOM      1  C   UNL     1       4.787   4.906  17.736  0.00  0.00    +0.000 A 
ATOM      2  C   UNL     1       4.291   6.190  17.825  0.00  0.00    +0.000 A 
ATOM      3  C   UNL     1       3.328   6.344  18.879  0.00  0.00    +0.000 A 
ATOM      4  C   UNL     1       2.600   7.484  19.308  0.00  0.00    +0.000 A 
ATOM      5  C   UNL     1       1.661   7.418  20.359  0.00  0.00    +0.000 A 
ATOM      6  C   UNL     1       1.469   6.175  20.976  0.00  0.00    +0.000 A 
ATOM      7  C   UNL     1       2.196   5.040  20.605  0.00  0.00    +0.000 A 
ATOM      8  C   UNL     1       3.118   5.144  19.554  0.00  0.00    +0.000 A 
ATOM      9  S   UNL     1       4.101   3.887  18.926  0.00  0.00    +0.000 S 
ENDROOT
BRANCH   5  10
ATOM     10  C   UNL     1       0.915   8.617  20.803  0.00  0.00    +0.000 A 
ATOM     11  C   UNL     1       0.607   8.832  22.157  0.00  0.00    +0.000 A 
ATOM     12  C   UNL     1      -0.123   9.948  22.570  0.00  0.00    +0.000 A 
ATOM     13  C   UNL     1      -0.560  10.900  21.644  0.00  0.00    +0.000 A 
ATOM     14  C   UNL     1      -1.299  12.022  22.043  0.00  0.00    +0.000 A 
ATOM     15  C   UNL     1      -1.721  12.965  21.105  0.00  0.00    +0.000 A 
ATOM     16  C   UNL     1      -1.410  12.796  19.758  0.00  0.00    +0.000 A 
ATOM     17  C   UNL     1      -0.680  11.680  19.347  0.00  0.00    +0.000 A 
ATOM     18  C   UNL     1      -0.251  10.722  20.279  0.00  0.00    +0.000 A 
ATOM     19  C   UNL     1       0.472   9.585  19.881  0.00  0.00    +0.000 A 
ENDBRANCH   5  10
BRANCH   1  20
ATOM     20  C   UNL     1       5.810   4.344  16.789  0.00  0.00    +0.000 C 
BRANCH  20  23
ATOM     21  C   UNL     1       6.373   3.736  13.996  0.00  0.00    +0.000 C 
ATOM     22  C   UNL     1       7.135   4.822  14.776  0.00  0.00    +0.000 C 
ATOM     23  N   UNL     1       5.907   5.131  15.544  0.00  0.00    +0.000 NA
ATOM     24  C   UNL     1       5.110   4.490  14.465  0.00  0.00    +0.000 C 
BRANCH  21  26
ATOM     25  O   UNL     1       7.224   4.440  11.796  0.00  0.00    +0.000 OA
ATOM     26  C   UNL     1       6.632   3.620  12.486  0.00  0.00    +0.000 C 
BRANCH  26  27
ATOM     27  O   UNL     1       6.109   2.495  11.921  0.00  0.00    +0.000 OA
ATOM     28  H   UNL     1       5.900   2.595  10.973  0.00  0.00    +0.000 HD
ENDBRANCH  26  27
ENDBRANCH  21  26
ENDBRANCH  20  23
ENDBRANCH   1  20
TORSDOF 5
ENDMDL
MODEL 4
REMARK VINA RESULT:      -8.1      0.684      1.062
REMARK  Name = 
REMARK  5 active torsions:
REMARK  status: ('A' for Active; 'I' for Inactive)
REMARK    1  A    between atoms: C_2  and  O_3
REMARK    2  A    between atoms: C_2  and  C_4
REMARK    3  A    between atoms: N_6  and  C_7
REMARK    4  A    between atoms: C_7  and  C_8
REMARK    5  A    between atoms: C_12  and  C_13
REMARK                            x       y       z     vdW  Elec       q    Type
REMARK                         _______ _______ _______ _____ _____    ______ ____
ROOT
ATOM      1  C   UNL     1       5.735   5.702  16.131  0.00  0.00    +0.000 A 
ATOM      2  C   UNL     1       4.963   6.841  16.235  0.00  0.00    +0.000 A 
ATOM      3  C   UNL     1       4.118   6.838  17.397  0.00  0.00    +0.000 A 
ATOM      4  C   UNL     1       3.194   7.804  17.872  0.00  0.00    +0.000 A 
ATOM      5  C   UNL     1       2.425   7.594  19.035  0.00  0.00    +0.000 A 
ATOM      6  C   UNL     1       2.605   6.383  19.717  0.00  0.00    +0.000 A 
ATOM      7  C   UNL     1       3.533   5.425  19.299  0.00  0.00    +0.000 A 
ATOM      8  C   UNL     1       4.277   5.669  18.136  0.00  0.00    +0.000 A 
ATOM      9  S   UNL     1       5.451   4.633  17.436  0.00  0.00    +0.000 S 
ENDROOT
BRANCH   5  10
ATOM     10  C   UNL     1       1.472   8.615  19.525  0.00  0.00    +0.000 A 
ATOM     11  C   UNL     1       0.937   9.593  18.670  0.00  0.00    +0.000 A 
ATOM     12  C   UNL     1       0.062  10.574  19.141  0.00  0.00    +0.000 A 
ATOM     13  C   UNL     1      -0.322  10.604  20.485  0.00  0.00    +0.000 A 
ATOM     14  C   UNL     1      -1.195  11.586  20.974  0.00  0.00    +0.000 A 
ATOM     15  C   UNL     1      -1.573  11.595  22.316  0.00  0.00    +0.000 A 
ATOM     16  C   UNL     1      -1.081  10.625  23.186  0.00  0.00    +0.000 A 
ATOM     17  C   UNL     1      -0.207   9.645  22.714  0.00  0.00    +0.000 A 
ATOM     18  C   UNL     1       0.184   9.625  21.366  0.00  0.00    +0.000 A 
ATOM     19  C   UNL     1       1.074   8.655  20.875  0.00  0.00    +0.000 A 
ENDBRANCH   5  10
BRANCH   1  20
ATOM     20  C   UNL     1       6.746   5.331  15.084  0.00  0.00    +0.000 C 
BRANCH  20  23
ATOM     21  C   UNL     1       5.512   3.973  12.822  0.00  0.00    +0.000 C 
ATOM     22  C   UNL     1       5.218   3.584  14.280  0.00  0.00    +0.000 C 
ATOM     23  N   UNL     1       6.609   3.926  14.653  0.00  0.00    +0.000 NA
ATOM     24  C   UNL     1       6.992   3.786  13.223  0.00  0.00    +0.000 C 
BRANCH  21  26
ATOM     25  O   UNL     1       5.351   1.966  11.406  0.00  0.00    +0.000 OA
ATOM     26  C   UNL     1       4.942   3.080  11.709  0.00  0.00    +0.000 C 
BRANCH  26  27
ATOM     27  O   UNL     1       3.911   3.645  11.020  0.00  0.00    +0.000 OA
ATOM     28  H   UNL     1       4.179   4.403  10.466  0.00  0.00    +0.000 HD
ENDBRANCH  26  27
ENDBRANCH  21  26
ENDBRANCH  20  23
ENDBRANCH   1  20
TORSDOF 5
ENDMDL
MODEL 5
REMARK VINA RESULT:      -8.1      6.790     10.872
REMARK  Name = 
REMARK  5 active torsions:
REMARK  status: ('A' for Active; 'I' for Inactive)
REMARK    1  A    between atoms: C_2  and  O_3
REMARK    2  A    between atoms: C_2  and  C_4
REMARK    3  A    between atoms: N_6  and  C_7
REMARK    4  A    between atoms: C_7  and  C_8
REMARK    5  A    between atoms: C_12  and  C_13
REMARK                            x       y       z     vdW  Elec       q    Type
REMARK                         _______ _______ _______ _____ _____    ______ ____
ROOT
ATOM      1  C   UNL     1      -0.255  12.377  21.359  0.00  0.00    +0.000 A 
ATOM      2  C   UNL     1       0.098  11.088  21.703  0.00  0.00    +0.000 A 
ATOM      3  C   UNL     1       0.696  10.364  20.617  0.00  0.00    +0.000 A 
ATOM      4  C   UNL     1       1.200   9.040  20.553  0.00  0.00    +0.000 A 
ATOM      5  C   UNL     1       1.725   8.497  19.362  0.00  0.00    +0.000 A 
ATOM      6  C   UNL     1       1.734   9.319  18.228  0.00  0.00    +0.000 A 
ATOM      7  C   UNL     1       1.280  10.640  18.263  0.00  0.00    +0.000 A 
ATOM      8  C   UNL     1       0.762  11.144  19.464  0.00  0.00    +0.000 A 
ATOM      9  S   UNL     1       0.140  12.719  19.730  0.00  0.00    +0.000 S 
ENDROOT
BRANCH   5  10
ATOM     10  C   UNL     1       2.258   7.116  19.313  0.00  0.00    +0.000 A 
ATOM     11  C   UNL     1       3.062   6.676  18.249  0.00  0.00    +0.000 A 
ATOM     12  C   UNL     1       3.538   5.364  18.188  0.00  0.00    +0.000 A 
ATOM     13  C   UNL     1       3.239   4.448  19.201  0.00  0.00    +0.000 A 
ATOM     14  C   UNL     1       3.705   3.127  19.152  0.00  0.00    +0.000 A 
ATOM     15  C   UNL     1       3.401   2.228  20.174  0.00  0.00    +0.000 A 
ATOM     16  C   UNL     1       2.628   2.639  21.257  0.00  0.00    +0.000 A 
ATOM     17  C   UNL     1       2.153   3.950  21.316  0.00  0.00    +0.000 A 
ATOM     18  C   UNL     1       2.448   4.864  20.292  0.00  0.00    +0.000 A 
ATOM     19  C   UNL     1       1.967   6.184  20.327  0.00  0.00    +0.000 A 
ENDBRANCH   5  10
BRANCH   1  20
ATOM     20  C   UNL     1      -0.885  13.449  22.203  0.00  0.00    +0.000 C 
BRANCH  20  23
ATOM     21  C   UNL     1      -3.241  12.764  23.774  0.00  0.00    +0.000 C 
ATOM     22  C   UNL     1      -3.036  12.270  22.332  0.00  0.00    +0.000 C 
ATOM     23  N   UNL     1      -2.344  13.534  21.996  0.00  0.00    +0.000 NA
ATOM     24  C   UNL     1      -2.996  14.166  23.173  0.00  0.00    +0.000 C 
BRANCH  21  26
ATOM     25  O   UNL     1      -5.658  12.312  23.864  0.00  0.00    +0.000 OA
ATOM     26  C   UNL     1      -4.595  12.488  24.445  0.00  0.00    +0.000 C 
BRANCH  26  27
ATOM     27  O   UNL     1      -4.545  12.475  25.807  0.00  0.00    +0.000 OA
ATOM     28  H   UNL     1      -4.707  11.595  26.196  0.00  0.00    +0.000 HD
ENDBRANCH  26  27
ENDBRANCH  21  26
ENDBRANCH  20  23
ENDBRANCH   1  20
TORSDOF 5
ENDMDL
MODEL 6
REMARK VINA RESULT:      -8.1      6.758     11.207
REMARK  Name = 
REMARK  5 active torsions:
REMARK  status: ('A' for Active; 'I' for Inactive)
REMARK    1  A    between atoms: C_2  and  O_3
REMARK    2  A    between atoms: C_2  and  C_4
REMARK    3  A    between atoms: N_6  and  C_7
REMARK    4  A    between atoms: C_7  and  C_8
REMARK    5  A    between atoms: C_12  and  C_13
REMARK                            x       y       z     vdW  Elec       q    Type
REMARK                         _______ _______ _______ _____ _____    ______ ____
ROOT
ATOM      1  C   UNL     1      -0.296  11.498  21.534  0.00  0.00    +0.000 A 
ATOM      2  C   UNL     1       0.094  10.175  21.548  0.00  0.00    +0.000 A 
ATOM      3  C   UNL     1       0.790   9.786  20.353  0.00  0.00    +0.000 A 
ATOM      4  C   UNL     1       1.357   8.542  19.975  0.00  0.00    +0.000 A 
ATOM      5  C   UNL     1       1.978   8.354  18.724  0.00  0.00    +0.000 A 
ATOM      6  C   UNL     1       2.019   9.450  17.852  0.00  0.00    +0.000 A 
ATOM      7  C   UNL     1       1.505  10.700  18.205  0.00  0.00    +0.000 A 
ATOM      8  C   UNL     1       0.891  10.848  19.457  0.00  0.00    +0.000 A 
ATOM      9  S   UNL     1       0.183  12.276  20.088  0.00  0.00    +0.000 S 
ENDROOT
BRANCH   5  10
ATOM     10  C   UNL     1       2.575   7.052  18.346  0.00  0.00    +0.000 A 
ATOM     11  C   UNL     1       3.805   6.975  17.672  0.00  0.00    +0.000 A 
ATOM     12  C   UNL     1       4.352   5.748  17.291  0.00  0.00    +0.000 A 
ATOM     13  C   UNL     1       3.694   4.550  17.583  0.00  0.00    +0.000 A 
ATOM     14  C   UNL     1       4.227   3.311  17.201  0.00  0.00    +0.000 A 
ATOM     15  C   UNL     1       3.559   2.125  17.508  0.00  0.00    +0.000 A 
ATOM     16  C   UNL     1       2.350   2.165  18.198  0.00  0.00    +0.000 A 
ATOM     17  C   UNL     1       1.805   3.392  18.579  0.00  0.00    +0.000 A 
ATOM     18  C   UNL     1       2.465   4.592  18.275  0.00  0.00    +0.000 A 
ATOM     19  C   UNL     1       1.925   5.838  18.638  0.00  0.00    +0.000 A 
ENDBRANCH   5  10
BRANCH   1  20
ATOM     20  C   UNL     1      -1.024  12.286  22.586  0.00  0.00    +0.000 C 
BRANCH  20  23
ATOM     21  C   UNL     1      -3.229  13.889  23.614  0.00  0.00    +0.000 C 
ATOM     22  C   UNL     1      -3.285  12.353  23.546  0.00  0.00    +0.000 C 
ATOM     23  N   UNL     1      -2.471  12.379  22.309  0.00  0.00    +0.000 NA
ATOM     24  C   UNL     1      -2.869  13.798  22.115  0.00  0.00    +0.000 C 
BRANCH  21  26
ATOM     25  O   UNL     1      -5.625  14.448  23.542  0.00  0.00    +0.000 OA
ATOM     26  C   UNL     1      -4.510  14.640  24.010  0.00  0.00    +0.000 C 
BRANCH  26  27
ATOM     27  O   UNL     1      -4.316  15.608  24.950  0.00  0.00    +0.000 OA
ATOM     28  H   UNL     1      -4.161  16.494  24.572  0.00  0.00    +0.000 HD
ENDBRANCH  26  27
ENDBRANCH  21  26
ENDBRANCH  20  23
ENDBRANCH   1  20
TORSDOF 5
ENDMDL
MODEL 7
REMARK VINA RESULT:      -8.0      1.581      2.323
REMARK  Name = 
REMARK  5 active torsions:
REMARK  status: ('A' for Active; 'I' for Inactive)
REMARK    1  A    between atoms: C_2  and  O_3
REMARK    2  A    between atoms: C_2  and  C_4
REMARK    3  A    between atoms: N_6  and  C_7
REMARK    4  A    between atoms: C_7  and  C_8
REMARK    5  A    between atoms: C_12  and  C_13
REMARK                            x       y       z     vdW  Elec       q    Type
REMARK                         _______ _______ _______ _____ _____    ______ ____
ROOT
ATOM      1  C   UNL     1       4.510   4.490  17.441  0.00  0.00    +0.000 A 
ATOM      2  C   UNL     1       4.060   5.793  17.506  0.00  0.00    +0.000 A 
ATOM      3  C   UNL     1       3.228   6.039  18.651  0.00  0.00    +0.000 A 
ATOM      4  C   UNL     1       2.582   7.224  19.088  0.00  0.00    +0.000 A 
ATOM      5  C   UNL     1       1.769   7.250  20.240  0.00  0.00    +0.000 A 
ATOM      6  C   UNL     1       1.618   6.052  20.950  0.00  0.00    +0.000 A 
ATOM      7  C   UNL     1       2.270   4.875  20.570  0.00  0.00    +0.000 A 
ATOM      8  C   UNL     1       3.067   4.887  19.417  0.00  0.00    +0.000 A 
ATOM      9  S   UNL     1       3.940   3.565  18.762  0.00  0.00    +0.000 S 
ENDROOT
BRANCH   5  10
ATOM     10  C   UNL     1       1.108   8.496  20.690  0.00  0.00    +0.000 A 
ATOM     11  C   UNL     1       0.802   8.718  22.043  0.00  0.00    +0.000 A 
ATOM     12  C   UNL     1       0.151   9.881  22.462  0.00  0.00    +0.000 A 
ATOM     13  C   UNL     1      -0.203  10.873  21.542  0.00  0.00    +0.000 A 
ATOM     14  C   UNL     1      -0.861  12.042  21.947  0.00  0.00    +0.000 A 
ATOM     15  C   UNL     1      -1.201  13.024  21.016  0.00  0.00    +0.000 A 
ATOM     16  C   UNL     1      -0.888  12.847  19.671  0.00  0.00    +0.000 A 
ATOM     17  C   UNL     1      -0.238  11.685  19.254  0.00  0.00    +0.000 A 
ATOM     18  C   UNL     1       0.107  10.688  20.179  0.00  0.00    +0.000 A 
ATOM     19  C   UNL     1       0.749   9.505  19.776  0.00  0.00    +0.000 A 
ENDBRANCH   5  10
BRANCH   1  20
ATOM     20  C   UNL     1       5.403   3.842  16.421  0.00  0.00    +0.000 C 
BRANCH  20  23
ATOM     21  C   UNL     1       7.134   4.734  14.254  0.00  0.00    +0.000 C 
ATOM     22  C   UNL     1       5.996   5.604  14.815  0.00  0.00    +0.000 C 
ATOM     23  N   UNL     1       5.190   4.388  15.067  0.00  0.00    +0.000 NA
ATOM     24  C   UNL     1       6.034   3.664  14.080  0.00  0.00    +0.000 C 
BRANCH  21  26
ATOM     25  O   UNL     1       7.582   4.949  11.843  0.00  0.00    +0.000 OA
ATOM     26  C   UNL     1       7.869   5.232  13.000  0.00  0.00    +0.000 C 
BRANCH  26  27
ATOM     27  O   UNL     1       8.939   6.031  13.267  0.00  0.00    +0.000 OA
ATOM     28  H   UNL     1       9.217   6.013  14.203  0.00  0.00    +0.000 HD
ENDBRANCH  26  27
ENDBRANCH  21  26
ENDBRANCH  20  23
ENDBRANCH   1  20
TORSDOF 5
ENDMDL
MODEL 8
REMARK VINA RESULT:      -8.0      1.482      1.894
REMARK  Name = 
REMARK  5 active torsions:
REMARK  status: ('A' for Active; 'I' for Inactive)
REMARK    1  A    between atoms: C_2  and  O_3
REMARK    2  A    between atoms: C_2  and  C_4
REMARK    3  A    between atoms: N_6  and  C_7
REMARK    4  A    between atoms: C_7  and  C_8
REMARK    5  A    between atoms: C_12  and  C_13
REMARK                            x       y       z     vdW  Elec       q    Type
REMARK                         _______ _______ _______ _____ _____    ______ ____
ROOT
ATOM      1  C   UNL     1       4.477   5.096  17.875  0.00  0.00    +0.000 A 
ATOM      2  C   UNL     1       3.963   6.366  17.719  0.00  0.00    +0.000 A 
ATOM      3  C   UNL     1       3.027   6.720  18.749  0.00  0.00    +0.000 A 
ATOM      4  C   UNL     1       2.292   7.914  18.962  0.00  0.00    +0.000 A 
ATOM      5  C   UNL     1       1.385   8.052  20.032  0.00  0.00    +0.000 A 
ATOM      6  C   UNL     1       1.229   6.957  20.892  0.00  0.00    +0.000 A 
ATOM      7  C   UNL     1       1.964   5.778  20.735  0.00  0.00    +0.000 A 
ATOM      8  C   UNL     1       2.855   5.678  19.657  0.00  0.00    +0.000 A 
ATOM      9  S   UNL     1       3.840   4.330  19.265  0.00  0.00    +0.000 S 
ENDROOT
BRANCH   5  10
ATOM     10  C   UNL     1       0.631   9.309  20.249  0.00  0.00    +0.000 A 
ATOM     11  C   UNL     1       0.456  10.247  19.219  0.00  0.00    +0.000 A 
ATOM     12  C   UNL     1      -0.228  11.446  19.433  0.00  0.00    +0.000 A 
ATOM     13  C   UNL     1      -0.776  11.742  20.685  0.00  0.00    +0.000 A 
ATOM     14  C   UNL     1      -1.461  12.943  20.917  0.00  0.00    +0.000 A 
ATOM     15  C   UNL     1      -2.006  13.219  22.171  0.00  0.00    +0.000 A 
ATOM     16  C   UNL     1      -1.873  12.298  23.207  0.00  0.00    +0.000 A 
ATOM     17  C   UNL     1      -1.189  11.101  22.991  0.00  0.00    +0.000 A 
ATOM     18  C   UNL     1      -0.632  10.811  21.736  0.00  0.00    +0.000 A 
ATOM     19  C   UNL     1       0.072   9.618  21.503  0.00  0.00    +0.000 A 
ENDBRANCH   5  10
BRANCH   1  20
ATOM     20  C   UNL     1       5.483   4.365  17.030  0.00  0.00    +0.000 C 
BRANCH  20  23
ATOM     21  C   UNL     1       7.018   4.829  14.598  0.00  0.00    +0.000 C 
ATOM     22  C   UNL     1       5.763   5.645  14.952  0.00  0.00    +0.000 C 
ATOM     23  N   UNL     1       5.166   4.450  15.591  0.00  0.00    +0.000 NA
ATOM     24  C   UNL     1       6.103   3.602  14.806  0.00  0.00    +0.000 C 
BRANCH  21  26
ATOM     25  O   UNL     1       7.314   4.469  12.181  0.00  0.00    +0.000 OA
ATOM     26  C   UNL     1       7.648   5.040  13.212  0.00  0.00    +0.000 C 
BRANCH  26  27
ATOM     27  O   UNL     1       8.677   5.933  13.203  0.00  0.00    +0.000 OA
ATOM     28  H   UNL     1       8.968   6.184  12.306  0.00  0.00    +0.000 HD
ENDBRANCH  26  27
ENDBRANCH  21  26
ENDBRANCH  20  23
ENDBRANCH   1  20
TORSDOF 5
ENDMDL
MODEL 9
REMARK VINA RESULT:      -8.0      7.107     11.412
REMARK  Name = 
REMARK  5 active torsions:
REMARK  status: ('A' for Active; 'I' for Inactive)
REMARK    1  A    between atoms: C_2  and  O_3
REMARK    2  A    between atoms: C_2  and  C_4
REMARK    3  A    between atoms: N_6  and  C_7
REMARK    4  A    between atoms: C_7  and  C_8
REMARK    5  A    between atoms: C_12  and  C_13
REMARK                            x       y       z     vdW  Elec       q    Type
REMARK                         _______ _______ _______ _____ _____    ______ ____
ROOT
ATOM      1  C   UNL     1      -1.183  12.459  22.428  0.00  0.00    +0.000 A 
ATOM      2  C   UNL     1      -0.740  11.158  22.546  0.00  0.00    +0.000 A 
ATOM      3  C   UNL     1      -0.060  10.692  21.370  0.00  0.00    +0.000 A 
ATOM      4  C   UNL     1       0.548   9.442  21.086  0.00  0.00    +0.000 A 
ATOM      5  C   UNL     1       1.144   9.168  19.838  0.00  0.00    +0.000 A 
ATOM      6  C   UNL     1       1.120  10.184  18.874  0.00  0.00    +0.000 A 
ATOM      7  C   UNL     1       0.564  11.440  19.131  0.00  0.00    +0.000 A 
ATOM      8  C   UNL     1      -0.023  11.674  20.383  0.00  0.00    +0.000 A 
ATOM      9  S   UNL     1      -0.772  13.125  20.907  0.00  0.00    +0.000 S 
ENDROOT
BRANCH   5  10
ATOM     10  C   UNL     1       1.784   7.862  19.558  0.00  0.00    +0.000 A 
ATOM     11  C   UNL     1       2.517   7.639  18.381  0.00  0.00    +0.000 A 
ATOM     12  C   UNL     1       3.094   6.397  18.105  0.00  0.00    +0.000 A 
ATOM     13  C   UNL     1       2.970   5.335  19.006  0.00  0.00    +0.000 A 
ATOM     14  C   UNL     1       3.538   4.082  18.740  0.00  0.00    +0.000 A 
ATOM     15  C   UNL     1       3.409   3.036  19.654  0.00  0.00    +0.000 A 
ATOM     16  C   UNL     1       2.711   3.231  20.843  0.00  0.00    +0.000 A 
ATOM     17  C   UNL     1       2.136   4.472  21.118  0.00  0.00    +0.000 A 
ATOM     18  C   UNL     1       2.254   5.532  20.206  0.00  0.00    +0.000 A 
ATOM     19  C   UNL     1       1.670   6.785  20.459  0.00  0.00    +0.000 A 
ENDBRANCH   5  10
BRANCH   1  20
ATOM     20  C   UNL     1      -1.916  13.308  23.428  0.00  0.00    +0.000 C 
BRANCH  20  23
ATOM     21  C   UNL     1      -4.736  12.860  24.006  0.00  0.00    +0.000 C 
ATOM     22  C   UNL     1      -4.154  12.741  22.587  0.00  0.00    +0.000 C 
ATOM     23  N   UNL     1      -3.191  13.824  22.891  0.00  0.00    +0.000 NA
ATOM     24  C   UNL     1      -4.080  14.259  24.001  0.00  0.00    +0.000 C 
BRANCH  21  26
ATOM     25  O   UNL     1      -6.941  11.766  24.020  0.00  0.00    +0.000 OA
ATOM     26  C   UNL     1      -6.262  12.774  24.168  0.00  0.00    +0.000 C 
BRANCH  26  27
ATOM     27  O   UNL     1      -6.853  13.962  24.478  0.00  0.00    +0.000 OA
ATOM     28  H   UNL     1      -7.448  13.913  25.250  0.00  0.00    +0.000 HD
ENDBRANCH  26  27
ENDBRANCH  21  26
ENDBRANCH  20  23
ENDBRANCH   1  20
TORSDOF 5
ENDMDL
