MODEL 1
REMARK VINA RESULT:      -9.1      0.000      0.000
REMARK  Name = 
REMARK  7 active torsions:
REMARK  status: ('A' for Active; 'I' for Inactive)
REMARK    1  A    between atoms: C_1  and  O_2
REMARK    2  A    between atoms: O_2  and  C_3
REMARK    3  A    between atoms: C_6  and  N_7
REMARK    4  A    between atoms: C_9  and  C_10
REMARK    5  A    between atoms: N_12  and  C_13
REMARK    6  A    between atoms: C_13  and  C_14
REMARK    7  A    between atoms: C_19  and  C_20
REMARK                            x       y       z     vdW  Elec       q    Type
REMARK                         _______ _______ _______ _____ _____    ______ ____
ROOT
ATOM      1  N   UNL     1       4.337   4.834  17.672  0.00  0.00    +0.000 N 
ATOM      2  N   UNL     1       3.239   5.675  17.519  0.00  0.00    +0.000 NA
ATOM      3  C   UNL     1       2.442   5.713  18.535  0.00  0.00    +0.000 A 
ATOM      4  C   UNL     1       2.298   4.608  19.473  0.00  0.00    +0.000 A 
ATOM      5  C   UNL     1       1.111   4.271  20.108  0.00  0.00    +0.000 A 
ATOM      6  C   UNL     1       1.124   3.219  21.023  0.00  0.00    +0.000 A 
ATOM      7  C   UNL     1       2.321   2.539  21.288  0.00  0.00    +0.000 A 
ATOM      8  C   UNL     1       3.515   2.913  20.652  0.00  0.00    +0.000 A 
ATOM      9  C   UNL     1       3.490   3.950  19.725  0.00  0.00    +0.000 A 
ATOM     10  C   UNL     1       4.671   4.411  18.967  0.00  0.00    +0.000 A 
ATOM     11  O   UNL     1       5.789   4.396  19.482  0.00  0.00    +0.000 OA
ENDROOT
BRANCH   1  15
ATOM     12  C   UNL     1       6.869   4.866  14.276  0.00  0.00    +0.000 A 
ATOM     13  C   UNL     1       7.196   5.669  15.374  0.00  0.00    +0.000 A 
ATOM     14  C   UNL     1       6.401   5.660  16.534  0.00  0.00    +0.000 A 
ATOM     15  C   UNL     1       5.254   4.858  16.584  0.00  0.00    +0.000 A 
ATOM     16  C   UNL     1       4.977   4.019  15.499  0.00  0.00    +0.000 A 
ATOM     17  C   UNL     1       5.750   4.046  14.345  0.00  0.00    +0.000 A 
BRANCH  12  19
ATOM     18  C   UNL     1       7.241   4.257  12.019  0.00  0.00    +0.000 C 
ATOM     19  O   UNL     1       7.687   4.957  13.183  0.00  0.00    +0.000 OA
ENDBRANCH  12  19
ENDBRANCH   1  15
BRANCH   3  20
ATOM     20  C   UNL     1       2.189   7.097  19.104  0.00  0.00    +0.000 C 
ATOM     21  O   UNL     1       2.363   7.375  20.255  0.00  0.00    +0.000 OA
ATOM     22  N   UNL     1       1.879   7.933  18.061  0.00  0.00    +0.000 N 
ATOM     23  H   UNL     1       1.912   7.552  17.117  0.00  0.00    +0.000 HD
BRANCH  22  24
ATOM     24  C   UNL     1       1.871   9.343  18.210  0.00  0.00    +0.000 C 
BRANCH  24  25
ATOM     25  C   UNL     1       0.424   9.810  18.331  0.00  0.00    +0.000 C 
ATOM     26  O   UNL     1      -0.386   9.699  17.408  0.00  0.00    +0.000 OA
ATOM     27  N   UNL     1       0.084  10.325  19.564  0.00  0.00    +0.000 N 
ATOM     28  C   UNL     1      -1.301  10.678  19.828  0.00  0.00    +0.000 C 
ATOM     29  C   UNL     1      -1.404  12.135  20.276  0.00  0.00    +0.000 C 
ATOM     30  C   UNL     1      -0.472  12.409  21.467  0.00  0.00    +0.000 C 
ATOM     31  C   UNL     1       0.965  12.008  21.087  0.00  0.00    +0.000 C 
ATOM     32  C   UNL     1       1.046  10.557  20.634  0.00  0.00    +0.000 C 
BRANCH  30  33
ATOM     33  C   UNL     1      -1.010  11.672  22.697  0.00  0.00    +0.000 C 
ATOM     34  N   UNL     1      -2.303  11.943  23.063  0.00  0.00    +0.000 N 
ATOM     35  O   UNL     1      -0.386  10.845  23.329  0.00  0.00    +0.000 OA
ATOM     36  H   UNL     1      -2.861  12.703  22.707  0.00  0.00    +0.000 HD
ATOM     37  H   UNL     1      -2.630  11.470  23.896  0.00  0.00    +0.000 HD
ENDBRANCH  30  33
ENDBRANCH  24  25
ENDBRANCH  22  24
ENDBRANCH   3  20
TORSDOF 6
ENDMDL
MODEL 2
REMARK VINA RESULT:      -8.5      3.102     10.915
REMARK  Name = 
REMARK  7 active torsions:
REMARK  status: ('A' for Active; 'I' for Inactive)
REMARK    1  A    between atoms: C_1  and  O_2
REMARK    2  A    between atoms: O_2  and  C_3
REMARK    3  A    between atoms: C_6  and  N_7
REMARK    4  A    between atoms: C_9  and  C_10
REMARK    5  A    between atoms: N_12  and  C_13
REMARK    6  A    between atoms: C_13  and  C_14
REMARK    7  A    between atoms: C_19  and  C_20
REMARK                            x       y       z     vdW  Elec       q    Type
REMARK                         _______ _______ _______ _____ _____    ______ ____
ROOT
ATOM      1  N   UNL     1      -1.317  12.610  21.576  0.00  0.00    +0.000 N 
ATOM      2  N   UNL     1      -1.054  11.322  21.117  0.00  0.00    +0.000 NA
ATOM      3  C   UNL     1       0.098  11.175  20.552  0.00  0.00    +0.000 A 
ATOM      4  C   UNL     1       0.803  12.264  19.892  0.00  0.00    +0.000 A 
ATOM      5  C   UNL     1       1.602  12.110  18.767  0.00  0.00    +0.000 A 
ATOM      6  C   UNL     1       2.262  13.231  18.264  0.00  0.00    +0.000 A 
ATOM      7  C   UNL     1       2.117  14.472  18.902  0.00  0.00    +0.000 A 
ATOM      8  C   UNL     1       1.324  14.599  20.053  0.00  0.00    +0.000 A 
ATOM      9  C   UNL     1       0.652  13.480  20.536  0.00  0.00    +0.000 A 
ATOM     10  C   UNL     1      -0.238  13.495  21.715  0.00  0.00    +0.000 A 
ATOM     11  O   UNL     1       0.007  14.229  22.673  0.00  0.00    +0.000 OA
ENDROOT
BRANCH   1  15
ATOM     12  C   UNL     1      -5.113  12.970  23.422  0.00  0.00    +0.000 A 
ATOM     13  C   UNL     1      -4.035  12.486  24.173  0.00  0.00    +0.000 A 
ATOM     14  C   UNL     1      -2.752  12.386  23.607  0.00  0.00    +0.000 A 
ATOM     15  C   UNL     1      -2.552  12.749  22.270  0.00  0.00    +0.000 A 
ATOM     16  C   UNL     1      -3.628  13.284  21.553  0.00  0.00    +0.000 A 
ATOM     17  C   UNL     1      -4.901  13.361  22.106  0.00  0.00    +0.000 A 
BRANCH  12  19
ATOM     18  C   UNL     1      -7.073  14.218  23.868  0.00  0.00    +0.000 C 
ATOM     19  O   UNL     1      -6.328  13.011  24.048  0.00  0.00    +0.000 OA
ENDBRANCH  12  19
ENDBRANCH   1  15
BRANCH   3  20
ATOM     20  C   UNL     1       0.973  10.088  21.149  0.00  0.00    +0.000 C 
ATOM     21  O   UNL     1       1.332  10.090  22.291  0.00  0.00    +0.000 OA
ATOM     22  N   UNL     1       1.132   9.106  20.204  0.00  0.00    +0.000 N 
ATOM     23  H   UNL     1       0.635   9.207  19.321  0.00  0.00    +0.000 HD
BRANCH  22  24
ATOM     24  C   UNL     1       1.649   7.828  20.535  0.00  0.00    +0.000 C 
BRANCH  24  25
ATOM     25  C   UNL     1       2.262   7.212  19.281  0.00  0.00    +0.000 C 
ATOM     26  O   UNL     1       2.589   7.890  18.304  0.00  0.00    +0.000 OA
ATOM     27  N   UNL     1       2.459   5.849  19.343  0.00  0.00    +0.000 N 
ATOM     28  C   UNL     1       3.155   5.183  18.255  0.00  0.00    +0.000 C 
ATOM     29  C   UNL     1       2.299   4.052  17.688  0.00  0.00    +0.000 C 
ATOM     30  C   UNL     1       1.855   3.090  18.800  0.00  0.00    +0.000 C 
ATOM     31  C   UNL     1       1.127   3.889  19.898  0.00  0.00    +0.000 C 
ATOM     32  C   UNL     1       1.991   5.017  20.444  0.00  0.00    +0.000 C 
BRANCH  30  33
ATOM     33  C   UNL     1       3.078   2.322  19.310  0.00  0.00    +0.000 C 
ATOM     34  N   UNL     1       3.756   1.562  18.392  0.00  0.00    +0.000 N 
ATOM     35  O   UNL     1       3.500   2.380  20.445  0.00  0.00    +0.000 OA
ATOM     36  H   UNL     1       3.421   1.327  17.471  0.00  0.00    +0.000 HD
ATOM     37  H   UNL     1       4.541   1.037  18.755  0.00  0.00    +0.000 HD
ENDBRANCH  30  33
ENDBRANCH  24  25
ENDBRANCH  22  24
ENDBRANCH   3  20
TORSDOF 6
ENDMDL
MODEL 3
REMARK VINA RESULT:      -8.5      1.553      1.657
REMARK  Name = 
REMARK  7 active torsions:
REMARK  status: ('A' for Active; 'I' for Inactive)
REMARK    1  A    between atoms: C_1  and  O_2
REMARK    2  A    between atoms: O_2  and  C_3
REMARK    3  A    between atoms: C_6  and  N_7
REMARK    4  A    between atoms: C_9  and  C_10
REMARK    5  A    between atoms: N_12  and  C_13
REMARK    6  A    between atoms: C_13  and  C_14
REMARK    7  A    between atoms: C_19  and  C_20
REMARK                            x       y       z     vdW  Elec       q    Type
REMARK                         _______ _______ _______ _____ _____    ______ ____
ROOT
ATOM      1  N   UNL     1       4.349   4.847  17.661  0.00  0.00    +0.000 N 
ATOM      2  N   UNL     1       3.258   5.698  17.515  0.00  0.00    +0.000 NA
ATOM      3  C   UNL     1       2.470   5.746  18.538  0.00  0.00    +0.000 A 
ATOM      4  C   UNL     1       2.324   4.645  19.480  0.00  0.00    +0.000 A 
ATOM      5  C   UNL     1       1.139   4.321  20.127  0.00  0.00    +0.000 A 
ATOM      6  C   UNL     1       1.150   3.272  21.044  0.00  0.00    +0.000 A 
ATOM      7  C   UNL     1       2.343   2.581  21.301  0.00  0.00    +0.000 A 
ATOM      8  C   UNL     1       3.535   2.942  20.655  0.00  0.00    +0.000 A 
ATOM      9  C   UNL     1       3.511   3.977  19.725  0.00  0.00    +0.000 A 
ATOM     10  C   UNL     1       4.691   4.425  18.955  0.00  0.00    +0.000 A 
ATOM     11  O   UNL     1       5.813   4.401  19.461  0.00  0.00    +0.000 OA
ENDROOT
BRANCH   1  15
ATOM     12  C   UNL     1       6.858   4.814  14.248  0.00  0.00    +0.000 A 
ATOM     13  C   UNL     1       7.118   5.730  15.273  0.00  0.00    +0.000 A 
ATOM     14  C   UNL     1       6.331   5.749  16.438  0.00  0.00    +0.000 A 
ATOM     15  C   UNL     1       5.258   4.859  16.566  0.00  0.00    +0.000 A 
ATOM     16  C   UNL     1       5.050   3.913  15.556  0.00  0.00    +0.000 A 
ATOM     17  C   UNL     1       5.813   3.910  14.395  0.00  0.00    +0.000 A 
BRANCH  12  19
ATOM     18  C   UNL     1       7.191   4.177  11.993  0.00  0.00    +0.000 C 
ATOM     19  O   UNL     1       7.661   4.884  13.143  0.00  0.00    +0.000 OA
ENDBRANCH  12  19
ENDBRANCH   1  15
BRANCH   3  20
ATOM     20  C   UNL     1       2.235   7.134  19.104  0.00  0.00    +0.000 C 
ATOM     21  O   UNL     1       2.258   7.377  20.276  0.00  0.00    +0.000 OA
ATOM     22  N   UNL     1       2.139   8.010  18.052  0.00  0.00    +0.000 N 
ATOM     23  H   UNL     1       2.282   7.645  17.112  0.00  0.00    +0.000 HD
BRANCH  22  24
ATOM     24  C   UNL     1       2.207   9.414  18.240  0.00  0.00    +0.000 C 
BRANCH  24  25
ATOM     25  C   UNL     1       0.792   9.981  18.183  0.00  0.00    +0.000 C 
ATOM     26  O   UNL     1      -0.150   9.358  17.688  0.00  0.00    +0.000 OA
ATOM     27  N   UNL     1       0.643  11.223  18.763  0.00  0.00    +0.000 N 
ATOM     28  C   UNL     1      -0.687  11.797  18.878  0.00  0.00    +0.000 C 
ATOM     29  C   UNL     1      -0.732  13.175  18.221  0.00  0.00    +0.000 C 
ATOM     30  C   UNL     1       0.371  14.086  18.783  0.00  0.00    +0.000 C 
ATOM     31  C   UNL     1       1.736  13.394  18.610  0.00  0.00    +0.000 C 
ATOM     32  C   UNL     1       1.758  12.018  19.262  0.00  0.00    +0.000 C 
BRANCH  30  33
ATOM     33  C   UNL     1       0.037  14.430  20.238  0.00  0.00    +0.000 C 
ATOM     34  N   UNL     1       1.067  14.895  21.014  0.00  0.00    +0.000 N 
ATOM     35  O   UNL     1      -1.073  14.359  20.722  0.00  0.00    +0.000 OA
ATOM     36  H   UNL     1       2.043  14.861  20.765  0.00  0.00    +0.000 HD
ATOM     37  H   UNL     1       0.834  15.086  21.980  0.00  0.00    +0.000 HD
ENDBRANCH  30  33
ENDBRANCH  24  25
ENDBRANCH  22  24
ENDBRANCH   3  20
TORSDOF 6
ENDMDL
MODEL 4
REMARK VINA RESULT:      -8.4      3.177     10.889
REMARK  Name = 
REMARK  7 active torsions:
REMARK  status: ('A' for Active; 'I' for Inactive)
REMARK    1  A    between atoms: C_1  and  O_2
REMARK    2  A    between atoms: O_2  and  C_3
REMARK    3  A    between atoms: C_6  and  N_7
REMARK    4  A    between atoms: C_9  and  C_10
REMARK    5  A    between atoms: N_12  and  C_13
REMARK    6  A    between atoms: C_13  and  C_14
REMARK    7  A    between atoms: C_19  and  C_20
REMARK                            x       y       z     vdW  Elec       q    Type
REMARK                         _______ _______ _______ _____ _____    ______ ____
ROOT
ATOM      1  N   UNL     1      -1.398  12.599  21.354  0.00  0.00    +0.000 N 
ATOM      2  N   UNL     1      -1.098  11.307  20.931  0.00  0.00    +0.000 NA
ATOM      3  C   UNL     1       0.087  11.163  20.437  0.00  0.00    +0.000 A 
ATOM      4  C   UNL     1       0.821  12.248  19.803  0.00  0.00    +0.000 A 
ATOM      5  C   UNL     1       1.686  12.085  18.730  0.00  0.00    +0.000 A 
ATOM      6  C   UNL     1       2.365  13.204  18.250  0.00  0.00    +0.000 A 
ATOM      7  C   UNL     1       2.174  14.452  18.860  0.00  0.00    +0.000 A 
ATOM      8  C   UNL     1       1.313  14.589  19.960  0.00  0.00    +0.000 A 
ATOM      9  C   UNL     1       0.622  13.472  20.420  0.00  0.00    +0.000 A 
ATOM     10  C   UNL     1      -0.336  13.496  21.544  0.00  0.00    +0.000 A 
ATOM     11  O   UNL     1      -0.154  14.246  22.504  0.00  0.00    +0.000 OA
ENDROOT
BRANCH   1  15
ATOM     12  C   UNL     1      -5.071  13.054  23.415  0.00  0.00    +0.000 A 
ATOM     13  C   UNL     1      -4.991  13.448  22.075  0.00  0.00    +0.000 A 
ATOM     14  C   UNL     1      -3.800  13.281  21.346  0.00  0.00    +0.000 A 
ATOM     15  C   UNL     1      -2.672  12.737  21.972  0.00  0.00    +0.000 A 
ATOM     16  C   UNL     1      -2.790  12.295  23.295  0.00  0.00    +0.000 A 
ATOM     17  C   UNL     1      -3.959  12.482  24.021  0.00  0.00    +0.000 A 
BRANCH  12  19
ATOM     18  C   UNL     1      -7.317  12.371  23.714  0.00  0.00    +0.000 C 
ATOM     19  O   UNL     1      -6.262  13.275  24.051  0.00  0.00    +0.000 OA
ENDBRANCH  12  19
ENDBRANCH   1  15
BRANCH   3  20
ATOM     20  C   UNL     1       0.934  10.092  21.101  0.00  0.00    +0.000 C 
ATOM     21  O   UNL     1       1.377  10.200  22.208  0.00  0.00    +0.000 OA
ATOM     22  N   UNL     1       0.960   8.999  20.273  0.00  0.00    +0.000 N 
ATOM     23  H   UNL     1       0.406   9.032  19.419  0.00  0.00    +0.000 HD
BRANCH  22  24
ATOM     24  C   UNL     1       1.420   7.733  20.720  0.00  0.00    +0.000 C 
BRANCH  24  25
ATOM     25  C   UNL     1       2.262   7.104  19.615  0.00  0.00    +0.000 C 
ATOM     26  O   UNL     1       2.614   7.732  18.614  0.00  0.00    +0.000 OA
ATOM     27  N   UNL     1       2.631   5.796  19.845  0.00  0.00    +0.000 N 
ATOM     28  C   UNL     1       3.542   5.144  18.918  0.00  0.00    +0.000 C 
ATOM     29  C   UNL     1       2.924   3.853  18.383  0.00  0.00    +0.000 C 
ATOM     30  C   UNL     1       2.477   2.940  19.536  0.00  0.00    +0.000 C 
ATOM     31  C   UNL     1       1.516   3.719  20.453  0.00  0.00    +0.000 C 
ATOM     32  C   UNL     1       2.145   5.006  20.969  0.00  0.00    +0.000 C 
BRANCH  30  33
ATOM     33  C   UNL     1       3.718   2.408  20.257  0.00  0.00    +0.000 C 
ATOM     34  N   UNL     1       4.862   2.289  19.511  0.00  0.00    +0.000 N 
ATOM     35  O   UNL     1       3.761   2.135  21.438  0.00  0.00    +0.000 OA
ATOM     36  H   UNL     1       4.909   2.349  18.506  0.00  0.00    +0.000 HD
ATOM     37  H   UNL     1       5.663   1.906  19.997  0.00  0.00    +0.000 HD
ENDBRANCH  30  33
ENDBRANCH  24  25
ENDBRANCH  22  24
ENDBRANCH   3  20
TORSDOF 6
ENDMDL
MODEL 5
REMARK VINA RESULT:      -8.4      3.223      9.411
REMARK  Name = 
REMARK  7 active torsions:
REMARK  status: ('A' for Active; 'I' for Inactive)
REMARK    1  A    between atoms: C_1  and  O_2
REMARK    2  A    between atoms: O_2  and  C_3
REMARK    3  A    between atoms: C_6  and  N_7
REMARK    4  A    between atoms: C_9  and  C_10
REMARK    5  A    between atoms: N_12  and  C_13
REMARK    6  A    between atoms: C_13  and  C_14
REMARK    7  A    between atoms: C_19  and  C_20
REMARK                            x       y       z     vdW  Elec       q    Type
REMARK                         _______ _______ _______ _____ _____    ______ ____
ROOT
ATOM      1  N   UNL     1       0.668  13.022  19.777  0.00  0.00    +0.000 N 
ATOM      2  N   UNL     1       1.460  11.983  19.298  0.00  0.00    +0.000 NA
ATOM      3  C   UNL     1       1.135  10.811  19.735  0.00  0.00    +0.000 A 
ATOM      4  C   UNL     1       0.470  10.596  21.012  0.00  0.00    +0.000 A 
ATOM      5  C   UNL     1       0.683   9.493  21.828  0.00  0.00    +0.000 A 
ATOM      6  C   UNL     1      -0.058   9.386  23.004  0.00  0.00    +0.000 A 
ATOM      7  C   UNL     1      -0.999  10.374  23.329  0.00  0.00    +0.000 A 
ATOM      8  C   UNL     1      -1.215  11.468  22.477  0.00  0.00    +0.000 A 
ATOM      9  C   UNL     1      -0.457  11.579  21.315  0.00  0.00    +0.000 A 
ATOM     10  C   UNL     1      -0.567  12.699  20.359  0.00  0.00    +0.000 A 
ATOM     11  O   UNL     1      -1.655  13.236  20.148  0.00  0.00    +0.000 OA
ENDROOT
BRANCH   1  15
ATOM     12  C   UNL     1       1.785  16.714  18.027  0.00  0.00    +0.000 A 
ATOM     13  C   UNL     1       0.432  16.466  18.282  0.00  0.00    +0.000 A 
ATOM     14  C   UNL     1       0.024  15.267  18.894  0.00  0.00    +0.000 A 
ATOM     15  C   UNL     1       0.978  14.300  19.231  0.00  0.00    +0.000 A 
ATOM     16  C   UNL     1       2.330  14.591  19.021  0.00  0.00    +0.000 A 
ATOM     17  C   UNL     1       2.730  15.765  18.395  0.00  0.00    +0.000 A 
BRANCH  12  19
ATOM     18  C   UNL     1       0.987  18.563  16.783  0.00  0.00    +0.000 C 
ATOM     19  O   UNL     1       2.086  17.897  17.408  0.00  0.00    +0.000 OA
ENDBRANCH  12  19
ENDBRANCH   1  15
BRANCH   3  20
ATOM     20  C   UNL     1       0.845   9.781  18.659  0.00  0.00    +0.000 C 
ATOM     21  O   UNL     1      -0.061   9.883  17.882  0.00  0.00    +0.000 OA
ATOM     22  N   UNL     1       1.855   8.853  18.677  0.00  0.00    +0.000 N 
ATOM     23  H   UNL     1       2.628   9.001  19.323  0.00  0.00    +0.000 HD
BRANCH  22  24
ATOM     24  C   UNL     1       2.038   7.926  17.619  0.00  0.00    +0.000 C 
BRANCH  24  25
ATOM     25  C   UNL     1       3.421   7.298  17.758  0.00  0.00    +0.000 C 
ATOM     26  O   UNL     1       4.458   7.924  17.527  0.00  0.00    +0.000 OA
ATOM     27  N   UNL     1       3.420   5.992  18.201  0.00  0.00    +0.000 N 
ATOM     28  C   UNL     1       4.687   5.342  18.492  0.00  0.00    +0.000 C 
ATOM     29  C   UNL     1       4.817   4.046  17.694  0.00  0.00    +0.000 C 
ATOM     30  C   UNL     1       3.601   3.135  17.926  0.00  0.00    +0.000 C 
ATOM     31  C   UNL     1       2.315   3.912  17.587  0.00  0.00    +0.000 C 
ATOM     32  C   UNL     1       2.209   5.204  18.385  0.00  0.00    +0.000 C 
BRANCH  30  33
ATOM     33  C   UNL     1       3.641   2.612  19.365  0.00  0.00    +0.000 C 
ATOM     34  N   UNL     1       4.857   2.188  19.834  0.00  0.00    +0.000 N 
ATOM     35  O   UNL     1       2.688   2.595  20.115  0.00  0.00    +0.000 OA
ATOM     36  H   UNL     1       5.674   2.025  19.267  0.00  0.00    +0.000 HD
ATOM     37  H   UNL     1       4.857   1.817  20.775  0.00  0.00    +0.000 HD
ENDBRANCH  30  33
ENDBRANCH  24  25
ENDBRANCH  22  24
ENDBRANCH   3  20
TORSDOF 6
ENDMDL
MODEL 6
REMARK VINA RESULT:      -8.3      3.223     11.118
REMARK  Name = 
REMARK  7 active torsions:
REMARK  status: ('A' for Active; 'I' for Inactive)
REMARK    1  A    between atoms: C_1  and  O_2
REMARK    2  A    between atoms: O_2  and  C_3
REMARK    3  A    between atoms: C_6  and  N_7
REMARK    4  A    between atoms: C_9  and  C_10
REMARK    5  A    between atoms: N_12  and  C_13
REMARK    6  A    between atoms: C_13  and  C_14
REMARK    7  A    between atoms: C_19  and  C_20
REMARK                            x       y       z     vdW  Elec       q    Type
REMARK                         _______ _______ _______ _____ _____    ______ ____
ROOT
ATOM      1  N   UNL     1      -1.837  12.783  22.086  0.00  0.00    +0.000 N 
ATOM      2  N   UNL     1      -1.449  11.594  21.475  0.00  0.00    +0.000 NA
ATOM      3  C   UNL     1      -0.184  11.501  21.230  0.00  0.00    +0.000 A 
ATOM      4  C   UNL     1       0.671  12.660  21.016  0.00  0.00    +0.000 A 
ATOM      5  C   UNL     1       1.754  12.683  20.147  0.00  0.00    +0.000 A 
ATOM      6  C   UNL     1       2.520  13.845  20.075  0.00  0.00    +0.000 A 
ATOM      7  C   UNL     1       2.196  14.948  20.878  0.00  0.00    +0.000 A 
ATOM      8  C   UNL     1       1.112  14.893  21.769  0.00  0.00    +0.000 A 
ATOM      9  C   UNL     1       0.339  13.737  21.820  0.00  0.00    +0.000 A 
ATOM     10  C   UNL     1      -0.845  13.571  22.688  0.00  0.00    +0.000 A 
ATOM     11  O   UNL     1      -0.882  14.096  23.801  0.00  0.00    +0.000 OA
ENDROOT
BRANCH   1  15
ATOM     12  C   UNL     1      -5.996  12.840  22.890  0.00  0.00    +0.000 A 
ATOM     13  C   UNL     1      -5.097  12.814  23.962  0.00  0.00    +0.000 A 
ATOM     14  C   UNL     1      -3.709  12.830  23.738  0.00  0.00    +0.000 A 
ATOM     15  C   UNL     1      -3.217  12.847  22.428  0.00  0.00    +0.000 A 
ATOM     16  C   UNL     1      -4.131  12.931  21.371  0.00  0.00    +0.000 A 
ATOM     17  C   UNL     1      -5.502  12.892  21.592  0.00  0.00    +0.000 A 
BRANCH  12  19
ATOM     18  C   UNL     1      -7.718  13.578  24.335  0.00  0.00    +0.000 C 
ATOM     19  O   UNL     1      -7.327  12.799  23.202  0.00  0.00    +0.000 OA
ENDBRANCH  12  19
ENDBRANCH   1  15
BRANCH   3  20
ATOM     20  C   UNL     1       0.497  10.279  21.820  0.00  0.00    +0.000 C 
ATOM     21  O   UNL     1       0.547  10.060  22.996  0.00  0.00    +0.000 OA
ATOM     22  N   UNL     1       0.887   9.470  20.782  0.00  0.00    +0.000 N 
ATOM     23  H   UNL     1       0.637   9.752  19.836  0.00  0.00    +0.000 HD
BRANCH  22  24
ATOM     24  C   UNL     1       1.289   8.126  20.993  0.00  0.00    +0.000 C 
BRANCH  24  25
ATOM     25  C   UNL     1       1.953   7.612  19.719  0.00  0.00    +0.000 C 
ATOM     26  O   UNL     1       2.229   8.353  18.773  0.00  0.00    +0.000 OA
ATOM     27  N   UNL     1       2.255   6.267  19.728  0.00  0.00    +0.000 N 
ATOM     28  C   UNL     1       3.005   5.703  18.618  0.00  0.00    +0.000 C 
ATOM     29  C   UNL     1       2.242   4.532  17.999  0.00  0.00    +0.000 C 
ATOM     30  C   UNL     1       1.870   3.494  19.069  0.00  0.00    +0.000 C 
ATOM     31  C   UNL     1       1.078   4.188  20.193  0.00  0.00    +0.000 C 
ATOM     32  C   UNL     1       1.850   5.356  20.790  0.00  0.00    +0.000 C 
BRANCH  30  33
ATOM     33  C   UNL     1       3.147   2.803  19.555  0.00  0.00    +0.000 C 
ATOM     34  N   UNL     1       4.073   2.474  18.599  0.00  0.00    +0.000 N 
ATOM     35  O   UNL     1       3.403   2.574  20.719  0.00  0.00    +0.000 OA
ATOM     36  H   UNL     1       3.911   2.485  17.605  0.00  0.00    +0.000 HD
ATOM     37  H   UNL     1       4.896   1.990  18.936  0.00  0.00    +0.000 HD
ENDBRANCH  30  33
ENDBRANCH  24  25
ENDBRANCH  22  24
ENDBRANCH   3  20
TORSDOF 6
ENDMDL
MODEL 7
REMARK VINA RESULT:      -8.2      3.097     10.453
REMARK  Name = 
REMARK  7 active torsions:
REMARK  status: ('A' for Active; 'I' for Inactive)
REMARK    1  A    between atoms: C_1  and  O_2
REMARK    2  A    between atoms: O_2  and  C_3
REMARK    3  A    between atoms: C_6  and  N_7
REMARK    4  A    between atoms: C_9  and  C_10
REMARK    5  A    between atoms: N_12  and  C_13
REMARK    6  A    between atoms: C_13  and  C_14
REMARK    7  A    between atoms: C_19  and  C_20
REMARK                            x       y       z     vdW  Elec       q    Type
REMARK                         _______ _______ _______ _____ _____    ______ ____
ROOT
ATOM      1  N   UNL     1      -1.878  12.413  19.527  0.00  0.00    +0.000 N 
ATOM      2  N   UNL     1      -1.200  11.237  19.220  0.00  0.00    +0.000 NA
ATOM      3  C   UNL     1       0.088  11.339  19.227  0.00  0.00    +0.000 A 
ATOM      4  C   UNL     1       0.787  12.588  18.963  0.00  0.00    +0.000 A 
ATOM      5  C   UNL     1       2.010  12.677  18.311  0.00  0.00    +0.000 A 
ATOM      6  C   UNL     1       2.594  13.935  18.168  0.00  0.00    +0.000 A 
ATOM      7  C   UNL     1       1.951  15.068  18.688  0.00  0.00    +0.000 A 
ATOM      8  C   UNL     1       0.727  14.951  19.365  0.00  0.00    +0.000 A 
ATOM      9  C   UNL     1       0.140  13.695  19.486  0.00  0.00    +0.000 A 
ATOM     10  C   UNL     1      -1.160  13.449  20.144  0.00  0.00    +0.000 A 
ATOM     11  O   UNL     1      -1.503  14.118  21.118  0.00  0.00    +0.000 OA
ENDROOT
BRANCH   1  15
ATOM     12  C   UNL     1      -6.067  11.787  19.611  0.00  0.00    +0.000 A 
ATOM     13  C   UNL     1      -5.456  12.442  20.687  0.00  0.00    +0.000 A 
ATOM     14  C   UNL     1      -4.074  12.700  20.681  0.00  0.00    +0.000 A 
ATOM     15  C   UNL     1      -3.293  12.277  19.599  0.00  0.00    +0.000 A 
ATOM     16  C   UNL     1      -3.931  11.676  18.508  0.00  0.00    +0.000 A 
ATOM     17  C   UNL     1      -5.292  11.401  18.525  0.00  0.00    +0.000 A 
BRANCH  12  19
ATOM     18  C   UNL     1      -7.808  10.675  20.765  0.00  0.00    +0.000 C 
ATOM     19  O   UNL     1      -7.412  11.559  19.714  0.00  0.00    +0.000 OA
ENDBRANCH  12  19
ENDBRANCH   1  15
BRANCH   3  20
ATOM     20  C   UNL     1       0.806  10.361  20.140  0.00  0.00    +0.000 C 
ATOM     21  O   UNL     1       0.798  10.453  21.334  0.00  0.00    +0.000 OA
ATOM     22  N   UNL     1       1.307   9.347  19.364  0.00  0.00    +0.000 N 
ATOM     23  H   UNL     1       1.099   9.360  18.367  0.00  0.00    +0.000 HD
BRANCH  22  24
ATOM     24  C   UNL     1       1.778   8.135  19.931  0.00  0.00    +0.000 C 
BRANCH  24  25
ATOM     25  C   UNL     1       2.423   7.302  18.828  0.00  0.00    +0.000 C 
ATOM     26  O   UNL     1       2.801   7.795  17.763  0.00  0.00    +0.000 OA
ATOM     27  N   UNL     1       2.587   5.967  19.133  0.00  0.00    +0.000 N 
ATOM     28  C   UNL     1       3.308   5.112  18.206  0.00  0.00    +0.000 C 
ATOM     29  C   UNL     1       2.449   3.913  17.808  0.00  0.00    +0.000 C 
ATOM     30  C   UNL     1       1.942   3.165  19.052  0.00  0.00    +0.000 C 
ATOM     31  C   UNL     1       1.191   4.154  19.964  0.00  0.00    +0.000 C 
ATOM     32  C   UNL     1       2.060   5.346  20.341  0.00  0.00    +0.000 C 
BRANCH  30  33
ATOM     33  C   UNL     1       3.127   2.478  19.736  0.00  0.00    +0.000 C 
ATOM     34  N   UNL     1       4.031   1.850  18.919  0.00  0.00    +0.000 N 
ATOM     35  O   UNL     1       3.333   2.495  20.931  0.00  0.00    +0.000 OA
ATOM     36  H   UNL     1       3.891   1.652  17.941  0.00  0.00    +0.000 HD
ATOM     37  H   UNL     1       4.790   1.375  19.391  0.00  0.00    +0.000 HD
ENDBRANCH  30  33
ENDBRANCH  24  25
ENDBRANCH  22  24
ENDBRANCH   3  20
TORSDOF 6
ENDMDL
MODEL 8
REMARK VINA RESULT:      -8.1      3.245      9.720
REMARK  Name = 
REMARK  7 active torsions:
REMARK  status: ('A' for Active; 'I' for Inactive)
REMARK    1  A    between atoms: C_1  and  O_2
REMARK    2  A    between atoms: O_2  and  C_3
REMARK    3  A    between atoms: C_6  and  N_7
REMARK    4  A    between atoms: C_9  and  C_10
REMARK    5  A    between atoms: N_12  and  C_13
REMARK    6  A    between atoms: C_13  and  C_14
REMARK    7  A    between atoms: C_19  and  C_20
REMARK                            x       y       z     vdW  Elec       q    Type
REMARK                         _______ _______ _______ _____ _____    ______ ____
ROOT
ATOM      1  N   UNL     1       0.680  13.083  19.749  0.00  0.00    +0.000 N 
ATOM      2  N   UNL     1       1.533  12.065  19.332  0.00  0.00    +0.000 NA
ATOM      3  C   UNL     1       1.238  10.893  19.789  0.00  0.00    +0.000 A 
ATOM      4  C   UNL     1       0.532  10.685  21.044  0.00  0.00    +0.000 A 
ATOM      5  C   UNL     1       0.756   9.614  21.900  0.00  0.00    +0.000 A 
ATOM      6  C   UNL     1      -0.026   9.508  23.048  0.00  0.00    +0.000 A 
ATOM      7  C   UNL     1      -1.019  10.464  23.308  0.00  0.00    +0.000 A 
ATOM      8  C   UNL     1      -1.246  11.524  22.416  0.00  0.00    +0.000 A 
ATOM      9  C   UNL     1      -0.446  11.635  21.283  0.00  0.00    +0.000 A 
ATOM     10  C   UNL     1      -0.563  12.724  20.291  0.00  0.00    +0.000 A 
ATOM     11  O   UNL     1      -1.663  13.209  20.023  0.00  0.00    +0.000 OA
ENDROOT
BRANCH   1  15
ATOM     12  C   UNL     1       1.384  16.981  18.249  0.00  0.00    +0.000 A 
ATOM     13  C   UNL     1       2.342  15.986  18.029  0.00  0.00    +0.000 A 
ATOM     14  C   UNL     1       2.130  14.671  18.480  0.00  0.00    +0.000 A 
ATOM     15  C   UNL     1       0.959  14.357  19.179  0.00  0.00    +0.000 A 
ATOM     16  C   UNL     1      -0.013  15.351  19.338  0.00  0.00    +0.000 A 
ATOM     17  C   UNL     1       0.207  16.655  18.912  0.00  0.00    +0.000 A 
BRANCH  12  19
ATOM     18  C   UNL     1       1.024  18.631  16.590  0.00  0.00    +0.000 C 
ATOM     19  O   UNL     1       1.685  18.236  17.794  0.00  0.00    +0.000 OA
ENDBRANCH  12  19
ENDBRANCH   1  15
BRANCH   3  20
ATOM     20  C   UNL     1       1.034   9.823  18.731  0.00  0.00    +0.000 C 
ATOM     21  O   UNL     1       0.058   9.762  18.041  0.00  0.00    +0.000 OA
ATOM     22  N   UNL     1       2.187   9.084  18.649  0.00  0.00    +0.000 N 
ATOM     23  H   UNL     1       2.978   9.367  19.224  0.00  0.00    +0.000 HD
BRANCH  22  24
ATOM     24  C   UNL     1       2.431   8.198  17.568  0.00  0.00    +0.000 C 
BRANCH  24  25
ATOM     25  C   UNL     1       2.876   6.853  18.133  0.00  0.00    +0.000 C 
ATOM     26  O   UNL     1       2.255   6.274  19.027  0.00  0.00    +0.000 OA
ATOM     27  N   UNL     1       4.000   6.320  17.538  0.00  0.00    +0.000 N 
ATOM     28  C   UNL     1       4.433   4.984  17.912  0.00  0.00    +0.000 C 
ATOM     29  C   UNL     1       5.885   5.007  18.385  0.00  0.00    +0.000 C 
ATOM     30  C   UNL     1       6.794   5.666  17.336  0.00  0.00    +0.000 C 
ATOM     31  C   UNL     1       6.255   7.073  17.013  0.00  0.00    +0.000 C 
ATOM     32  C   UNL     1       4.804   7.031  16.553  0.00  0.00    +0.000 C 
BRANCH  30  33
ATOM     33  C   UNL     1       6.886   4.749  16.113  0.00  0.00    +0.000 C 
ATOM     34  N   UNL     1       7.598   5.220  15.040  0.00  0.00    +0.000 N 
ATOM     35  O   UNL     1       6.413   3.634  16.055  0.00  0.00    +0.000 OA
ATOM     36  H   UNL     1       7.908   6.172  14.922  0.00  0.00    +0.000 HD
ATOM     37  H   UNL     1       7.621   4.613  14.231  0.00  0.00    +0.000 HD
ENDBRANCH  30  33
ENDBRANCH  24  25
ENDBRANCH  22  24
ENDBRANCH   3  20
TORSDOF 6
ENDMDL
MODEL 9
REMARK VINA RESULT:      -8.1      1.587      1.888
REMARK  Name = 
REMARK  7 active torsions:
REMARK  status: ('A' for Active; 'I' for Inactive)
REMARK    1  A    between atoms: C_1  and  O_2
REMARK    2  A    between atoms: O_2  and  C_3
REMARK    3  A    between atoms: C_6  and  N_7
REMARK    4  A    between atoms: C_9  and  C_10
REMARK    5  A    between atoms: N_12  and  C_13
REMARK    6  A    between atoms: C_13  and  C_14
REMARK    7  A    between atoms: C_19  and  C_20
REMARK                            x       y       z     vdW  Elec       q    Type
REMARK                         _______ _______ _______ _____ _____    ______ ____
ROOT
ATOM      1  N   UNL     1       4.128   4.890  17.756  0.00  0.00    +0.000 N 
ATOM      2  N   UNL     1       3.100   5.828  17.734  0.00  0.00    +0.000 NA
ATOM      3  C   UNL     1       2.412   5.901  18.825  0.00  0.00    +0.000 A 
ATOM      4  C   UNL     1       2.262   4.783  19.745  0.00  0.00    +0.000 A 
ATOM      5  C   UNL     1       1.116   4.530  20.487  0.00  0.00    +0.000 A 
ATOM      6  C   UNL     1       1.123   3.451  21.369  0.00  0.00    +0.000 A 
ATOM      7  C   UNL     1       2.274   2.660  21.498  0.00  0.00    +0.000 A 
ATOM      8  C   UNL     1       3.430   2.950  20.756  0.00  0.00    +0.000 A 
ATOM      9  C   UNL     1       3.408   4.016  19.862  0.00  0.00    +0.000 A 
ATOM     10  C   UNL     1       4.547   4.397  19.001  0.00  0.00    +0.000 A 
ATOM     11  O   UNL     1       5.704   4.268  19.402  0.00  0.00    +0.000 OA
ENDROOT
BRANCH   1  15
ATOM     12  C   UNL     1       6.417   4.609  14.203  0.00  0.00    +0.000 A 
ATOM     13  C   UNL     1       6.043   5.873  14.671  0.00  0.00    +0.000 A 
ATOM     14  C   UNL     1       5.314   6.011  15.866  0.00  0.00    +0.000 A 
ATOM     15  C   UNL     1       4.935   4.870  16.583  0.00  0.00    +0.000 A 
ATOM     16  C   UNL     1       5.367   3.619  16.129  0.00  0.00    +0.000 A 
ATOM     17  C   UNL     1       6.068   3.483  14.937  0.00  0.00    +0.000 A 
BRANCH  12  19
ATOM     18  C   UNL     1       6.690   3.561  12.098  0.00  0.00    +0.000 C 
ATOM     19  O   UNL     1       7.105   4.570  13.021  0.00  0.00    +0.000 OA
ENDBRANCH  12  19
ENDBRANCH   1  15
BRANCH   3  20
ATOM     20  C   UNL     1       2.341   7.283  19.449  0.00  0.00    +0.000 C 
ATOM     21  O   UNL     1       2.418   8.294  18.813  0.00  0.00    +0.000 OA
ATOM     22  N   UNL     1       2.047   7.131  20.781  0.00  0.00    +0.000 N 
ATOM     23  H   UNL     1       1.877   6.189  21.129  0.00  0.00    +0.000 HD
BRANCH  22  24
ATOM     24  C   UNL     1       1.629   8.224  21.583  0.00  0.00    +0.000 C 
BRANCH  24  25
ATOM     25  C   UNL     1       0.204   8.598  21.189  0.00  0.00    +0.000 C 
ATOM     26  O   UNL     1      -0.737   7.805  21.279  0.00  0.00    +0.000 OA
ATOM     27  N   UNL     1       0.044   9.900  20.766  0.00  0.00    +0.000 N 
ATOM     28  C   UNL     1      -1.294  10.398  20.491  0.00  0.00    +0.000 C 
ATOM     29  C   UNL     1      -1.375  10.954  19.071  0.00  0.00    +0.000 C 
ATOM     30  C   UNL     1      -0.278  12.002  18.829  0.00  0.00    +0.000 C 
ATOM     31  C   UNL     1       1.096  11.378  19.142  0.00  0.00    +0.000 C 
ATOM     32  C   UNL     1       1.154  10.822  20.558  0.00  0.00    +0.000 C 
BRANCH  30  33
ATOM     33  C   UNL     1      -0.590  13.248  19.662  0.00  0.00    +0.000 C 
ATOM     34  N   UNL     1      -1.895  13.668  19.679  0.00  0.00    +0.000 N 
ATOM     35  O   UNL     1       0.225  13.847  20.332  0.00  0.00    +0.000 OA
ATOM     36  H   UNL     1      -2.618  13.341  19.059  0.00  0.00    +0.000 HD
ATOM     37  H   UNL     1      -2.075  14.511  20.210  0.00  0.00    +0.000 HD
ENDBRANCH  30  33
ENDBRANCH  24  25
ENDBRANCH  22  24
ENDBRANCH   3  20
TORSDOF 6
ENDMDL
