MODEL 1
REMARK VINA RESULT:      -8.4      0.000      0.000
REMARK  Name = 
REMARK  13 active torsions:
REMARK  status: ('A' for Active; 'I' for Inactive)
REMARK    1  A    between atoms: C_1  and  C_2
REMARK    2  A    between atoms: C_2  and  C_4
REMARK    3  A    between atoms: C_7  and  O_8
REMARK    4  A    between atoms: O_8  and  C_9
REMARK    5  A    between atoms: C_9  and  C_10
REMARK    6  A    between atoms: C_10  and  O_11
REMARK    7  A    between atoms: C_10  and  C_12
REMARK    8  A    between atoms: C_12  and  O_13
REMARK    9  A    between atoms: O_13  and  C_14
REMARK   10  A    between atoms: C_18  and  O_19
REMARK   11  A    between atoms: C_20  and  N_21
REMARK   12  A    between atoms: C_29  and  C_30
REMARK   13  A    between atoms: C_31  and  O_32
REMARK                            x       y       z     vdW  Elec       q    Type
REMARK                         _______ _______ _______ _____ _____    ______ ____
ROOT
ATOM      1  C   UNL     1       1.497   4.063  20.095  0.00  0.00    +0.000 C 
ENDROOT
BRANCH   1   2
ATOM      2  C   UNL     1       2.178   2.727  20.423  0.00  0.00    +0.000 C 
BRANCH   2   3
ATOM      3  O   UNL     1       2.237   2.590  21.852  0.00  0.00    +0.000 OA
ATOM      4  H   UNL     1       3.154   2.394  22.109  0.00  0.00    +0.000 HD
ENDBRANCH   2   3
BRANCH   2   5
ATOM      5  C   UNL     1       3.584   2.643  19.800  0.00  0.00    +0.000 C 
BRANCH   5   6
ATOM      6  O   UNL     1       4.011   3.951  19.404  0.00  0.00    +0.000 OA
BRANCH   6  10
ATOM      7  C   UNL     1       6.031   4.450  15.750  0.00  0.00    +0.000 A 
ATOM      8  C   UNL     1       4.818   3.749  15.788  0.00  0.00    +0.000 A 
ATOM      9  C   UNL     1       4.126   3.566  16.989  0.00  0.00    +0.000 A 
ATOM     10  C   UNL     1       4.630   4.084  18.185  0.00  0.00    +0.000 A 
ATOM     11  C   UNL     1       5.850   4.794  18.175  0.00  0.00    +0.000 A 
ATOM     12  C   UNL     1       6.420   5.362  19.449  0.00  0.00    +0.000 C 
ATOM     13  C   UNL     1       6.540   4.968  16.951  0.00  0.00    +0.000 A 
BRANCH   7  15
ATOM     14  C   UNL     1       6.232   3.779  13.234  0.00  0.00    +0.000 C 
ATOM     15  C   UNL     1       6.695   4.596  14.412  0.00  0.00    +0.000 C 
ATOM     16  O   UNL     1       7.624   5.396  14.283  0.00  0.00    +0.000 OA
ENDBRANCH   7  15
BRANCH  13  17
ATOM     17  O   UNL     1       7.725   5.652  16.933  0.00  0.00    +0.000 OA
ATOM     18  H   UNL     1       8.384   5.207  16.384  0.00  0.00    +0.000 HD
ENDBRANCH  13  17
ENDBRANCH   6  10
ENDBRANCH   5   6
ENDBRANCH   2   5
ENDBRANCH   1   2
BRANCH   1  19
ATOM     19  O   UNL     1       2.081   5.137  20.837  0.00  0.00    +0.000 OA
BRANCH  19  20
ATOM     20  C   UNL     1       1.866   6.399  20.349  0.00  0.00    +0.000 A 
ATOM     21  C   UNL     1       2.424   6.665  19.095  0.00  0.00    +0.000 A 
ATOM     22  C   UNL     1       2.300   7.931  18.494  0.00  0.00    +0.000 A 
ATOM     23  C   UNL     1       1.612   8.966  19.142  0.00  0.00    +0.000 A 
ATOM     24  C   UNL     1       1.453  10.340  18.635  0.00  0.00    +0.000 A 
ATOM     25  C   UNL     1       0.745  11.205  19.375  0.00  0.00    +0.000 A 
ATOM     26  C   UNL     1       0.095  10.911  20.644  0.00  0.00    +0.000 A 
ATOM     27  O   UNL     1      -0.583  11.707  21.279  0.00  0.00    +0.000 OA
ATOM     28  O   UNL     1       0.302   9.618  21.113  0.00  0.00    +0.000 OA
ATOM     29  C   UNL     1       1.044   8.661  20.383  0.00  0.00    +0.000 A 
ATOM     30  C   UNL     1       1.159   7.408  20.990  0.00  0.00    +0.000 A 
BRANCH  25  31
ATOM     31  N   UNL     1       0.633  12.550  18.917  0.00  0.00    +0.000 N 
ATOM     32  O   UNL     1       1.531  13.337  19.246  0.00  0.00    +0.000 OA
ATOM     33  O   UNL     1      -0.353  12.823  18.217  0.00  0.00    +0.000 OA
ENDBRANCH  25  31
BRANCH  24  34
ATOM     34  O   UNL     1       2.046  10.702  17.441  0.00  0.00    +0.000 OA
ATOM     35  H   UNL     1       2.987  10.910  17.551  0.00  0.00    +0.000 HD
ENDBRANCH  24  34
ENDBRANCH  19  20
ENDBRANCH   1  19
TORSDOF 11
ENDMDL
MODEL 2
REMARK VINA RESULT:      -8.4      3.284      8.913
REMARK  Name = 
REMARK  13 active torsions:
REMARK  status: ('A' for Active; 'I' for Inactive)
REMARK    1  A    between atoms: C_1  and  C_2
REMARK    2  A    between atoms: C_2  and  C_4
REMARK    3  A    between atoms: C_7  and  O_8
REMARK    4  A    between atoms: O_8  and  C_9
REMARK    5  A    between atoms: C_9  and  C_10
REMARK    6  A    between atoms: C_10  and  O_11
REMARK    7  A    between atoms: C_10  and  C_12
REMARK    8  A    between atoms: C_12  and  O_13
REMARK    9  A    between atoms: O_13  and  C_14
REMARK   10  A    between atoms: C_18  and  O_19
REMARK   11  A    between atoms: C_20  and  N_21
REMARK   12  A    between atoms: C_29  and  C_30
REMARK   13  A    between atoms: C_31  and  O_32
REMARK                            x       y       z     vdW  Elec       q    Type
REMARK                         _______ _______ _______ _____ _____    ______ ____
ROOT
ATOM      1  C   UNL     1       1.444   8.461  21.812  0.00  0.00    +0.000 C 
ENDROOT
BRANCH   1   2
ATOM      2  C   UNL     1       0.760   9.781  22.198  0.00  0.00    +0.000 C 
BRANCH   2   3
ATOM      3  O   UNL     1      -0.587   9.489  22.604  0.00  0.00    +0.000 OA
ATOM      4  H   UNL     1      -0.611   9.417  23.573  0.00  0.00    +0.000 HD
ENDBRANCH   2   3
BRANCH   2   5
ATOM      5  C   UNL     1       0.783  10.788  21.033  0.00  0.00    +0.000 C 
BRANCH   5   6
ATOM      6  O   UNL     1      -0.501  11.410  20.911  0.00  0.00    +0.000 OA
BRANCH   6  10
ATOM      7  C   UNL     1      -2.766  10.930  17.401  0.00  0.00    +0.000 A 
ATOM      8  C   UNL     1      -1.577  10.207  17.571  0.00  0.00    +0.000 A 
ATOM      9  C   UNL     1      -0.803  10.348  18.726  0.00  0.00    +0.000 A 
ATOM     10  C   UNL     1      -1.202  11.217  19.745  0.00  0.00    +0.000 A 
ATOM     11  C   UNL     1      -2.394  11.958  19.600  0.00  0.00    +0.000 A 
ATOM     12  C   UNL     1      -2.848  12.905  20.681  0.00  0.00    +0.000 C 
ATOM     13  C   UNL     1      -3.164  11.806  18.423  0.00  0.00    +0.000 A 
BRANCH   7  15
ATOM     14  C   UNL     1      -2.856  10.078  14.934  0.00  0.00    +0.000 C 
ATOM     15  C   UNL     1      -3.527  10.706  16.127  0.00  0.00    +0.000 C 
ATOM     16  O   UNL     1      -4.713  11.039  16.067  0.00  0.00    +0.000 OA
ENDBRANCH   7  15
BRANCH  13  17
ATOM     17  O   UNL     1      -4.320  12.523  18.272  0.00  0.00    +0.000 OA
ATOM     18  H   UNL     1      -5.100  11.954  18.309  0.00  0.00    +0.000 HD
ENDBRANCH  13  17
ENDBRANCH   6  10
ENDBRANCH   5   6
ENDBRANCH   2   5
ENDBRANCH   1   2
BRANCH   1  19
ATOM     19  O   UNL     1       1.110   8.078  20.475  0.00  0.00    +0.000 OA
BRANCH  19  20
ATOM     20  C   UNL     1       2.016   7.280  19.829  0.00  0.00    +0.000 A 
ATOM     21  C   UNL     1       2.310   6.066  20.457  0.00  0.00    +0.000 A 
ATOM     22  C   UNL     1       3.244   5.168  19.912  0.00  0.00    +0.000 A 
ATOM     23  C   UNL     1       3.912   5.469  18.717  0.00  0.00    +0.000 A 
ATOM     24  C   UNL     1       4.939   4.632  18.073  0.00  0.00    +0.000 A 
ATOM     25  C   UNL     1       5.466   5.060  16.917  0.00  0.00    +0.000 A 
ATOM     26  C   UNL     1       5.107   6.286  16.217  0.00  0.00    +0.000 A 
ATOM     27  O   UNL     1       5.573   6.633  15.140  0.00  0.00    +0.000 OA
ATOM     28  O   UNL     1       4.168   7.072  16.876  0.00  0.00    +0.000 OA
ATOM     29  C   UNL     1       3.579   6.679  18.099  0.00  0.00    +0.000 A 
ATOM     30  C   UNL     1       2.653   7.579  18.630  0.00  0.00    +0.000 A 
BRANCH  25  31
ATOM     31  N   UNL     1       6.498   4.281  16.317  0.00  0.00    +0.000 N 
ATOM     32  O   UNL     1       6.153   3.421  15.496  0.00  0.00    +0.000 OA
ATOM     33  O   UNL     1       7.661   4.534  16.661  0.00  0.00    +0.000 OA
ENDBRANCH  25  31
BRANCH  24  34
ATOM     34  O   UNL     1       5.341   3.456  18.677  0.00  0.00    +0.000 OA
ATOM     35  H   UNL     1       6.287   3.464  18.893  0.00  0.00    +0.000 HD
ENDBRANCH  24  34
ENDBRANCH  19  20
ENDBRANCH   1  19
TORSDOF 11
ENDMDL
MODEL 3
REMARK VINA RESULT:      -8.3      1.218      1.679
REMARK  Name = 
REMARK  13 active torsions:
REMARK  status: ('A' for Active; 'I' for Inactive)
REMARK    1  A    between atoms: C_1  and  C_2
REMARK    2  A    between atoms: C_2  and  C_4
REMARK    3  A    between atoms: C_7  and  O_8
REMARK    4  A    between atoms: O_8  and  C_9
REMARK    5  A    between atoms: C_9  and  C_10
REMARK    6  A    between atoms: C_10  and  O_11
REMARK    7  A    between atoms: C_10  and  C_12
REMARK    8  A    between atoms: C_12  and  O_13
REMARK    9  A    between atoms: O_13  and  C_14
REMARK   10  A    between atoms: C_18  and  O_19
REMARK   11  A    between atoms: C_20  and  N_21
REMARK   12  A    between atoms: C_29  and  C_30
REMARK   13  A    between atoms: C_31  and  O_32
REMARK                            x       y       z     vdW  Elec       q    Type
REMARK                         _______ _______ _______ _____ _____    ______ ____
ROOT
ATOM      1  C   UNL     1       0.859   4.287  20.434  0.00  0.00    +0.000 C 
ENDROOT
BRANCH   1   2
ATOM      2  C   UNL     1       0.998   2.893  19.806  0.00  0.00    +0.000 C 
BRANCH   2   3
ATOM      3  O   UNL     1       1.887   2.116  20.625  0.00  0.00    +0.000 OA
ATOM      4  H   UNL     1       1.416   1.854  21.434  0.00  0.00    +0.000 HD
ENDBRANCH   2   3
BRANCH   2   5
ATOM      5  C   UNL     1       1.510   2.977  18.356  0.00  0.00    +0.000 C 
BRANCH   5   6
ATOM      6  O   UNL     1       2.862   2.510  18.296  0.00  0.00    +0.000 OA
BRANCH   6  10
ATOM      7  C   UNL     1       5.907   5.189  17.184  0.00  0.00    +0.000 A 
ATOM      8  C   UNL     1       4.845   4.933  16.306  0.00  0.00    +0.000 A 
ATOM      9  C   UNL     1       3.820   4.046  16.648  0.00  0.00    +0.000 A 
ATOM     10  C   UNL     1       3.830   3.393  17.883  0.00  0.00    +0.000 A 
ATOM     11  C   UNL     1       4.888   3.631  18.787  0.00  0.00    +0.000 A 
ATOM     12  C   UNL     1       4.928   2.939  20.125  0.00  0.00    +0.000 C 
ATOM     13  C   UNL     1       5.920   4.530  18.424  0.00  0.00    +0.000 A 
BRANCH   7  15
ATOM     14  C   UNL     1       7.127   7.486  17.420  0.00  0.00    +0.000 C 
ATOM     15  C   UNL     1       6.955   6.160  16.726  0.00  0.00    +0.000 C 
ATOM     16  O   UNL     1       7.681   5.860  15.775  0.00  0.00    +0.000 OA
ENDBRANCH   7  15
BRANCH  13  17
ATOM     17  O   UNL     1       6.951   4.765  19.292  0.00  0.00    +0.000 OA
ATOM     18  H   UNL     1       7.765   4.333  19.003  0.00  0.00    +0.000 HD
ENDBRANCH  13  17
ENDBRANCH   6  10
ENDBRANCH   5   6
ENDBRANCH   2   5
ENDBRANCH   1   2
BRANCH   1  19
ATOM     19  O   UNL     1       2.074   5.031  20.314  0.00  0.00    +0.000 OA
BRANCH  19  20
ATOM     20  C   UNL     1       1.947   6.347  19.955  0.00  0.00    +0.000 A 
ATOM     21  C   UNL     1       2.330   6.657  18.647  0.00  0.00    +0.000 A 
ATOM     22  C   UNL     1       2.274   7.976  18.163  0.00  0.00    +0.000 A 
ATOM     23  C   UNL     1       1.832   9.022  18.984  0.00  0.00    +0.000 A 
ATOM     24  C   UNL     1       1.771  10.444  18.606  0.00  0.00    +0.000 A 
ATOM     25  C   UNL     1       1.302  11.316  19.510  0.00  0.00    +0.000 A 
ATOM     26  C   UNL     1       0.828  10.988  20.848  0.00  0.00    +0.000 A 
ATOM     27  O   UNL     1       0.364  11.797  21.639  0.00  0.00    +0.000 OA
ATOM     28  O   UNL     1       0.942   9.643  21.186  0.00  0.00    +0.000 OA
ATOM     29  C   UNL     1       1.432   8.676  20.280  0.00  0.00    +0.000 A 
ATOM     30  C   UNL     1       1.482   7.370  20.773  0.00  0.00    +0.000 A 
BRANCH  25  31
ATOM     31  N   UNL     1       1.291  12.700  19.169  0.00  0.00    +0.000 N 
ATOM     32  O   UNL     1       2.349  13.327  19.315  0.00  0.00    +0.000 OA
ATOM     33  O   UNL     1       0.222  13.163  18.747  0.00  0.00    +0.000 OA
ENDBRANCH  25  31
BRANCH  24  34
ATOM     34  O   UNL     1       2.209  10.840  17.358  0.00  0.00    +0.000 OA
ATOM     35  H   UNL     1       2.089  11.792  17.215  0.00  0.00    +0.000 HD
ENDBRANCH  24  34
ENDBRANCH  19  20
ENDBRANCH   1  19
TORSDOF 11
ENDMDL
MODEL 4
REMARK VINA RESULT:      -8.0      3.695      9.620
REMARK  Name = 
REMARK  13 active torsions:
REMARK  status: ('A' for Active; 'I' for Inactive)
REMARK    1  A    between atoms: C_1  and  C_2
REMARK    2  A    between atoms: C_2  and  C_4
REMARK    3  A    between atoms: C_7  and  O_8
REMARK    4  A    between atoms: O_8  and  C_9
REMARK    5  A    between atoms: C_9  and  C_10
REMARK    6  A    between atoms: C_10  and  O_11
REMARK    7  A    between atoms: C_10  and  C_12
REMARK    8  A    between atoms: C_12  and  O_13
REMARK    9  A    between atoms: O_13  and  C_14
REMARK   10  A    between atoms: C_18  and  O_19
REMARK   11  A    between atoms: C_20  and  N_21
REMARK   12  A    between atoms: C_29  and  C_30
REMARK   13  A    between atoms: C_31  and  O_32
REMARK                            x       y       z     vdW  Elec       q    Type
REMARK                         _______ _______ _______ _____ _____    ______ ____
ROOT
ATOM      1  C   UNL     1       0.959   9.280  20.229  0.00  0.00    +0.000 C 
ENDROOT
BRANCH   1   2
ATOM      2  C   UNL     1       0.786  10.207  21.441  0.00  0.00    +0.000 C 
BRANCH   2   3
ATOM      3  O   UNL     1       0.600   9.390  22.609  0.00  0.00    +0.000 OA
ATOM      4  H   UNL     1       0.115   8.587  22.352  0.00  0.00    +0.000 HD
ENDBRANCH   2   3
BRANCH   2   5
ATOM      5  C   UNL     1      -0.396  11.174  21.246  0.00  0.00    +0.000 C 
BRANCH   5   6
ATOM      6  O   UNL     1      -0.652  11.343  19.847  0.00  0.00    +0.000 OA
BRANCH   6  10
ATOM      7  C   UNL     1      -4.588  11.955  18.501  0.00  0.00    +0.000 A 
ATOM      8  C   UNL     1      -4.152  12.561  19.688  0.00  0.00    +0.000 A 
ATOM      9  C   UNL     1      -2.850  12.374  20.160  0.00  0.00    +0.000 A 
ATOM     10  C   UNL     1      -1.947  11.576  19.454  0.00  0.00    +0.000 A 
ATOM     11  C   UNL     1      -2.359  10.953  18.256  0.00  0.00    +0.000 A 
ATOM     12  C   UNL     1      -1.409  10.084  17.473  0.00  0.00    +0.000 C 
ATOM     13  C   UNL     1      -3.682  11.150  17.793  0.00  0.00    +0.000 A 
BRANCH   7  15
ATOM     14  C   UNL     1      -7.151  11.916  19.002  0.00  0.00    +0.000 C 
ATOM     15  C   UNL     1      -6.003  12.221  18.076  0.00  0.00    +0.000 C 
ATOM     16  O   UNL     1      -6.217  12.696  16.959  0.00  0.00    +0.000 OA
ENDBRANCH   7  15
BRANCH  13  17
ATOM     17  O   UNL     1      -4.091  10.548  16.635  0.00  0.00    +0.000 OA
ATOM     18  H   UNL     1      -3.844   9.614  16.611  0.00  0.00    +0.000 HD
ENDBRANCH  13  17
ENDBRANCH   6  10
ENDBRANCH   5   6
ENDBRANCH   2   5
ENDBRANCH   1   2
BRANCH   1  19
ATOM     19  O   UNL     1       1.069   7.914  20.635  0.00  0.00    +0.000 OA
BRANCH  19  20
ATOM     20  C   UNL     1       1.985   7.152  19.959  0.00  0.00    +0.000 A 
ATOM     21  C   UNL     1       2.302   5.924  20.547  0.00  0.00    +0.000 A 
ATOM     22  C   UNL     1       3.248   5.059  19.968  0.00  0.00    +0.000 A 
ATOM     23  C   UNL     1       3.905   5.409  18.781  0.00  0.00    +0.000 A 
ATOM     24  C   UNL     1       4.942   4.610  18.106  0.00  0.00    +0.000 A 
ATOM     25  C   UNL     1       5.456   5.084  16.962  0.00  0.00    +0.000 A 
ATOM     26  C   UNL     1       5.073   6.325  16.303  0.00  0.00    +0.000 A 
ATOM     27  O   UNL     1       5.527   6.715  15.236  0.00  0.00    +0.000 OA
ATOM     28  O   UNL     1       4.124   7.074  16.991  0.00  0.00    +0.000 OA
ATOM     29  C   UNL     1       3.548   6.632  18.203  0.00  0.00    +0.000 A 
ATOM     30  C   UNL     1       2.610   7.500  18.767  0.00  0.00    +0.000 A 
BRANCH  25  31
ATOM     31  N   UNL     1       6.498   4.342  16.332  0.00  0.00    +0.000 N 
ATOM     32  O   UNL     1       7.659   4.583  16.690  0.00  0.00    +0.000 OA
ATOM     33  O   UNL     1       6.156   3.509  15.481  0.00  0.00    +0.000 OA
ENDBRANCH  25  31
BRANCH  24  34
ATOM     34  O   UNL     1       5.367   3.423  18.670  0.00  0.00    +0.000 OA
ATOM     35  H   UNL     1       4.636   2.931  19.076  0.00  0.00    +0.000 HD
ENDBRANCH  24  34
ENDBRANCH  19  20
ENDBRANCH   1  19
TORSDOF 11
ENDMDL
MODEL 5
REMARK VINA RESULT:      -7.9      3.632      9.574
REMARK  Name = 
REMARK  13 active torsions:
REMARK  status: ('A' for Active; 'I' for Inactive)
REMARK    1  A    between atoms: C_1  and  C_2
REMARK    2  A    between atoms: C_2  and  C_4
REMARK    3  A    between atoms: C_7  and  O_8
REMARK    4  A    between atoms: O_8  and  C_9
REMARK    5  A    between atoms: C_9  and  C_10
REMARK    6  A    between atoms: C_10  and  O_11
REMARK    7  A    between atoms: C_10  and  C_12
REMARK    8  A    between atoms: C_12  and  O_13
REMARK    9  A    between atoms: O_13  and  C_14
REMARK   10  A    between atoms: C_18  and  O_19
REMARK   11  A    between atoms: C_20  and  N_21
REMARK   12  A    between atoms: C_29  and  C_30
REMARK   13  A    between atoms: C_31  and  O_32
REMARK                            x       y       z     vdW  Elec       q    Type
REMARK                         _______ _______ _______ _____ _____    ______ ____
ROOT
ATOM      1  C   UNL     1       1.476   8.564  21.642  0.00  0.00    +0.000 C 
ENDROOT
BRANCH   1   2
ATOM      2  C   UNL     1       1.021   9.968  21.218  0.00  0.00    +0.000 C 
BRANCH   2   3
ATOM      3  O   UNL     1       0.302  10.558  22.313  0.00  0.00    +0.000 OA
ATOM      4  H   UNL     1      -0.651  10.496  22.129  0.00  0.00    +0.000 HD
ENDBRANCH   2   3
BRANCH   2   5
ATOM      5  C   UNL     1       0.154   9.919  19.946  0.00  0.00    +0.000 C 
BRANCH   5   6
ATOM      6  O   UNL     1      -0.377  11.221  19.676  0.00  0.00    +0.000 OA
BRANCH   6  10
ATOM      7  C   UNL     1      -4.336  11.603  18.313  0.00  0.00    +0.000 A 
ATOM      8  C   UNL     1      -3.474  10.677  17.708  0.00  0.00    +0.000 A 
ATOM      9  C   UNL     1      -2.152  10.530  18.139  0.00  0.00    +0.000 A 
ATOM     10  C   UNL     1      -1.659  11.306  19.192  0.00  0.00    +0.000 A 
ATOM     11  C   UNL     1      -2.505  12.246  19.818  0.00  0.00    +0.000 A 
ATOM     12  C   UNL     1      -2.001  13.099  20.954  0.00  0.00    +0.000 C 
ATOM     13  C   UNL     1      -3.839  12.385  19.367  0.00  0.00    +0.000 A 
BRANCH   7  15
ATOM     14  C   UNL     1      -6.834  10.844  18.383  0.00  0.00    +0.000 C 
ATOM     15  C   UNL     1      -5.737  11.682  17.781  0.00  0.00    +0.000 C 
ATOM     16  O   UNL     1      -5.984  12.446  16.844  0.00  0.00    +0.000 OA
ENDBRANCH   7  15
BRANCH  13  17
ATOM     17  O   UNL     1      -4.666  13.296  19.967  0.00  0.00    +0.000 OA
ATOM     18  H   UNL     1      -5.363  12.863  20.478  0.00  0.00    +0.000 HD
ENDBRANCH  13  17
ENDBRANCH   6  10
ENDBRANCH   5   6
ENDBRANCH   2   5
ENDBRANCH   1   2
BRANCH   1  19
ATOM     19  O   UNL     1       1.001   7.570  20.730  0.00  0.00    +0.000 OA
BRANCH  19  20
ATOM     20  C   UNL     1       1.958   6.861  20.054  0.00  0.00    +0.000 A 
ATOM     21  C   UNL     1       2.316   5.635  20.621  0.00  0.00    +0.000 A 
ATOM     22  C   UNL     1       3.306   4.822  20.039  0.00  0.00    +0.000 A 
ATOM     23  C   UNL     1       3.965   5.224  18.870  0.00  0.00    +0.000 A 
ATOM     24  C   UNL     1       5.045   4.483  18.195  0.00  0.00    +0.000 A 
ATOM     25  C   UNL     1       5.555   5.002  17.069  0.00  0.00    +0.000 A 
ATOM     26  C   UNL     1       5.132   6.240  16.430  0.00  0.00    +0.000 A 
ATOM     27  O   UNL     1       5.585   6.671  15.378  0.00  0.00    +0.000 OA
ATOM     28  O   UNL     1       4.142   6.935  17.118  0.00  0.00    +0.000 OA
ATOM     29  C   UNL     1       3.567   6.444  18.312  0.00  0.00    +0.000 A 
ATOM     30  C   UNL     1       2.585   7.259  18.879  0.00  0.00    +0.000 A 
BRANCH  25  31
ATOM     31  N   UNL     1       6.637   4.318  16.441  0.00  0.00    +0.000 N 
ATOM     32  O   UNL     1       6.371   3.640  15.438  0.00  0.00    +0.000 OA
ATOM     33  O   UNL     1       7.759   4.462  16.945  0.00  0.00    +0.000 OA
ENDBRANCH  25  31
BRANCH  24  34
ATOM     34  O   UNL     1       5.510   3.303  18.741  0.00  0.00    +0.000 OA
ATOM     35  H   UNL     1       4.913   2.559  18.562  0.00  0.00    +0.000 HD
ENDBRANCH  24  34
ENDBRANCH  19  20
ENDBRANCH   1  19
TORSDOF 11
ENDMDL
MODEL 6
REMARK VINA RESULT:      -7.9      1.093      1.426
REMARK  Name = 
REMARK  13 active torsions:
REMARK  status: ('A' for Active; 'I' for Inactive)
REMARK    1  A    between atoms: C_1  and  C_2
REMARK    2  A    between atoms: C_2  and  C_4
REMARK    3  A    between atoms: C_7  and  O_8
REMARK    4  A    between atoms: O_8  and  C_9
REMARK    5  A    between atoms: C_9  and  C_10
REMARK    6  A    between atoms: C_10  and  O_11
REMARK    7  A    between atoms: C_10  and  C_12
REMARK    8  A    between atoms: C_12  and  O_13
REMARK    9  A    between atoms: O_13  and  C_14
REMARK   10  A    between atoms: C_18  and  O_19
REMARK   11  A    between atoms: C_20  and  N_21
REMARK   12  A    between atoms: C_29  and  C_30
REMARK   13  A    between atoms: C_31  and  O_32
REMARK                            x       y       z     vdW  Elec       q    Type
REMARK                         _______ _______ _______ _____ _____    ______ ____
ROOT
ATOM      1  C   UNL     1       1.605   4.614  21.197  0.00  0.00    +0.000 C 
ENDROOT
BRANCH   1   2
ATOM      2  C   UNL     1       1.237   3.131  21.040  0.00  0.00    +0.000 C 
BRANCH   2   3
ATOM      3  O   UNL     1       2.201   2.349  21.764  0.00  0.00    +0.000 OA
ATOM      4  H   UNL     1       3.052   2.820  21.757  0.00  0.00    +0.000 HD
ENDBRANCH   2   3
BRANCH   2   5
ATOM      5  C   UNL     1       1.187   2.717  19.558  0.00  0.00    +0.000 C 
BRANCH   5   6
ATOM      6  O   UNL     1       2.438   2.132  19.180  0.00  0.00    +0.000 OA
BRANCH   6  10
ATOM      7  C   UNL     1       5.090   4.340  16.778  0.00  0.00    +0.000 A 
ATOM      8  C   UNL     1       3.795   4.061  16.318  0.00  0.00    +0.000 A 
ATOM      9  C   UNL     1       2.893   3.328  17.094  0.00  0.00    +0.000 A 
ATOM     10  C   UNL     1       3.264   2.856  18.356  0.00  0.00    +0.000 A 
ATOM     11  C   UNL     1       4.561   3.121  18.844  0.00  0.00    +0.000 A 
ATOM     12  C   UNL     1       4.990   2.622  20.200  0.00  0.00    +0.000 C 
ATOM     13  C   UNL     1       5.464   3.862  18.045  0.00  0.00    +0.000 A 
BRANCH   7  15
ATOM     14  C   UNL     1       6.334   4.627  14.500  0.00  0.00    +0.000 C 
ATOM     15  C   UNL     1       5.982   5.138  15.873  0.00  0.00    +0.000 C 
ATOM     16  O   UNL     1       6.424   6.221  16.263  0.00  0.00    +0.000 OA
ENDBRANCH   7  15
BRANCH  13  17
ATOM     17  O   UNL     1       6.724   4.121  18.508  0.00  0.00    +0.000 OA
ATOM     18  H   UNL     1       7.401   3.820  17.888  0.00  0.00    +0.000 HD
ENDBRANCH  13  17
ENDBRANCH   6  10
ENDBRANCH   5   6
ENDBRANCH   2   5
ENDBRANCH   1   2
BRANCH   1  19
ATOM     19  O   UNL     1       2.282   5.103  20.036  0.00  0.00    +0.000 OA
BRANCH  19  20
ATOM     20  C   UNL     1       2.097   6.427  19.739  0.00  0.00    +0.000 A 
ATOM     21  C   UNL     1       2.477   6.817  18.452  0.00  0.00    +0.000 A 
ATOM     22  C   UNL     1       2.364   8.154  18.030  0.00  0.00    +0.000 A 
ATOM     23  C   UNL     1       1.866   9.138  18.895  0.00  0.00    +0.000 A 
ATOM     24  C   UNL     1       1.742  10.572  18.584  0.00  0.00    +0.000 A 
ATOM     25  C   UNL     1       1.225  11.377  19.523  0.00  0.00    +0.000 A 
ATOM     26  C   UNL     1       0.754  10.963  20.838  0.00  0.00    +0.000 A 
ATOM     27  O   UNL     1       0.246  11.712  21.661  0.00  0.00    +0.000 OA
ATOM     28  O   UNL     1       0.928   9.611  21.113  0.00  0.00    +0.000 OA
ATOM     29  C   UNL     1       1.471   8.712  20.168  0.00  0.00    +0.000 A 
ATOM     30  C   UNL     1       1.578   7.388  20.599  0.00  0.00    +0.000 A 
BRANCH  25  31
ATOM     31  N   UNL     1       1.152  12.774  19.248  0.00  0.00    +0.000 N 
ATOM     32  O   UNL     1       2.105  13.474  19.618  0.00  0.00    +0.000 OA
ATOM     33  O   UNL     1       0.142  13.175  18.653  0.00  0.00    +0.000 OA
ENDBRANCH  25  31
BRANCH  24  34
ATOM     34  O   UNL     1       2.174  11.047  17.361  0.00  0.00    +0.000 OA
ATOM     35  H   UNL     1       3.034  11.490  17.425  0.00  0.00    +0.000 HD
ENDBRANCH  24  34
ENDBRANCH  19  20
ENDBRANCH   1  19
TORSDOF 11
ENDMDL
MODEL 7
REMARK VINA RESULT:      -7.9      3.722     10.323
REMARK  Name = 
REMARK  13 active torsions:
REMARK  status: ('A' for Active; 'I' for Inactive)
REMARK    1  A    between atoms: C_1  and  C_2
REMARK    2  A    between atoms: C_2  and  C_4
REMARK    3  A    between atoms: C_7  and  O_8
REMARK    4  A    between atoms: O_8  and  C_9
REMARK    5  A    between atoms: C_9  and  C_10
REMARK    6  A    between atoms: C_10  and  O_11
REMARK    7  A    between atoms: C_10  and  C_12
REMARK    8  A    between atoms: C_12  and  O_13
REMARK    9  A    between atoms: O_13  and  C_14
REMARK   10  A    between atoms: C_18  and  O_19
REMARK   11  A    between atoms: C_20  and  N_21
REMARK   12  A    between atoms: C_29  and  C_30
REMARK   13  A    between atoms: C_31  and  O_32
REMARK                            x       y       z     vdW  Elec       q    Type
REMARK                         _______ _______ _______ _____ _____    ______ ____
ROOT
ATOM      1  C   UNL     1       0.819   8.911  20.565  0.00  0.00    +0.000 C 
ENDROOT
BRANCH   1   2
ATOM      2  C   UNL     1       1.071   9.856  21.749  0.00  0.00    +0.000 C 
BRANCH   2   3
ATOM      3  O   UNL     1       1.942   9.191  22.678  0.00  0.00    +0.000 OA
ATOM      4  H   UNL     1       1.821   8.231  22.585  0.00  0.00    +0.000 HD
ENDBRANCH   2   3
BRANCH   2   5
ATOM      5  C   UNL     1      -0.248  10.273  22.426  0.00  0.00    +0.000 C 
BRANCH   5   6
ATOM      6  O   UNL     1      -0.516  11.651  22.146  0.00  0.00    +0.000 OA
BRANCH   6  10
ATOM      7  C   UNL     1      -4.512  12.954  22.017  0.00  0.00    +0.000 A 
ATOM      8  C   UNL     1      -3.936  12.582  23.240  0.00  0.00    +0.000 A 
ATOM      9  C   UNL     1      -2.611  12.144  23.312  0.00  0.00    +0.000 A 
ATOM     10  C   UNL     1      -1.824  12.069  22.160  0.00  0.00    +0.000 A 
ATOM     11  C   UNL     1      -2.378  12.436  20.915  0.00  0.00    +0.000 A 
ATOM     12  C   UNL     1      -1.556  12.362  19.654  0.00  0.00    +0.000 C 
ATOM     13  C   UNL     1      -3.723  12.875  20.858  0.00  0.00    +0.000 A 
BRANCH   7  15
ATOM     14  C   UNL     1      -6.926  12.795  22.999  0.00  0.00    +0.000 C 
ATOM     15  C   UNL     1      -5.940  13.415  22.044  0.00  0.00    +0.000 C 
ATOM     16  O   UNL     1      -6.299  14.311  21.278  0.00  0.00    +0.000 OA
ENDBRANCH   7  15
BRANCH  13  17
ATOM     17  O   UNL     1      -4.269  13.230  19.655  0.00  0.00    +0.000 OA
ATOM     18  H   UNL     1      -3.593  13.511  19.025  0.00  0.00    +0.000 HD
ENDBRANCH  13  17
ENDBRANCH   6  10
ENDBRANCH   5   6
ENDBRANCH   2   5
ENDBRANCH   1   2
BRANCH   1  19
ATOM     19  O   UNL     1       1.014   7.546  20.943  0.00  0.00    +0.000 OA
BRANCH  19  20
ATOM     20  C   UNL     1       1.930   6.838  20.211  0.00  0.00    +0.000 A 
ATOM     21  C   UNL     1       2.255   5.573  20.709  0.00  0.00    +0.000 A 
ATOM     22  C   UNL     1       3.202   4.756  20.066  0.00  0.00    +0.000 A 
ATOM     23  C   UNL     1       3.851   5.192  18.904  0.00  0.00    +0.000 A 
ATOM     24  C   UNL     1       4.889   4.448  18.169  0.00  0.00    +0.000 A 
ATOM     25  C   UNL     1       5.395   5.004  17.059  0.00  0.00    +0.000 A 
ATOM     26  C   UNL     1       5.004   6.287  16.492  0.00  0.00    +0.000 A 
ATOM     27  O   UNL     1       5.451   6.753  15.453  0.00  0.00    +0.000 OA
ATOM     28  O   UNL     1       4.055   6.981  17.235  0.00  0.00    +0.000 OA
ATOM     29  C   UNL     1       3.487   6.451  18.416  0.00  0.00    +0.000 A 
ATOM     30  C   UNL     1       2.547   7.272  19.044  0.00  0.00    +0.000 A 
BRANCH  25  31
ATOM     31  N   UNL     1       6.437   4.313  16.374  0.00  0.00    +0.000 N 
ATOM     32  O   UNL     1       7.601   4.552  16.725  0.00  0.00    +0.000 OA
ATOM     33  O   UNL     1       6.093   3.522  15.485  0.00  0.00    +0.000 OA
ENDBRANCH  25  31
BRANCH  24  34
ATOM     34  O   UNL     1       5.322   3.225  18.646  0.00  0.00    +0.000 OA
ATOM     35  H   UNL     1       4.867   2.485  18.214  0.00  0.00    +0.000 HD
ENDBRANCH  24  34
ENDBRANCH  19  20
ENDBRANCH   1  19
TORSDOF 11
ENDMDL
MODEL 8
REMARK VINA RESULT:      -7.9      1.479      2.128
REMARK  Name = 
REMARK  13 active torsions:
REMARK  status: ('A' for Active; 'I' for Inactive)
REMARK    1  A    between atoms: C_1  and  C_2
REMARK    2  A    between atoms: C_2  and  C_4
REMARK    3  A    between atoms: C_7  and  O_8
REMARK    4  A    between atoms: O_8  and  C_9
REMARK    5  A    between atoms: C_9  and  C_10
REMARK    6  A    between atoms: C_10  and  O_11
REMARK    7  A    between atoms: C_10  and  C_12
REMARK    8  A    between atoms: C_12  and  O_13
REMARK    9  A    between atoms: O_13  and  C_14
REMARK   10  A    between atoms: C_18  and  O_19
REMARK   11  A    between atoms: C_20  and  N_21
REMARK   12  A    between atoms: C_29  and  C_30
REMARK   13  A    between atoms: C_31  and  O_32
REMARK                            x       y       z     vdW  Elec       q    Type
REMARK                         _______ _______ _______ _____ _____    ______ ____
ROOT
ATOM      1  C   UNL     1       2.183   5.379  18.797  0.00  0.00    +0.000 C 
ENDROOT
BRANCH   1   2
ATOM      2  C   UNL     1       3.190   4.699  19.736  0.00  0.00    +0.000 C 
BRANCH   2   3
ATOM      3  O   UNL     1       2.698   4.812  21.081  0.00  0.00    +0.000 OA
ATOM      4  H   UNL     1       3.400   5.192  21.638  0.00  0.00    +0.000 HD
ENDBRANCH   2   3
BRANCH   2   5
ATOM      5  C   UNL     1       4.592   5.321  19.603  0.00  0.00    +0.000 C 
BRANCH   5   6
ATOM      6  O   UNL     1       5.505   4.344  19.090  0.00  0.00    +0.000 OA
BRANCH   6  10
ATOM      7  C   UNL     1       6.162   4.261  14.937  0.00  0.00    +0.000 A 
ATOM      8  C   UNL     1       5.163   3.457  15.504  0.00  0.00    +0.000 A 
ATOM      9  C   UNL     1       4.924   3.463  16.881  0.00  0.00    +0.000 A 
ATOM     10  C   UNL     1       5.678   4.278  17.729  0.00  0.00    +0.000 A 
ATOM     11  C   UNL     1       6.691   5.098  17.185  0.00  0.00    +0.000 A 
ATOM     12  C   UNL     1       7.523   5.985  18.075  0.00  0.00    +0.000 C 
ATOM     13  C   UNL     1       6.923   5.077  15.789  0.00  0.00    +0.000 A 
BRANCH   7  15
ATOM     14  C   UNL     1       5.346   3.439  12.597  0.00  0.00    +0.000 C 
ATOM     15  C   UNL     1       6.338   4.187  13.449  0.00  0.00    +0.000 C 
ATOM     16  O   UNL     1       7.304   4.748  12.927  0.00  0.00    +0.000 OA
ENDBRANCH   7  15
BRANCH  13  17
ATOM     17  O   UNL     1       7.904   5.866  15.254  0.00  0.00    +0.000 OA
ATOM     18  H   UNL     1       8.469   5.369  14.647  0.00  0.00    +0.000 HD
ENDBRANCH  13  17
ENDBRANCH   6  10
ENDBRANCH   5   6
ENDBRANCH   2   5
ENDBRANCH   1   2
BRANCH   1  19
ATOM     19  O   UNL     1       2.700   6.612  18.290  0.00  0.00    +0.000 OA
BRANCH  19  20
ATOM     20  C   UNL     1       2.116   7.756  18.767  0.00  0.00    +0.000 A 
ATOM     21  C   UNL     1       1.994   8.801  17.847  0.00  0.00    +0.000 A 
ATOM     22  C   UNL     1       1.436  10.038  18.216  0.00  0.00    +0.000 A 
ATOM     23  C   UNL     1       0.987  10.258  19.525  0.00  0.00    +0.000 A 
ATOM     24  C   UNL     1       0.428  11.520  20.041  0.00  0.00    +0.000 A 
ATOM     25  C   UNL     1       0.027  11.554  21.320  0.00  0.00    +0.000 A 
ATOM     26  C   UNL     1       0.080  10.445  22.261  0.00  0.00    +0.000 A 
ATOM     27  O   UNL     1      -0.333  10.489  23.412  0.00  0.00    +0.000 OA
ATOM     28  O   UNL     1       0.653   9.284  21.754  0.00  0.00    +0.000 OA
ATOM     29  C   UNL     1       1.100   9.186  20.416  0.00  0.00    +0.000 A 
ATOM     30  C   UNL     1       1.651   7.952  20.062  0.00  0.00    +0.000 A 
BRANCH  25  31
ATOM     31  N   UNL     1      -0.465  12.787  21.839  0.00  0.00    +0.000 N 
ATOM     32  O   UNL     1      -1.682  12.996  21.745  0.00  0.00    +0.000 OA
ATOM     33  O   UNL     1       0.367  13.550  22.352  0.00  0.00    +0.000 OA
ENDBRANCH  25  31
BRANCH  24  34
ATOM     34  O   UNL     1       0.351  12.623  19.213  0.00  0.00    +0.000 OA
ATOM     35  H   UNL     1      -0.552  12.774  18.892  0.00  0.00    +0.000 HD
ENDBRANCH  24  34
ENDBRANCH  19  20
ENDBRANCH   1  19
TORSDOF 11
ENDMDL
MODEL 9
REMARK VINA RESULT:      -7.8      3.724     10.523
REMARK  Name = 
REMARK  13 active torsions:
REMARK  status: ('A' for Active; 'I' for Inactive)
REMARK    1  A    between atoms: C_1  and  C_2
REMARK    2  A    between atoms: C_2  and  C_4
REMARK    3  A    between atoms: C_7  and  O_8
REMARK    4  A    between atoms: O_8  and  C_9
REMARK    5  A    between atoms: C_9  and  C_10
REMARK    6  A    between atoms: C_10  and  O_11
REMARK    7  A    between atoms: C_10  and  C_12
REMARK    8  A    between atoms: C_12  and  O_13
REMARK    9  A    between atoms: O_13  and  C_14
REMARK   10  A    between atoms: C_18  and  O_19
REMARK   11  A    between atoms: C_20  and  N_21
REMARK   12  A    between atoms: C_29  and  C_30
REMARK   13  A    between atoms: C_31  and  O_32
REMARK                            x       y       z     vdW  Elec       q    Type
REMARK                         _______ _______ _______ _____ _____    ______ ____
ROOT
ATOM      1  C   UNL     1      -0.134   9.802  19.834  0.00  0.00    +0.000 C 
ENDROOT
BRANCH   1   2
ATOM      2  C   UNL     1      -0.933  10.665  18.847  0.00  0.00    +0.000 C 
BRANCH   2   3
ATOM      3  O   UNL     1      -0.557  10.289  17.512  0.00  0.00    +0.000 OA
ATOM      4  H   UNL     1       0.328   9.887  17.540  0.00  0.00    +0.000 HD
ENDBRANCH   2   3
BRANCH   2   5
ATOM      5  C   UNL     1      -0.691  12.167  19.090  0.00  0.00    +0.000 C 
BRANCH   5   6
ATOM      6  O   UNL     1      -0.811  12.452  20.488  0.00  0.00    +0.000 OA
BRANCH   6  10
ATOM      7  C   UNL     1      -4.611  13.048  22.185  0.00  0.00    +0.000 A 
ATOM      8  C   UNL     1      -4.344  13.508  20.888  0.00  0.00    +0.000 A 
ATOM      9  C   UNL     1      -3.089  13.326  20.300  0.00  0.00    +0.000 A 
ATOM     10  C   UNL     1      -2.068  12.674  20.995  0.00  0.00    +0.000 A 
ATOM     11  C   UNL     1      -2.309  12.201  22.302  0.00  0.00    +0.000 A 
ATOM     12  C   UNL     1      -1.226  11.497  23.078  0.00  0.00    +0.000 C 
ATOM     13  C   UNL     1      -3.584  12.397  22.885  0.00  0.00    +0.000 A 
BRANCH   7  15
ATOM     14  C   UNL     1      -7.206  12.905  21.924  0.00  0.00    +0.000 C 
ATOM     15  C   UNL     1      -5.990  13.289  22.727  0.00  0.00    +0.000 C 
ATOM     16  O   UNL     1      -6.120  13.803  23.840  0.00  0.00    +0.000 OA
ENDBRANCH   7  15
BRANCH  13  17
ATOM     17  O   UNL     1      -3.826  11.944  24.154  0.00  0.00    +0.000 OA
ATOM     18  H   UNL     1      -3.359  12.472  24.815  0.00  0.00    +0.000 HD
ENDBRANCH  13  17
ENDBRANCH   6  10
ENDBRANCH   5   6
ENDBRANCH   2   5
ENDBRANCH   1   2
BRANCH   1  19
ATOM     19  O   UNL     1       1.245   9.732  19.459  0.00  0.00    +0.000 OA
BRANCH  19  20
ATOM     20  C   UNL     1       1.786   8.476  19.368  0.00  0.00    +0.000 A 
ATOM     21  C   UNL     1       2.540   8.225  18.219  0.00  0.00    +0.000 A 
ATOM     22  C   UNL     1       3.127   6.967  17.990  0.00  0.00    +0.000 A 
ATOM     23  C   UNL     1       2.968   5.925  18.914  0.00  0.00    +0.000 A 
ATOM     24  C   UNL     1       3.495   4.558  18.766  0.00  0.00    +0.000 A 
ATOM     25  C   UNL     1       3.267   3.685  19.757  0.00  0.00    +0.000 A 
ATOM     26  C   UNL     1       2.549   3.964  20.993  0.00  0.00    +0.000 A 
ATOM     27  O   UNL     1       2.392   3.160  21.902  0.00  0.00    +0.000 OA
ATOM     28  O   UNL     1       2.028   5.250  21.079  0.00  0.00    +0.000 OA
ATOM     29  C   UNL     1       2.229   6.215  20.066  0.00  0.00    +0.000 A 
ATOM     30  C   UNL     1       1.641   7.460  20.305  0.00  0.00    +0.000 A 
BRANCH  25  31
ATOM     31  N   UNL     1       3.728   2.345  19.595  0.00  0.00    +0.000 N 
ATOM     32  O   UNL     1       3.042   1.592  18.892  0.00  0.00    +0.000 OA
ATOM     33  O   UNL     1       4.786   2.045  20.167  0.00  0.00    +0.000 OA
ENDBRANCH  25  31
BRANCH  24  34
ATOM     34  O   UNL     1       4.181   4.210  17.618  0.00  0.00    +0.000 OA
ATOM     35  H   UNL     1       3.747   3.486  17.140  0.00  0.00    +0.000 HD
ENDBRANCH  24  34
ENDBRANCH  19  20
ENDBRANCH   1  19
TORSDOF 11
ENDMDL
