MODEL 1
REMARK VINA RESULT:      -7.8      0.000      0.000
REMARK  Name = 
REMARK  9 active torsions:
REMARK  status: ('A' for Active; 'I' for Inactive)
REMARK    1  A    between atoms: C_1  and  O_2
REMARK    2  A    between atoms: O_2  and  C_3
REMARK    3  A    between atoms: C_6  and  C_7
REMARK    4  A    between atoms: C_7  and  C_8
REMARK    5  A    between atoms: C_8  and  N_9
REMARK    6  A    between atoms: C_10  and  C_12
REMARK    7  A    between atoms: C_12  and  N_13
REMARK    8  A    between atoms: N_13  and  S_14
REMARK    9  A    between atoms: S_14  and  C_17
REMARK                            x       y       z     vdW  Elec       q    Type
REMARK                         _______ _______ _______ _____ _____    ______ ____
ROOT
ATOM      1  N   UNL     1       7.705   6.853  18.079  0.00  0.00    +0.000 N 
ATOM      2  C   UNL     1       7.708   5.599  18.665  0.00  0.00    +0.000 C 
ATOM      3  O   UNL     1       8.321   5.350  19.698  0.00  0.00    +0.000 OA
ATOM      4  H   UNL     1       7.204   7.004  17.213  0.00  0.00    +0.000 HD
ENDROOT
BRANCH   1   5
ATOM      5  C   UNL     1       8.388   7.990  18.679  0.00  0.00    +0.000 C 
BRANCH   5   6
ATOM      6  C   UNL     1       8.177   9.285  17.890  0.00  0.00    +0.000 C 
BRANCH   6  10
ATOM      7  C   UNL     1      10.238  12.668  19.640  0.00  0.00    +0.000 A 
ATOM      8  C   UNL     1       9.668  12.761  18.370  0.00  0.00    +0.000 A 
ATOM      9  C   UNL     1       8.998  11.670  17.807  0.00  0.00    +0.000 A 
ATOM     10  C   UNL     1       8.899  10.460  18.505  0.00  0.00    +0.000 A 
ATOM     11  C   UNL     1       9.499  10.362  19.769  0.00  0.00    +0.000 A 
ATOM     12  C   UNL     1      10.163  11.461  20.333  0.00  0.00    +0.000 A 
BRANCH   7  14
ATOM     13  C   UNL     1      12.072  14.142  19.398  0.00  0.00    +0.000 C 
ATOM     14  O   UNL     1      10.872  13.798  20.079  0.00  0.00    +0.000 OA
ENDBRANCH   7  14
ENDBRANCH   6  10
ENDBRANCH   5   6
ENDBRANCH   1   5
BRANCH   2  15
ATOM     15  C   UNL     1       6.869   4.558  17.921  0.00  0.00    +0.000 C 
BRANCH  15  16
ATOM     16  N   UNL     1       6.893   4.785  16.472  0.00  0.00    +0.000 NA
ATOM     17  H   UNL     1       7.449   4.152  15.896  0.00  0.00    +0.000 HD
BRANCH  16  18
ATOM     18  S   UNL     1       5.503   5.353  15.736  0.00  0.00    +0.000 S 
ATOM     19  O   UNL     1       5.616   6.794  15.686  0.00  0.00    +0.000 OA
ATOM     20  O   UNL     1       5.281   4.562  14.548  0.00  0.00    +0.000 OA
BRANCH  18  21
ATOM     21  C   UNL     1       4.245   4.959  16.927  0.00  0.00    +0.000 A 
ATOM     22  C   UNL     1       3.741   5.968  17.754  0.00  0.00    +0.000 A 
ATOM     23  C   UNL     1       2.769   5.655  18.707  0.00  0.00    +0.000 A 
ATOM     24  C   UNL     1       2.303   4.344  18.818  0.00  0.00    +0.000 A 
ATOM     25 BR   UNL     1       1.018   3.913  20.136  0.00  0.00    +0.000 Br
ATOM     26  C   UNL     1       2.783   3.344  17.970  0.00  0.00    +0.000 A 
ATOM     27  C   UNL     1       3.756   3.651  17.017  0.00  0.00    +0.000 A 
ENDBRANCH  18  21
ENDBRANCH  16  18
ENDBRANCH  15  16
ENDBRANCH   2  15
TORSDOF 8
ENDMDL
MODEL 2
REMARK VINA RESULT:      -7.5      1.665      2.074
REMARK  Name = 
REMARK  9 active torsions:
REMARK  status: ('A' for Active; 'I' for Inactive)
REMARK    1  A    between atoms: C_1  and  O_2
REMARK    2  A    between atoms: O_2  and  C_3
REMARK    3  A    between atoms: C_6  and  C_7
REMARK    4  A    between atoms: C_7  and  C_8
REMARK    5  A    between atoms: C_8  and  N_9
REMARK    6  A    between atoms: C_10  and  C_12
REMARK    7  A    between atoms: C_12  and  N_13
REMARK    8  A    between atoms: N_13  and  S_14
REMARK    9  A    between atoms: S_14  and  C_17
REMARK                            x       y       z     vdW  Elec       q    Type
REMARK                         _______ _______ _______ _____ _____    ______ ____
ROOT
ATOM      1  N   UNL     1       7.775   7.054  17.908  0.00  0.00    +0.000 N 
ATOM      2  C   UNL     1       7.735   5.767  18.413  0.00  0.00    +0.000 C 
ATOM      3  O   UNL     1       8.249   5.457  19.483  0.00  0.00    +0.000 OA
ATOM      4  H   UNL     1       7.357   7.257  17.009  0.00  0.00    +0.000 HD
ENDROOT
BRANCH   1   5
ATOM      5  C   UNL     1       8.383   8.155  18.641  0.00  0.00    +0.000 C 
BRANCH   5   6
ATOM      6  C   UNL     1       8.275   9.488  17.895  0.00  0.00    +0.000 C 
BRANCH   6  10
ATOM      7  C   UNL     1      10.609  12.635  19.738  0.00  0.00    +0.000 A 
ATOM      8  C   UNL     1      10.245  12.714  18.394  0.00  0.00    +0.000 A 
ATOM      9  C   UNL     1       9.487  11.700  17.800  0.00  0.00    +0.000 A 
ATOM     10  C   UNL     1       9.091  10.581  18.543  0.00  0.00    +0.000 A 
ATOM     11  C   UNL     1       9.484  10.493  19.886  0.00  0.00    +0.000 A 
ATOM     12  C   UNL     1      10.239  11.516  20.480  0.00  0.00    +0.000 A 
BRANCH   7  14
ATOM     13  C   UNL     1      10.881  14.982  19.867  0.00  0.00    +0.000 C 
ATOM     14  O   UNL     1      11.357  13.684  20.202  0.00  0.00    +0.000 OA
ENDBRANCH   7  14
ENDBRANCH   6  10
ENDBRANCH   5   6
ENDBRANCH   1   5
BRANCH   2  15
ATOM     15  C   UNL     1       6.983   4.769  17.529  0.00  0.00    +0.000 C 
BRANCH  15  16
ATOM     16  N   UNL     1       5.944   4.062  18.285  0.00  0.00    +0.000 NA
ATOM     17  H   UNL     1       5.962   4.127  19.303  0.00  0.00    +0.000 HD
BRANCH  16  18
ATOM     18  S   UNL     1       4.411   3.965  17.622  0.00  0.00    +0.000 S 
ATOM     19  O   UNL     1       4.508   4.464  16.268  0.00  0.00    +0.000 OA
ATOM     20  O   UNL     1       3.889   2.650  17.917  0.00  0.00    +0.000 OA
BRANCH  18  21
ATOM     21  C   UNL     1       3.503   5.163  18.568  0.00  0.00    +0.000 A 
ATOM     22  C   UNL     1       2.909   4.780  19.774  0.00  0.00    +0.000 A 
ATOM     23  C   UNL     1       2.173   5.714  20.507  0.00  0.00    +0.000 A 
ATOM     24  C   UNL     1       2.048   7.022  20.035  0.00  0.00    +0.000 A 
ATOM     25 BR   UNL     1       1.019   8.276  21.007  0.00  0.00    +0.000 Br
ATOM     26  C   UNL     1       2.669   7.413  18.847  0.00  0.00    +0.000 A 
ATOM     27  C   UNL     1       3.403   6.482  18.109  0.00  0.00    +0.000 A 
ENDBRANCH  18  21
ENDBRANCH  16  18
ENDBRANCH  15  16
ENDBRANCH   2  15
TORSDOF 8
ENDMDL
MODEL 3
REMARK VINA RESULT:      -7.4      2.215      2.930
REMARK  Name = 
REMARK  9 active torsions:
REMARK  status: ('A' for Active; 'I' for Inactive)
REMARK    1  A    between atoms: C_1  and  O_2
REMARK    2  A    between atoms: O_2  and  C_3
REMARK    3  A    between atoms: C_6  and  C_7
REMARK    4  A    between atoms: C_7  and  C_8
REMARK    5  A    between atoms: C_8  and  N_9
REMARK    6  A    between atoms: C_10  and  C_12
REMARK    7  A    between atoms: C_12  and  N_13
REMARK    8  A    between atoms: N_13  and  S_14
REMARK    9  A    between atoms: S_14  and  C_17
REMARK                            x       y       z     vdW  Elec       q    Type
REMARK                         _______ _______ _______ _____ _____    ______ ____
ROOT
ATOM      1  N   UNL     1       7.155   6.512  17.579  0.00  0.00    +0.000 N 
ATOM      2  C   UNL     1       7.134   5.617  16.524  0.00  0.00    +0.000 C 
ATOM      3  O   UNL     1       7.527   5.908  15.398  0.00  0.00    +0.000 OA
ATOM      4  H   UNL     1       6.798   6.232  18.484  0.00  0.00    +0.000 HD
ENDROOT
BRANCH   1   5
ATOM      5  C   UNL     1       7.700   7.855  17.446  0.00  0.00    +0.000 C 
BRANCH   5   6
ATOM      6  C   UNL     1       8.547   8.267  18.653  0.00  0.00    +0.000 C 
BRANCH   6  10
ATOM      7  C   UNL     1       9.271  12.535  18.764  0.00  0.00    +0.000 A 
ATOM      8  C   UNL     1       8.564  11.961  17.708  0.00  0.00    +0.000 A 
ATOM      9  C   UNL     1       8.326  10.583  17.674  0.00  0.00    +0.000 A 
ATOM     10  C   UNL     1       8.805   9.755  18.696  0.00  0.00    +0.000 A 
ATOM     11  C   UNL     1       9.539  10.333  19.742  0.00  0.00    +0.000 A 
ATOM     12  C   UNL     1       9.770  11.716  19.775  0.00  0.00    +0.000 A 
BRANCH   7  14
ATOM     13  C   UNL     1       8.533  14.682  19.431  0.00  0.00    +0.000 C 
ATOM     14  O   UNL     1       9.446  13.890  18.681  0.00  0.00    +0.000 OA
ENDBRANCH   7  14
ENDBRANCH   6  10
ENDBRANCH   5   6
ENDBRANCH   1   5
BRANCH   2  15
ATOM     15  C   UNL     1       6.594   4.232  16.886  0.00  0.00    +0.000 C 
BRANCH  15  16
ATOM     16  N   UNL     1       5.150   4.269  17.137  0.00  0.00    +0.000 NA
ATOM     17  H   UNL     1       4.538   3.754  16.501  0.00  0.00    +0.000 HD
BRANCH  16  18
ATOM     18  S   UNL     1       4.622   4.314  18.723  0.00  0.00    +0.000 S 
ATOM     19  O   UNL     1       3.730   3.190  18.900  0.00  0.00    +0.000 OA
ATOM     20  O   UNL     1       5.781   4.510  19.564  0.00  0.00    +0.000 OA
BRANCH  18  21
ATOM     21  C   UNL     1       3.634   5.790  18.762  0.00  0.00    +0.000 A 
ATOM     22  C   UNL     1       3.696   6.686  17.690  0.00  0.00    +0.000 A 
ATOM     23  C   UNL     1       2.939   7.859  17.730  0.00  0.00    +0.000 A 
ATOM     24  C   UNL     1       2.121   8.119  18.831  0.00  0.00    +0.000 A 
ATOM     25 BR   UNL     1       1.127   9.727  18.902  0.00  0.00    +0.000 Br
ATOM     26  C   UNL     1       2.035   7.209  19.885  0.00  0.00    +0.000 A 
ATOM     27  C   UNL     1       2.792   6.036  19.852  0.00  0.00    +0.000 A 
ENDBRANCH  18  21
ENDBRANCH  16  18
ENDBRANCH  15  16
ENDBRANCH   2  15
TORSDOF 8
ENDMDL
MODEL 4
REMARK VINA RESULT:      -7.2      1.712      2.390
REMARK  Name = 
REMARK  9 active torsions:
REMARK  status: ('A' for Active; 'I' for Inactive)
REMARK    1  A    between atoms: C_1  and  O_2
REMARK    2  A    between atoms: O_2  and  C_3
REMARK    3  A    between atoms: C_6  and  C_7
REMARK    4  A    between atoms: C_7  and  C_8
REMARK    5  A    between atoms: C_8  and  N_9
REMARK    6  A    between atoms: C_10  and  C_12
REMARK    7  A    between atoms: C_12  and  N_13
REMARK    8  A    between atoms: N_13  and  S_14
REMARK    9  A    between atoms: S_14  and  C_17
REMARK                            x       y       z     vdW  Elec       q    Type
REMARK                         _______ _______ _______ _____ _____    ______ ____
ROOT
ATOM      1  N   UNL     1       7.930   9.098  17.917  0.00  0.00    +0.000 N 
ATOM      2  C   UNL     1       7.740   7.729  17.975  0.00  0.00    +0.000 C 
ATOM      3  O   UNL     1       8.378   7.000  18.728  0.00  0.00    +0.000 OA
ATOM      4  H   UNL     1       7.396   9.654  17.262  0.00  0.00    +0.000 HD
ENDROOT
BRANCH   1   5
ATOM      5  C   UNL     1       8.868   9.787  18.791  0.00  0.00    +0.000 C 
BRANCH   5   6
ATOM      6  C   UNL     1       9.561  10.964  18.099  0.00  0.00    +0.000 C 
BRANCH   6  10
ATOM      7  C   UNL     1      10.360  14.233  20.823  0.00  0.00    +0.000 A 
ATOM      8  C   UNL     1      10.111  12.949  21.306  0.00  0.00    +0.000 A 
ATOM      9  C   UNL     1       9.858  11.892  20.426  0.00  0.00    +0.000 A 
ATOM     10  C   UNL     1       9.838  12.109  19.044  0.00  0.00    +0.000 A 
ATOM     11  C   UNL     1      10.061  13.408  18.563  0.00  0.00    +0.000 A 
ATOM     12  C   UNL     1      10.321  14.463  19.449  0.00  0.00    +0.000 A 
BRANCH   7  14
ATOM     13  C   UNL     1      11.170  16.398  21.325  0.00  0.00    +0.000 C 
ATOM     14  O   UNL     1      10.587  15.184  21.781  0.00  0.00    +0.000 OA
ENDBRANCH   7  14
ENDBRANCH   6  10
ENDBRANCH   5   6
ENDBRANCH   1   5
BRANCH   2  15
ATOM     15  C   UNL     1       6.655   7.205  17.030  0.00  0.00    +0.000 C 
BRANCH  15  16
ATOM     16  N   UNL     1       7.204   6.249  16.063  0.00  0.00    +0.000 NA
ATOM     17  H   UNL     1       8.080   6.486  15.597  0.00  0.00    +0.000 HD
BRANCH  16  18
ATOM     18  S   UNL     1       6.993   4.616  16.357  0.00  0.00    +0.000 S 
ATOM     19  O   UNL     1       6.631   4.007  15.097  0.00  0.00    +0.000 OA
ATOM     20  O   UNL     1       8.128   4.161  17.128  0.00  0.00    +0.000 OA
BRANCH  18  21
ATOM     21  C   UNL     1       5.552   4.591  17.395  0.00  0.00    +0.000 A 
ATOM     22  C   UNL     1       4.285   4.712  16.814  0.00  0.00    +0.000 A 
ATOM     23  C   UNL     1       3.152   4.718  17.630  0.00  0.00    +0.000 A 
ATOM     24  C   UNL     1       3.293   4.592  19.014  0.00  0.00    +0.000 A 
ATOM     25 BR   UNL     1       1.760   4.641  20.121  0.00  0.00    +0.000 Br
ATOM     26  C   UNL     1       4.555   4.439  19.589  0.00  0.00    +0.000 A 
ATOM     27  C   UNL     1       5.691   4.435  18.778  0.00  0.00    +0.000 A 
ENDBRANCH  18  21
ENDBRANCH  16  18
ENDBRANCH  15  16
ENDBRANCH   2  15
TORSDOF 8
ENDMDL
MODEL 5
REMARK VINA RESULT:      -7.2      5.598      6.774
REMARK  Name = 
REMARK  9 active torsions:
REMARK  status: ('A' for Active; 'I' for Inactive)
REMARK    1  A    between atoms: C_1  and  O_2
REMARK    2  A    between atoms: O_2  and  C_3
REMARK    3  A    between atoms: C_6  and  C_7
REMARK    4  A    between atoms: C_7  and  C_8
REMARK    5  A    between atoms: C_8  and  N_9
REMARK    6  A    between atoms: C_10  and  C_12
REMARK    7  A    between atoms: C_12  and  N_13
REMARK    8  A    between atoms: N_13  and  S_14
REMARK    9  A    between atoms: S_14  and  C_17
REMARK                            x       y       z     vdW  Elec       q    Type
REMARK                         _______ _______ _______ _____ _____    ______ ____
ROOT
ATOM      1  N   UNL     1       4.892   3.278  19.021  0.00  0.00    +0.000 N 
ATOM      2  C   UNL     1       4.631   2.172  19.811  0.00  0.00    +0.000 C 
ATOM      3  O   UNL     1       5.073   2.048  20.949  0.00  0.00    +0.000 OA
ATOM      4  H   UNL     1       4.525   3.324  18.080  0.00  0.00    +0.000 HD
ENDROOT
BRANCH   1   5
ATOM      5  C   UNL     1       5.668   4.410  19.507  0.00  0.00    +0.000 C 
BRANCH   5   6
ATOM      6  C   UNL     1       5.521   5.647  18.617  0.00  0.00    +0.000 C 
BRANCH   6  10
ATOM      7  C   UNL     1       6.582   4.877  14.490  0.00  0.00    +0.000 A 
ATOM      8  C   UNL     1       5.434   5.603  14.806  0.00  0.00    +0.000 A 
ATOM      9  C   UNL     1       5.094   5.856  16.138  0.00  0.00    +0.000 A 
ATOM     10  C   UNL     1       5.895   5.373  17.180  0.00  0.00    +0.000 A 
ATOM     11  C   UNL     1       7.033   4.619  16.858  0.00  0.00    +0.000 A 
ATOM     12  C   UNL     1       7.374   4.373  15.520  0.00  0.00    +0.000 A 
BRANCH   7  14
ATOM     13  C   UNL     1       6.312   3.472  12.606  0.00  0.00    +0.000 C 
ATOM     14  O   UNL     1       6.804   4.689  13.152  0.00  0.00    +0.000 OA
ENDBRANCH   7  14
ENDBRANCH   6  10
ENDBRANCH   5   6
ENDBRANCH   1   5
BRANCH   2  15
ATOM     15  C   UNL     1       3.733   1.125  19.147  0.00  0.00    +0.000 C 
BRANCH  15  16
ATOM     16  N   UNL     1       2.587   1.750  18.477  0.00  0.00    +0.000 NA
ATOM     17  H   UNL     1       2.237   1.318  17.621  0.00  0.00    +0.000 HD
BRANCH  16  18
ATOM     18  S   UNL     1       1.410   2.467  19.425  0.00  0.00    +0.000 S 
ATOM     19  O   UNL     1       0.134   2.118  18.843  0.00  0.00    +0.000 OA
ATOM     20  O   UNL     1       1.725   2.178  20.806  0.00  0.00    +0.000 OA
BRANCH  18  21
ATOM     21  C   UNL     1       1.675   4.198  19.130  0.00  0.00    +0.000 A 
ATOM     22  C   UNL     1       1.695   4.676  17.816  0.00  0.00    +0.000 A 
ATOM     23  C   UNL     1       1.928   6.033  17.580  0.00  0.00    +0.000 A 
ATOM     24  C   UNL     1       2.127   6.899  18.657  0.00  0.00    +0.000 A 
ATOM     25 BR   UNL     1       2.482   8.729  18.335  0.00  0.00    +0.000 Br
ATOM     26  C   UNL     1       2.074   6.427  19.969  0.00  0.00    +0.000 A 
ATOM     27  C   UNL     1       1.844   5.071  20.210  0.00  0.00    +0.000 A 
ENDBRANCH  18  21
ENDBRANCH  16  18
ENDBRANCH  15  16
ENDBRANCH   2  15
TORSDOF 8
ENDMDL
MODEL 6
REMARK VINA RESULT:      -7.2      2.098      2.856
REMARK  Name = 
REMARK  9 active torsions:
REMARK  status: ('A' for Active; 'I' for Inactive)
REMARK    1  A    between atoms: C_1  and  O_2
REMARK    2  A    between atoms: O_2  and  C_3
REMARK    3  A    between atoms: C_6  and  C_7
REMARK    4  A    between atoms: C_7  and  C_8
REMARK    5  A    between atoms: C_8  and  N_9
REMARK    6  A    between atoms: C_10  and  C_12
REMARK    7  A    between atoms: C_12  and  N_13
REMARK    8  A    between atoms: N_13  and  S_14
REMARK    9  A    between atoms: S_14  and  C_17
REMARK                            x       y       z     vdW  Elec       q    Type
REMARK                         _______ _______ _______ _____ _____    ______ ____
ROOT
ATOM      1  N   UNL     1       7.462   6.118  18.169  0.00  0.00    +0.000 N 
ATOM      2  C   UNL     1       7.270   5.653  16.880  0.00  0.00    +0.000 C 
ATOM      3  O   UNL     1       7.698   6.239  15.891  0.00  0.00    +0.000 OA
ATOM      4  H   UNL     1       7.069   5.612  18.952  0.00  0.00    +0.000 HD
ENDROOT
BRANCH   1   5
ATOM      5  C   UNL     1       8.242   7.314  18.452  0.00  0.00    +0.000 C 
BRANCH   5   6
ATOM      6  C   UNL     1       7.689   8.556  17.747  0.00  0.00    +0.000 C 
BRANCH   6  10
ATOM      7  C   UNL     1       9.719  12.177  18.979  0.00  0.00    +0.000 A 
ATOM      8  C   UNL     1       9.900  10.986  19.682  0.00  0.00    +0.000 A 
ATOM      9  C   UNL     1       9.248   9.815  19.281  0.00  0.00    +0.000 A 
ATOM     10  C   UNL     1       8.392   9.823  18.173  0.00  0.00    +0.000 A 
ATOM     11  C   UNL     1       8.191  11.029  17.487  0.00  0.00    +0.000 A 
ATOM     12  C   UNL     1       8.852  12.200  17.888  0.00  0.00    +0.000 A 
BRANCH   7  14
ATOM     13  C   UNL     1      11.797  13.064  19.681  0.00  0.00    +0.000 C 
ATOM     14  O   UNL     1      10.403  13.255  19.472  0.00  0.00    +0.000 OA
ENDBRANCH   7  14
ENDBRANCH   6  10
ENDBRANCH   5   6
ENDBRANCH   1   5
BRANCH   2  15
ATOM     15  C   UNL     1       6.489   4.339  16.797  0.00  0.00    +0.000 C 
BRANCH  15  16
ATOM     16  N   UNL     1       5.048   4.561  16.950  0.00  0.00    +0.000 NA
ATOM     17  H   UNL     1       4.447   4.389  16.143  0.00  0.00    +0.000 HD
BRANCH  16  18
ATOM     18  S   UNL     1       4.345   4.212  18.427  0.00  0.00    +0.000 S 
ATOM     19  O   UNL     1       3.408   3.133  18.199  0.00  0.00    +0.000 OA
ATOM     20  O   UNL     1       5.405   4.110  19.403  0.00  0.00    +0.000 OA
BRANCH  18  21
ATOM     21  C   UNL     1       3.399   5.677  18.763  0.00  0.00    +0.000 A 
ATOM     22  C   UNL     1       3.401   6.724  17.836  0.00  0.00    +0.000 A 
ATOM     23  C   UNL     1       2.678   7.887  18.110  0.00  0.00    +0.000 A 
ATOM     24  C   UNL     1       1.952   7.989  19.298  0.00  0.00    +0.000 A 
ATOM     25 BR   UNL     1       1.007   9.580  19.687  0.00  0.00    +0.000 Br
ATOM     26  C   UNL     1       1.924   6.930  20.208  0.00  0.00    +0.000 A 
ATOM     27  C   UNL     1       2.647   5.767  19.940  0.00  0.00    +0.000 A 
ENDBRANCH  18  21
ENDBRANCH  16  18
ENDBRANCH  15  16
ENDBRANCH   2  15
TORSDOF 8
ENDMDL
MODEL 7
REMARK VINA RESULT:      -7.2      2.055      2.663
REMARK  Name = 
REMARK  9 active torsions:
REMARK  status: ('A' for Active; 'I' for Inactive)
REMARK    1  A    between atoms: C_1  and  O_2
REMARK    2  A    between atoms: O_2  and  C_3
REMARK    3  A    between atoms: C_6  and  C_7
REMARK    4  A    between atoms: C_7  and  C_8
REMARK    5  A    between atoms: C_8  and  N_9
REMARK    6  A    between atoms: C_10  and  C_12
REMARK    7  A    between atoms: C_12  and  N_13
REMARK    8  A    between atoms: N_13  and  S_14
REMARK    9  A    between atoms: S_14  and  C_17
REMARK                            x       y       z     vdW  Elec       q    Type
REMARK                         _______ _______ _______ _____ _____    ______ ____
ROOT
ATOM      1  N   UNL     1       7.494   7.183  17.202  0.00  0.00    +0.000 N 
ATOM      2  C   UNL     1       7.548   6.111  18.074  0.00  0.00    +0.000 C 
ATOM      3  O   UNL     1       7.725   6.243  19.281  0.00  0.00    +0.000 OA
ATOM      4  H   UNL     1       7.369   7.022  16.211  0.00  0.00    +0.000 HD
ENDROOT
BRANCH   1   5
ATOM      5  C   UNL     1       7.586   8.561  17.663  0.00  0.00    +0.000 C 
BRANCH   5   6
ATOM      6  C   UNL     1       8.779   8.790  18.594  0.00  0.00    +0.000 C 
BRANCH   6  10
ATOM      7  C   UNL     1       9.597  12.989  19.269  0.00  0.00    +0.000 A 
ATOM      8  C   UNL     1       9.923  12.036  20.234  0.00  0.00    +0.000 A 
ATOM      9  C   UNL     1       9.663  10.680  20.014  0.00  0.00    +0.000 A 
ATOM     10  C   UNL     1       9.059  10.256  18.824  0.00  0.00    +0.000 A 
ATOM     11  C   UNL     1       8.708  11.221  17.869  0.00  0.00    +0.000 A 
ATOM     12  C   UNL     1       8.976  12.579  18.090  0.00  0.00    +0.000 A 
BRANCH   7  14
ATOM     13  C   UNL     1       8.780  15.155  19.754  0.00  0.00    +0.000 C 
ATOM     14  O   UNL     1       9.893  14.283  19.602  0.00  0.00    +0.000 OA
ENDBRANCH   7  14
ENDBRANCH   6  10
ENDBRANCH   5   6
ENDBRANCH   1   5
BRANCH   2  15
ATOM     15  C   UNL     1       7.353   4.748  17.406  0.00  0.00    +0.000 C 
BRANCH  15  16
ATOM     16  N   UNL     1       5.965   4.557  16.972  0.00  0.00    +0.000 NA
ATOM     17  H   UNL     1       5.801   4.185  16.036  0.00  0.00    +0.000 HD
BRANCH  16  18
ATOM     18  S   UNL     1       4.837   4.088  18.114  0.00  0.00    +0.000 S 
ATOM     19  O   UNL     1       3.972   3.121  17.475  0.00  0.00    +0.000 OA
ATOM     20  O   UNL     1       5.549   3.786  19.335  0.00  0.00    +0.000 OA
BRANCH  18  21
ATOM     21  C   UNL     1       3.891   5.571  18.358  0.00  0.00    +0.000 A 
ATOM     22  C   UNL     1       3.091   5.697  19.498  0.00  0.00    +0.000 A 
ATOM     23  C   UNL     1       2.327   6.852  19.679  0.00  0.00    +0.000 A 
ATOM     24  C   UNL     1       2.378   7.873  18.728  0.00  0.00    +0.000 A 
ATOM     25 BR   UNL     1       1.313   9.419  18.953  0.00  0.00    +0.000 Br
ATOM     26  C   UNL     1       3.202   7.761  17.607  0.00  0.00    +0.000 A 
ATOM     27  C   UNL     1       3.965   6.607  17.420  0.00  0.00    +0.000 A 
ENDBRANCH  18  21
ENDBRANCH  16  18
ENDBRANCH  15  16
ENDBRANCH   2  15
TORSDOF 8
ENDMDL
MODEL 8
REMARK VINA RESULT:      -7.1      5.286      7.602
REMARK  Name = 
REMARK  9 active torsions:
REMARK  status: ('A' for Active; 'I' for Inactive)
REMARK    1  A    between atoms: C_1  and  O_2
REMARK    2  A    between atoms: O_2  and  C_3
REMARK    3  A    between atoms: C_6  and  C_7
REMARK    4  A    between atoms: C_7  and  C_8
REMARK    5  A    between atoms: C_8  and  N_9
REMARK    6  A    between atoms: C_10  and  C_12
REMARK    7  A    between atoms: C_12  and  N_13
REMARK    8  A    between atoms: N_13  and  S_14
REMARK    9  A    between atoms: S_14  and  C_17
REMARK                            x       y       z     vdW  Elec       q    Type
REMARK                         _______ _______ _______ _____ _____    ______ ____
ROOT
ATOM      1  N   UNL     1       6.163   4.395  17.825  0.00  0.00    +0.000 N 
ATOM      2  C   UNL     1       5.968   4.784  19.138  0.00  0.00    +0.000 C 
ATOM      3  O   UNL     1       6.833   5.348  19.801  0.00  0.00    +0.000 OA
ATOM      4  H   UNL     1       5.428   3.912  17.327  0.00  0.00    +0.000 HD
ENDROOT
BRANCH   1   5
ATOM      5  C   UNL     1       7.399   4.681  17.109  0.00  0.00    +0.000 C 
BRANCH   5   6
ATOM      6  C   UNL     1       7.181   5.602  15.906  0.00  0.00    +0.000 C 
BRANCH   6  10
ATOM      7  C   UNL     1       5.874   3.447  12.385  0.00  0.00    +0.000 A 
ATOM      8  C   UNL     1       5.076   3.494  13.527  0.00  0.00    +0.000 A 
ATOM      9  C   UNL     1       5.496   4.194  14.663  0.00  0.00    +0.000 A 
ATOM     10  C   UNL     1       6.732   4.850  14.676  0.00  0.00    +0.000 A 
ATOM     11  C   UNL     1       7.544   4.776  13.535  0.00  0.00    +0.000 A 
ATOM     12  C   UNL     1       7.116   4.079  12.395  0.00  0.00    +0.000 A 
BRANCH   7  14
ATOM     13  C   UNL     1       5.881   1.413  11.177  0.00  0.00    +0.000 C 
ATOM     14  O   UNL     1       5.359   2.725  11.342  0.00  0.00    +0.000 OA
ENDBRANCH   7  14
ENDBRANCH   6  10
ENDBRANCH   5   6
ENDBRANCH   1   5
BRANCH   2  15
ATOM     15  C   UNL     1       4.575   4.462  19.686  0.00  0.00    +0.000 C 
BRANCH  15  16
ATOM     16  N   UNL     1       3.741   5.666  19.768  0.00  0.00    +0.000 NA
ATOM     17  H   UNL     1       4.006   6.390  20.436  0.00  0.00    +0.000 HD
BRANCH  16  18
ATOM     18  S   UNL     1       3.041   6.241  18.362  0.00  0.00    +0.000 S 
ATOM     19  O   UNL     1       4.119   6.714  17.522  0.00  0.00    +0.000 OA
ATOM     20  O   UNL     1       2.096   5.247  17.905  0.00  0.00    +0.000 OA
BRANCH  18  21
ATOM     21  C   UNL     1       2.143   7.664  18.929  0.00  0.00    +0.000 A 
ATOM     22  C   UNL     1       1.834   8.687  18.026  0.00  0.00    +0.000 A 
ATOM     23  C   UNL     1       1.150   9.818  18.475  0.00  0.00    +0.000 A 
ATOM     24  C   UNL     1       0.771   9.912  19.816  0.00  0.00    +0.000 A 
ATOM     25 BR   UNL     1      -0.120  11.463  20.432  0.00  0.00    +0.000 Br
ATOM     26  C   UNL     1       1.050   8.877  20.709  0.00  0.00    +0.000 A 
ATOM     27  C   UNL     1       1.737   7.745  20.266  0.00  0.00    +0.000 A 
ENDBRANCH  18  21
ENDBRANCH  16  18
ENDBRANCH  15  16
ENDBRANCH   2  15
TORSDOF 8
ENDMDL
MODEL 9
REMARK VINA RESULT:      -7.1      1.681      2.002
REMARK  Name = 
REMARK  9 active torsions:
REMARK  status: ('A' for Active; 'I' for Inactive)
REMARK    1  A    between atoms: C_1  and  O_2
REMARK    2  A    between atoms: O_2  and  C_3
REMARK    3  A    between atoms: C_6  and  C_7
REMARK    4  A    between atoms: C_7  and  C_8
REMARK    5  A    between atoms: C_8  and  N_9
REMARK    6  A    between atoms: C_10  and  C_12
REMARK    7  A    between atoms: C_12  and  N_13
REMARK    8  A    between atoms: N_13  and  S_14
REMARK    9  A    between atoms: S_14  and  C_17
REMARK                            x       y       z     vdW  Elec       q    Type
REMARK                         _______ _______ _______ _____ _____    ______ ____
ROOT
ATOM      1  N   UNL     1       7.383   7.326  17.191  0.00  0.00    +0.000 N 
ATOM      2  C   UNL     1       7.549   6.218  18.002  0.00  0.00    +0.000 C 
ATOM      3  O   UNL     1       7.863   6.301  19.185  0.00  0.00    +0.000 OA
ATOM      4  H   UNL     1       7.147   7.206  16.215  0.00  0.00    +0.000 HD
ENDROOT
BRANCH   1   5
ATOM      5  C   UNL     1       7.514   8.685  17.699  0.00  0.00    +0.000 C 
BRANCH   5   6
ATOM      6  C   UNL     1       8.899   8.958  18.292  0.00  0.00    +0.000 C 
BRANCH   6  10
ATOM      7  C   UNL     1       9.331  13.056  19.626  0.00  0.00    +0.000 A 
ATOM      8  C   UNL     1       8.963  12.770  18.311  0.00  0.00    +0.000 A 
ATOM      9  C   UNL     1       8.819  11.447  17.882  0.00  0.00    +0.000 A 
ATOM     10  C   UNL     1       9.054  10.385  18.763  0.00  0.00    +0.000 A 
ATOM     11  C   UNL     1       9.451  10.676  20.076  0.00  0.00    +0.000 A 
ATOM     12  C   UNL     1       9.588  12.005  20.505  0.00  0.00    +0.000 A 
BRANCH   7  14
ATOM     13  C   UNL     1       8.619  15.266  19.172  0.00  0.00    +0.000 C 
ATOM     14  O   UNL     1       9.447  14.387  19.924  0.00  0.00    +0.000 OA
ENDBRANCH   7  14
ENDBRANCH   6  10
ENDBRANCH   5   6
ENDBRANCH   1   5
BRANCH   2  15
ATOM     15  C   UNL     1       7.293   4.883  17.300  0.00  0.00    +0.000 C 
BRANCH  15  16
ATOM     16  N   UNL     1       6.237   4.118  17.973  0.00  0.00    +0.000 NA
ATOM     17  H   UNL     1       6.209   4.132  18.993  0.00  0.00    +0.000 HD
BRANCH  16  18
ATOM     18  S   UNL     1       4.737   4.025  17.239  0.00  0.00    +0.000 S 
ATOM     19  O   UNL     1       4.885   4.582  15.913  0.00  0.00    +0.000 OA
ATOM     20  O   UNL     1       4.226   2.691  17.455  0.00  0.00    +0.000 OA
BRANCH  18  21
ATOM     21  C   UNL     1       3.767   5.168  18.192  0.00  0.00    +0.000 A 
ATOM     22  C   UNL     1       3.675   6.501  17.780  0.00  0.00    +0.000 A 
ATOM     23  C   UNL     1       2.933   7.408  18.541  0.00  0.00    +0.000 A 
ATOM     24  C   UNL     1       2.283   6.972  19.698  0.00  0.00    +0.000 A 
ATOM     25 BR   UNL     1       1.312   8.208  20.750  0.00  0.00    +0.000 Br
ATOM     26  C   UNL     1       2.349   5.635  20.090  0.00  0.00    +0.000 A 
ATOM     27  C   UNL     1       3.091   4.725  19.334  0.00  0.00    +0.000 A 
ENDBRANCH  18  21
ENDBRANCH  16  18
ENDBRANCH  15  16
ENDBRANCH   2  15
TORSDOF 8
ENDMDL
