MODEL 1
REMARK VINA RESULT:      -7.4      0.000      0.000
REMARK  Name = 
REMARK  5 active torsions:
REMARK  status: ('A' for Active; 'I' for Inactive)
REMARK    1  A    between atoms: C_1  and  N_2
REMARK    2  A    between atoms: N_2  and  C_3
REMARK    3  A    between atoms: C_3  and  C_4
REMARK    4  A    between atoms: C_4  and  C_5
REMARK    5  A    between atoms: C_14  and  C_16
REMARK                            x       y       z     vdW  Elec       q    Type
REMARK                         _______ _______ _______ _____ _____    ______ ____
ROOT
ATOM      1  C   UNL     1       4.488   6.679  17.493  0.00  0.00    +0.000 C 
ENDROOT
BRANCH   1   3
ATOM      2  C   UNL     1       5.681   5.777  15.440  0.00  0.00    +0.000 C 
ATOM      3  N   UNL     1       4.796   5.567  16.579  0.00  0.00    +0.000 N 
ATOM      4  C   UNL     1       4.454   4.221  16.823  0.00  0.00    +0.000 C 
ATOM      5  O   UNL     1       4.881   3.311  16.105  0.00  0.00    +0.000 OA
BRANCH   4   6
ATOM      6  C   UNL     1       3.605   3.806  17.983  0.00  0.00    +0.000 A 
ATOM      7  C   UNL     1       2.207   3.738  17.945  0.00  0.00    +0.000 A 
ATOM      8  C   UNL     1       1.478   3.381  19.083  0.00  0.00    +0.000 A 
ATOM      9  C   UNL     1       2.142   3.012  20.247  0.00  0.00    +0.000 A 
ATOM     10 CL   UNL     1       1.238   2.560  21.639  0.00  0.00    +0.000 Cl
ATOM     11  C   UNL     1       3.534   2.990  20.282  0.00  0.00    +0.000 A 
ATOM     12  C   UNL     1       4.261   3.392  19.155  0.00  0.00    +0.000 A 
ENDBRANCH   4   6
ENDBRANCH   1   3
BRANCH   1  13
ATOM     13  C   UNL     1       3.174   7.452  17.323  0.00  0.00    +0.000 C 
BRANCH  13  14
ATOM     14  C   UNL     1       2.497   7.665  18.645  0.00  0.00    +0.000 A 
ATOM     15  C   UNL     1       2.607   6.857  19.758  0.00  0.00    +0.000 A 
ATOM     16  N   UNL     1       1.829   7.383  20.753  0.00  0.00    +0.000 N 
ATOM     17  C   UNL     1       1.196   8.522  20.315  0.00  0.00    +0.000 A 
ATOM     18  C   UNL     1       0.316   9.378  20.982  0.00  0.00    +0.000 A 
ATOM     19  C   UNL     1      -0.187  10.474  20.279  0.00  0.00    +0.000 A 
ATOM     20  C   UNL     1       0.178  10.703  18.955  0.00  0.00    +0.000 A 
ATOM     21  C   UNL     1       1.064   9.837  18.299  0.00  0.00    +0.000 A 
ATOM     22  C   UNL     1       1.591   8.724  18.990  0.00  0.00    +0.000 A 
ATOM     23  H   UNL     1       1.727   6.994  21.681  0.00  0.00    +0.000 HD
ENDBRANCH  13  14
ENDBRANCH   1  13
TORSDOF 4
ENDMDL
MODEL 2
REMARK VINA RESULT:      -7.3      3.525      5.391
REMARK  Name = 
REMARK  5 active torsions:
REMARK  status: ('A' for Active; 'I' for Inactive)
REMARK    1  A    between atoms: C_1  and  N_2
REMARK    2  A    between atoms: N_2  and  C_3
REMARK    3  A    between atoms: C_3  and  C_4
REMARK    4  A    between atoms: C_4  and  C_5
REMARK    5  A    between atoms: C_14  and  C_16
REMARK                            x       y       z     vdW  Elec       q    Type
REMARK                         _______ _______ _______ _____ _____    ______ ____
ROOT
ATOM      1  C   UNL     1       5.684   6.746  17.378  0.00  0.00    +0.000 C 
ENDROOT
BRANCH   1   3
ATOM      2  C   UNL     1       7.410   6.084  19.120  0.00  0.00    +0.000 C 
ATOM      3  N   UNL     1       6.846   5.939  17.783  0.00  0.00    +0.000 N 
ATOM      4  C   UNL     1       7.363   4.861  17.037  0.00  0.00    +0.000 C 
ATOM      5  O   UNL     1       8.232   4.117  17.503  0.00  0.00    +0.000 OA
BRANCH   4   6
ATOM      6  C   UNL     1       6.862   4.519  15.669  0.00  0.00    +0.000 A 
ATOM      7  C   UNL     1       7.409   5.029  14.486  0.00  0.00    +0.000 A 
ATOM      8  C   UNL     1       6.861   4.696  13.243  0.00  0.00    +0.000 A 
ATOM      9  C   UNL     1       5.811   3.787  13.168  0.00  0.00    +0.000 A 
ATOM     10 CL   UNL     1       5.151   3.371  11.635  0.00  0.00    +0.000 Cl
ATOM     11  C   UNL     1       5.307   3.202  14.326  0.00  0.00    +0.000 A 
ATOM     12  C   UNL     1       5.828   3.572  15.572  0.00  0.00    +0.000 A 
ENDBRANCH   4   6
ENDBRANCH   1   3
BRANCH   1  13
ATOM     13  C   UNL     1       4.368   6.045  17.021  0.00  0.00    +0.000 C 
BRANCH  13  14
ATOM     14  C   UNL     1       3.504   5.864  18.235  0.00  0.00    +0.000 A 
ATOM     15  C   UNL     1       3.404   6.734  19.302  0.00  0.00    +0.000 A 
ATOM     16  N   UNL     1       2.525   6.206  20.208  0.00  0.00    +0.000 N 
ATOM     17  C   UNL     1       2.048   4.996  19.765  0.00  0.00    +0.000 A 
ATOM     18  C   UNL     1       1.143   4.112  20.357  0.00  0.00    +0.000 A 
ATOM     19  C   UNL     1       0.840   2.933  19.674  0.00  0.00    +0.000 A 
ATOM     20  C   UNL     1       1.426   2.649  18.444  0.00  0.00    +0.000 A 
ATOM     21  C   UNL     1       2.331   3.547  17.860  0.00  0.00    +0.000 A 
ATOM     22  C   UNL     1       2.650   4.748  18.528  0.00  0.00    +0.000 A 
ATOM     23  H   UNL     1       2.260   6.639  21.084  0.00  0.00    +0.000 HD
ENDBRANCH  13  14
ENDBRANCH   1  13
TORSDOF 4
ENDMDL
MODEL 3
REMARK VINA RESULT:      -7.3      0.215      1.048
REMARK  Name = 
REMARK  5 active torsions:
REMARK  status: ('A' for Active; 'I' for Inactive)
REMARK    1  A    between atoms: C_1  and  N_2
REMARK    2  A    between atoms: N_2  and  C_3
REMARK    3  A    between atoms: C_3  and  C_4
REMARK    4  A    between atoms: C_4  and  C_5
REMARK    5  A    between atoms: C_14  and  C_16
REMARK                            x       y       z     vdW  Elec       q    Type
REMARK                         _______ _______ _______ _____ _____    ______ ____
ROOT
ATOM      1  C   UNL     1       4.633   6.664  17.320  0.00  0.00    +0.000 C 
ENDROOT
BRANCH   1   3
ATOM      2  C   UNL     1       5.793   5.716  15.270  0.00  0.00    +0.000 C 
ATOM      3  N   UNL     1       4.940   5.527  16.437  0.00  0.00    +0.000 N 
ATOM      4  C   UNL     1       4.631   4.185  16.734  0.00  0.00    +0.000 C 
ATOM      5  O   UNL     1       5.059   3.259  16.038  0.00  0.00    +0.000 OA
BRANCH   4   6
ATOM      6  C   UNL     1       3.819   3.794  17.929  0.00  0.00    +0.000 A 
ATOM      7  C   UNL     1       4.366   3.509  19.186  0.00  0.00    +0.000 A 
ATOM      8  C   UNL     1       3.547   3.110  20.247  0.00  0.00    +0.000 A 
ATOM      9  C   UNL     1       2.167   3.069  20.083  0.00  0.00    +0.000 A 
ATOM     10 CL   UNL     1       1.166   2.591  21.398  0.00  0.00    +0.000 Cl
ATOM     11  C   UNL     1       1.596   3.431  18.867  0.00  0.00    +0.000 A 
ATOM     12  C   UNL     1       2.421   3.787  17.792  0.00  0.00    +0.000 A 
ENDBRANCH   4   6
ENDBRANCH   1   3
BRANCH   1  13
ATOM     13  C   UNL     1       3.301   7.407  17.156  0.00  0.00    +0.000 C 
BRANCH  13  14
ATOM     14  C   UNL     1       2.630   7.616  18.482  0.00  0.00    +0.000 A 
ATOM     15  C   UNL     1       2.779   6.827  19.605  0.00  0.00    +0.000 A 
ATOM     16  N   UNL     1       1.995   7.341  20.601  0.00  0.00    +0.000 N 
ATOM     17  C   UNL     1       1.321   8.452  20.155  0.00  0.00    +0.000 A 
ATOM     18  C   UNL     1       0.419   9.287  20.820  0.00  0.00    +0.000 A 
ATOM     19  C   UNL     1      -0.127  10.356  20.108  0.00  0.00    +0.000 A 
ATOM     20  C   UNL     1       0.215  10.579  18.777  0.00  0.00    +0.000 A 
ATOM     21  C   UNL     1       1.123   9.734  18.124  0.00  0.00    +0.000 A 
ATOM     22  C   UNL     1       1.694   8.649  18.823  0.00  0.00    +0.000 A 
ATOM     23  H   UNL     1       1.916   6.961  21.536  0.00  0.00    +0.000 HD
ENDBRANCH  13  14
ENDBRANCH   1  13
TORSDOF 4
ENDMDL
MODEL 4
REMARK VINA RESULT:      -7.3      2.867      6.010
REMARK  Name = 
REMARK  5 active torsions:
REMARK  status: ('A' for Active; 'I' for Inactive)
REMARK    1  A    between atoms: C_1  and  N_2
REMARK    2  A    between atoms: N_2  and  C_3
REMARK    3  A    between atoms: C_3  and  C_4
REMARK    4  A    between atoms: C_4  and  C_5
REMARK    5  A    between atoms: C_14  and  C_16
REMARK                            x       y       z     vdW  Elec       q    Type
REMARK                         _______ _______ _______ _____ _____    ______ ____
ROOT
ATOM      1  C   UNL     1       2.761   3.900  17.639  0.00  0.00    +0.000 C 
ENDROOT
BRANCH   1   3
ATOM      2  C   UNL     1       2.961   2.446  19.711  0.00  0.00    +0.000 C 
ATOM      3  N   UNL     1       2.680   3.739  19.100  0.00  0.00    +0.000 N 
ATOM      4  C   UNL     1       2.539   4.806  20.009  0.00  0.00    +0.000 C 
ATOM      5  O   UNL     1       2.644   4.628  21.227  0.00  0.00    +0.000 OA
BRANCH   4   6
ATOM      6  C   UNL     1       2.310   6.216  19.563  0.00  0.00    +0.000 A 
ATOM      7  C   UNL     1       2.606   6.687  18.279  0.00  0.00    +0.000 A 
ATOM      8  C   UNL     1       2.403   8.030  17.946  0.00  0.00    +0.000 A 
ATOM      9  C   UNL     1       1.828   8.896  18.870  0.00  0.00    +0.000 A 
ATOM     10 CL   UNL     1       1.567  10.543  18.448  0.00  0.00    +0.000 Cl
ATOM     11  C   UNL     1       1.446   8.429  20.124  0.00  0.00    +0.000 A 
ATOM     12  C   UNL     1       1.693   7.094  20.471  0.00  0.00    +0.000 A 
ENDBRANCH   4   6
ENDBRANCH   1   3
BRANCH   1  13
ATOM     13  C   UNL     1       3.995   3.380  16.891  0.00  0.00    +0.000 C 
BRANCH  13  14
ATOM     14  C   UNL     1       4.950   4.496  16.579  0.00  0.00    +0.000 A 
ATOM     15  C   UNL     1       5.104   5.120  15.358  0.00  0.00    +0.000 A 
ATOM     16  N   UNL     1       6.078   6.074  15.481  0.00  0.00    +0.000 N 
ATOM     17  C   UNL     1       6.579   6.084  16.761  0.00  0.00    +0.000 A 
ATOM     18  C   UNL     1       7.575   6.881  17.332  0.00  0.00    +0.000 A 
ATOM     19  C   UNL     1       7.891   6.667  18.675  0.00  0.00    +0.000 A 
ATOM     20  C   UNL     1       7.235   5.689  19.417  0.00  0.00    +0.000 A 
ATOM     21  C   UNL     1       6.236   4.899  18.831  0.00  0.00    +0.000 A 
ATOM     22  C   UNL     1       5.894   5.099  17.476  0.00  0.00    +0.000 A 
ATOM     23  H   UNL     1       6.391   6.686  14.739  0.00  0.00    +0.000 HD
ENDBRANCH  13  14
ENDBRANCH   1  13
TORSDOF 4
ENDMDL
MODEL 5
REMARK VINA RESULT:      -7.3      3.025      7.129
REMARK  Name = 
REMARK  5 active torsions:
REMARK  status: ('A' for Active; 'I' for Inactive)
REMARK    1  A    between atoms: C_1  and  N_2
REMARK    2  A    between atoms: N_2  and  C_3
REMARK    3  A    between atoms: C_3  and  C_4
REMARK    4  A    between atoms: C_4  and  C_5
REMARK    5  A    between atoms: C_14  and  C_16
REMARK                            x       y       z     vdW  Elec       q    Type
REMARK                         _______ _______ _______ _____ _____    ______ ____
ROOT
ATOM      1  C   UNL     1       4.352   5.002  17.864  0.00  0.00    +0.000 C 
ENDROOT
BRANCH   1   3
ATOM      2  C   UNL     1       4.055   3.150  19.577  0.00  0.00    +0.000 C 
ATOM      3  N   UNL     1       3.677   4.457  19.054  0.00  0.00    +0.000 N 
ATOM      4  C   UNL     1       2.801   5.194  19.876  0.00  0.00    +0.000 C 
ATOM      5  O   UNL     1       2.395   4.738  20.951  0.00  0.00    +0.000 OA
BRANCH   4   6
ATOM      6  C   UNL     1       2.353   6.579  19.533  0.00  0.00    +0.000 A 
ATOM      7  C   UNL     1       2.421   7.127  18.247  0.00  0.00    +0.000 A 
ATOM      8  C   UNL     1       2.021   8.446  18.009  0.00  0.00    +0.000 A 
ATOM      9  C   UNL     1       1.475   9.203  19.039  0.00  0.00    +0.000 A 
ATOM     10 CL   UNL     1       0.972  10.820  18.736  0.00  0.00    +0.000 Cl
ATOM     11  C   UNL     1       1.318   8.650  20.307  0.00  0.00    +0.000 A 
ATOM     12  C   UNL     1       1.761   7.344  20.553  0.00  0.00    +0.000 A 
ENDBRANCH   4   6
ENDBRANCH   1   3
BRANCH   1  13
ATOM     13  C   UNL     1       4.623   4.084  16.666  0.00  0.00    +0.000 C 
BRANCH  13  14
ATOM     14  C   UNL     1       5.769   4.595  15.842  0.00  0.00    +0.000 A 
ATOM     15  C   UNL     1       6.751   5.469  16.263  0.00  0.00    +0.000 A 
ATOM     16  N   UNL     1       7.603   5.697  15.217  0.00  0.00    +0.000 N 
ATOM     17  C   UNL     1       7.197   4.997  14.106  0.00  0.00    +0.000 A 
ATOM     18  C   UNL     1       7.756   4.932  12.827  0.00  0.00    +0.000 A 
ATOM     19  C   UNL     1       7.119   4.133  11.877  0.00  0.00    +0.000 A 
ATOM     20  C   UNL     1       5.961   3.428  12.195  0.00  0.00    +0.000 A 
ATOM     21  C   UNL     1       5.413   3.501  13.483  0.00  0.00    +0.000 A 
ATOM     22  C   UNL     1       6.042   4.298  14.464  0.00  0.00    +0.000 A 
ATOM     23  H   UNL     1       8.418   6.296  15.249  0.00  0.00    +0.000 HD
ENDBRANCH  13  14
ENDBRANCH   1  13
TORSDOF 4
ENDMDL
MODEL 6
REMARK VINA RESULT:      -7.1      2.808      4.173
REMARK  Name = 
REMARK  5 active torsions:
REMARK  status: ('A' for Active; 'I' for Inactive)
REMARK    1  A    between atoms: C_1  and  N_2
REMARK    2  A    between atoms: N_2  and  C_3
REMARK    3  A    between atoms: C_3  and  C_4
REMARK    4  A    between atoms: C_4  and  C_5
REMARK    5  A    between atoms: C_14  and  C_16
REMARK                            x       y       z     vdW  Elec       q    Type
REMARK                         _______ _______ _______ _____ _____    ______ ____
ROOT
ATOM      1  C   UNL     1       2.615   5.823  18.399  0.00  0.00    +0.000 C 
ENDROOT
BRANCH   1   3
ATOM      2  C   UNL     1       2.591   4.423  20.518  0.00  0.00    +0.000 C 
ATOM      3  N   UNL     1       3.267   4.861  19.303  0.00  0.00    +0.000 N 
ATOM      4  C   UNL     1       4.444   4.151  18.991  0.00  0.00    +0.000 C 
ATOM      5  O   UNL     1       4.852   3.237  19.715  0.00  0.00    +0.000 OA
BRANCH   4   6
ATOM      6  C   UNL     1       5.238   4.419  17.752  0.00  0.00    +0.000 A 
ATOM      7  C   UNL     1       6.407   5.189  17.723  0.00  0.00    +0.000 A 
ATOM      8  C   UNL     1       7.074   5.431  16.518  0.00  0.00    +0.000 A 
ATOM      9  C   UNL     1       6.623   4.839  15.343  0.00  0.00    +0.000 A 
ATOM     10 CL   UNL     1       7.458   5.129  13.867  0.00  0.00    +0.000 Cl
ATOM     11  C   UNL     1       5.513   4.000  15.363  0.00  0.00    +0.000 A 
ATOM     12  C   UNL     1       4.820   3.797  16.563  0.00  0.00    +0.000 A 
ENDBRANCH   4   6
ENDBRANCH   1   3
BRANCH   1  13
ATOM     13  C   UNL     1       3.232   7.215  18.211  0.00  0.00    +0.000 C 
BRANCH  13  14
ATOM     14  C   UNL     1       2.206   8.292  18.412  0.00  0.00    +0.000 A 
ATOM     15  C   UNL     1       1.781   9.201  17.464  0.00  0.00    +0.000 A 
ATOM     16  N   UNL     1       0.850  10.022  18.040  0.00  0.00    +0.000 N 
ATOM     17  C   UNL     1       0.658   9.679  19.357  0.00  0.00    +0.000 A 
ATOM     18  C   UNL     1      -0.187  10.238  20.320  0.00  0.00    +0.000 A 
ATOM     19  C   UNL     1      -0.172   9.683  21.601  0.00  0.00    +0.000 A 
ATOM     20  C   UNL     1       0.661   8.611  21.906  0.00  0.00    +0.000 A 
ATOM     21  C   UNL     1       1.501   8.059  20.929  0.00  0.00    +0.000 A 
ATOM     22  C   UNL     1       1.501   8.598  19.625  0.00  0.00    +0.000 A 
ATOM     23  H   UNL     1       0.368  10.777  17.570  0.00  0.00    +0.000 HD
ENDBRANCH  13  14
ENDBRANCH   1  13
TORSDOF 4
ENDMDL
MODEL 7
REMARK VINA RESULT:      -7.1      2.522      4.900
REMARK  Name = 
REMARK  5 active torsions:
REMARK  status: ('A' for Active; 'I' for Inactive)
REMARK    1  A    between atoms: C_1  and  N_2
REMARK    2  A    between atoms: N_2  and  C_3
REMARK    3  A    between atoms: C_3  and  C_4
REMARK    4  A    between atoms: C_4  and  C_5
REMARK    5  A    between atoms: C_14  and  C_16
REMARK                            x       y       z     vdW  Elec       q    Type
REMARK                         _______ _______ _______ _____ _____    ______ ____
ROOT
ATOM      1  C   UNL     1       4.820   3.914  15.955  0.00  0.00    +0.000 C 
ENDROOT
BRANCH   1   3
ATOM      2  C   UNL     1       7.077   4.775  15.169  0.00  0.00    +0.000 C 
ATOM      3  N   UNL     1       5.915   4.894  16.042  0.00  0.00    +0.000 N 
ATOM      4  C   UNL     1       5.853   6.089  16.785  0.00  0.00    +0.000 C 
ATOM      5  O   UNL     1       6.733   6.951  16.689  0.00  0.00    +0.000 OA
BRANCH   4   6
ATOM      6  C   UNL     1       4.704   6.415  17.687  0.00  0.00    +0.000 A 
ATOM      7  C   UNL     1       3.573   7.134  17.284  0.00  0.00    +0.000 A 
ATOM      8  C   UNL     1       2.556   7.437  18.194  0.00  0.00    +0.000 A 
ATOM      9  C   UNL     1       2.623   6.954  19.496  0.00  0.00    +0.000 A 
ATOM     10 CL   UNL     1       1.361   7.317  20.607  0.00  0.00    +0.000 Cl
ATOM     11  C   UNL     1       3.697   6.163  19.896  0.00  0.00    +0.000 A 
ATOM     12  C   UNL     1       4.736   5.900  18.994  0.00  0.00    +0.000 A 
ENDBRANCH   4   6
ENDBRANCH   1   3
BRANCH   1  13
ATOM     13  C   UNL     1       4.576   2.951  17.123  0.00  0.00    +0.000 C 
BRANCH  13  14
ATOM     14  C   UNL     1       3.236   3.193  17.753  0.00  0.00    +0.000 A 
ATOM     15  C   UNL     1       2.118   3.701  17.123  0.00  0.00    +0.000 A 
ATOM     16  N   UNL     1       1.105   3.781  18.039  0.00  0.00    +0.000 N 
ATOM     17  C   UNL     1       1.535   3.343  19.268  0.00  0.00    +0.000 A 
ATOM     18  C   UNL     1       0.849   3.250  20.483  0.00  0.00    +0.000 A 
ATOM     19  C   UNL     1       1.548   2.768  21.591  0.00  0.00    +0.000 A 
ATOM     20  C   UNL     1       2.885   2.396  21.487  0.00  0.00    +0.000 A 
ATOM     21  C   UNL     1       3.559   2.492  20.261  0.00  0.00    +0.000 A 
ATOM     22  C   UNL     1       2.874   2.971  19.124  0.00  0.00    +0.000 A 
ATOM     23  H   UNL     1       0.169   4.115  17.846  0.00  0.00    +0.000 HD
ENDBRANCH  13  14
ENDBRANCH   1  13
TORSDOF 4
ENDMDL
MODEL 8
REMARK VINA RESULT:      -7.1      3.054      4.459
REMARK  Name = 
REMARK  5 active torsions:
REMARK  status: ('A' for Active; 'I' for Inactive)
REMARK    1  A    between atoms: C_1  and  N_2
REMARK    2  A    between atoms: N_2  and  C_3
REMARK    3  A    between atoms: C_3  and  C_4
REMARK    4  A    between atoms: C_4  and  C_5
REMARK    5  A    between atoms: C_14  and  C_16
REMARK                            x       y       z     vdW  Elec       q    Type
REMARK                         _______ _______ _______ _____ _____    ______ ____
ROOT
ATOM      1  C   UNL     1       5.951   7.006  17.021  0.00  0.00    +0.000 C 
ENDROOT
BRANCH   1   3
ATOM      2  C   UNL     1       7.645   6.316  18.783  0.00  0.00    +0.000 C 
ATOM      3  N   UNL     1       7.038   6.121  17.472  0.00  0.00    +0.000 N 
ATOM      4  C   UNL     1       7.428   4.941  16.808  0.00  0.00    +0.000 C 
ATOM      5  O   UNL     1       8.230   4.153  17.320  0.00  0.00    +0.000 OA
BRANCH   4   6
ATOM      6  C   UNL     1       6.863   4.543  15.481  0.00  0.00    +0.000 A 
ATOM      7  C   UNL     1       7.416   4.919  14.251  0.00  0.00    +0.000 A 
ATOM      8  C   UNL     1       6.809   4.543  13.049  0.00  0.00    +0.000 A 
ATOM      9  C   UNL     1       5.688   3.721  13.065  0.00  0.00    +0.000 A 
ATOM     10 CL   UNL     1       4.954   3.250  11.582  0.00  0.00    +0.000 Cl
ATOM     11  C   UNL     1       5.171   3.264  14.274  0.00  0.00    +0.000 A 
ATOM     12  C   UNL     1       5.754   3.680  15.478  0.00  0.00    +0.000 A 
ENDBRANCH   4   6
ENDBRANCH   1   3
BRANCH   1  13
ATOM     13  C   UNL     1       4.536   6.437  16.857  0.00  0.00    +0.000 C 
BRANCH  13  14
ATOM     14  C   UNL     1       3.749   6.572  18.128  0.00  0.00    +0.000 A 
ATOM     15  C   UNL     1       3.767   5.698  19.196  0.00  0.00    +0.000 A 
ATOM     16  N   UNL     1       2.906   6.166  20.151  0.00  0.00    +0.000 N 
ATOM     17  C   UNL     1       2.311   7.331  19.731  0.00  0.00    +0.000 A 
ATOM     18  C   UNL     1       1.375   8.147  20.371  0.00  0.00    +0.000 A 
ATOM     19  C   UNL     1       0.931   9.285  19.695  0.00  0.00    +0.000 A 
ATOM     20  C   UNL     1       1.405   9.592  18.423  0.00  0.00    +0.000 A 
ATOM     21  C   UNL     1       2.345   8.765  17.794  0.00  0.00    +0.000 A 
ATOM     22  C   UNL     1       2.815   7.611  18.458  0.00  0.00    +0.000 A 
ATOM     23  H   UNL     1       2.728   5.722  21.043  0.00  0.00    +0.000 HD
ENDBRANCH  13  14
ENDBRANCH   1  13
TORSDOF 4
ENDMDL
MODEL 9
REMARK VINA RESULT:      -7.1      2.727      3.913
REMARK  Name = 
REMARK  5 active torsions:
REMARK  status: ('A' for Active; 'I' for Inactive)
REMARK    1  A    between atoms: C_1  and  N_2
REMARK    2  A    between atoms: N_2  and  C_3
REMARK    3  A    between atoms: C_3  and  C_4
REMARK    4  A    between atoms: C_4  and  C_5
REMARK    5  A    between atoms: C_14  and  C_16
REMARK                            x       y       z     vdW  Elec       q    Type
REMARK                         _______ _______ _______ _____ _____    ______ ____
ROOT
ATOM      1  C   UNL     1       2.266   5.502  19.318  0.00  0.00    +0.000 C 
ENDROOT
BRANCH   1   3
ATOM      2  C   UNL     1       2.171   3.876  21.267  0.00  0.00    +0.000 C 
ATOM      3  N   UNL     1       2.839   4.373  20.070  0.00  0.00    +0.000 N 
ATOM      4  C   UNL     1       3.909   3.578  19.615  0.00  0.00    +0.000 C 
ATOM      5  O   UNL     1       4.238   2.545  20.208  0.00  0.00    +0.000 OA
BRANCH   4   6
ATOM      6  C   UNL     1       4.672   3.897  18.368  0.00  0.00    +0.000 A 
ATOM      7  C   UNL     1       4.177   3.695  17.075  0.00  0.00    +0.000 A 
ATOM      8  C   UNL     1       4.965   3.978  15.955  0.00  0.00    +0.000 A 
ATOM      9  C   UNL     1       6.226   4.542  16.117  0.00  0.00    +0.000 A 
ATOM     10 CL   UNL     1       7.184   4.902  14.735  0.00  0.00    +0.000 Cl
ATOM     11  C   UNL     1       6.705   4.831  17.392  0.00  0.00    +0.000 A 
ATOM     12  C   UNL     1       5.932   4.504  18.513  0.00  0.00    +0.000 A 
ENDBRANCH   4   6
ENDBRANCH   1   3
BRANCH   1  13
ATOM     13  C   UNL     1       3.112   6.759  19.086  0.00  0.00    +0.000 C 
BRANCH  13  14
ATOM     14  C   UNL     1       2.244   7.969  18.898  0.00  0.00    +0.000 A 
ATOM     15  C   UNL     1       2.108   8.703  17.738  0.00  0.00    +0.000 A 
ATOM     16  N   UNL     1       1.237   9.731  17.977  0.00  0.00    +0.000 N 
ATOM     17  C   UNL     1       0.802   9.697  19.280  0.00  0.00    +0.000 A 
ATOM     18  C   UNL     1      -0.082  10.541  19.958  0.00  0.00    +0.000 A 
ATOM     19  C   UNL     1      -0.342  10.269  21.302  0.00  0.00    +0.000 A 
ATOM     20  C   UNL     1       0.263   9.192  21.944  0.00  0.00    +0.000 A 
ATOM     21  C   UNL     1       1.145   8.353  21.250  0.00  0.00    +0.000 A 
ATOM     22  C   UNL     1       1.421   8.603  19.889  0.00  0.00    +0.000 A 
ATOM     23  H   UNL     1       0.951  10.424  17.297  0.00  0.00    +0.000 HD
ENDBRANCH  13  14
ENDBRANCH   1  13
TORSDOF 4
ENDMDL
