MODEL 1
REMARK VINA RESULT:      -7.7      0.000      0.000
REMARK  Name = 
REMARK  7 active torsions:
REMARK  status: ('A' for Active; 'I' for Inactive)
REMARK    1  A    between atoms: C_1  and  C_2
REMARK    2  A    between atoms: C_4  and  C_5
REMARK    3  A    between atoms: C_6  and  N_7
REMARK    4  A    between atoms: C_14  and  N_15
REMARK    5  A    between atoms: N_15  and  N_16
REMARK    6  A    between atoms: C_17  and  C_19
REMARK    7  A    between atoms: C_27  and  C_28
REMARK                            x       y       z     vdW  Elec       q    Type
REMARK                         _______ _______ _______ _____ _____    ______ ____
ROOT
ATOM      1  N   UNL     1       4.475   4.907  18.254  0.00  0.00    +0.000 N 
ATOM      2  C   UNL     1       4.483   3.789  19.086  0.00  0.00    +0.000 C 
ATOM      3  O   UNL     1       5.204   2.803  18.954  0.00  0.00    +0.000 OA
ATOM      4  N   UNL     1       3.616   3.804  20.136  0.00  0.00    +0.000 N 
ATOM      5  C   UNL     1       2.830   4.831  20.570  0.00  0.00    +0.000 C 
ATOM      6  O   UNL     1       2.170   4.717  21.577  0.00  0.00    +0.000 OA
ATOM      7  C   UNL     1       2.877   6.036  19.717  0.00  0.00    +0.000 C 
ATOM      8  C   UNL     1       2.158   7.109  20.073  0.00  0.00    +0.000 C 
ATOM      9  C   UNL     1       3.689   6.045  18.461  0.00  0.00    +0.000 C 
ATOM     10  O   UNL     1       3.623   7.003  17.694  0.00  0.00    +0.000 OA
ATOM     11  H   UNL     1       3.621   2.984  20.726  0.00  0.00    +0.000 HD
ENDROOT
BRANCH   1  17
ATOM     12  C   UNL     1       7.714   4.885  13.485  0.00  0.00    +0.000 C 
ATOM     13  C   UNL     1       6.871   4.844  14.728  0.00  0.00    +0.000 A 
ATOM     14  C   UNL     1       5.635   4.197  14.755  0.00  0.00    +0.000 A 
ATOM     15  C   UNL     1       4.835   4.202  15.915  0.00  0.00    +0.000 A 
ATOM     16  C   UNL     1       3.475   3.552  15.842  0.00  0.00    +0.000 C 
ATOM     17  C   UNL     1       5.299   4.856  17.081  0.00  0.00    +0.000 A 
ATOM     18  C   UNL     1       6.558   5.501  17.064  0.00  0.00    +0.000 A 
ATOM     19  C   UNL     1       7.147   6.242  18.234  0.00  0.00    +0.000 C 
ATOM     20  C   UNL     1       7.321   5.492  15.881  0.00  0.00    +0.000 A 
ENDBRANCH   1  17
BRANCH   8  21
ATOM     21  N   UNL     1       1.405   7.374  21.206  0.00  0.00    +0.000 N 
ATOM     22  H   UNL     1       1.152   6.535  21.776  0.00  0.00    +0.000 HD
BRANCH  21  23
ATOM     23  N   UNL     1       0.361   8.315  21.234  0.00  0.00    +0.000 N 
ATOM     24  C   UNL     1       0.588   9.421  22.050  0.00  0.00    +0.000 C 
ATOM     25  O   UNL     1       1.581   9.540  22.767  0.00  0.00    +0.000 OA
ATOM     26  H   UNL     1      -0.181   8.415  20.380  0.00  0.00    +0.000 HD
BRANCH  24  27
ATOM     27  C   UNL     1      -0.422  10.506  22.012  0.00  0.00    +0.000 A 
ATOM     28  C   UNL     1      -1.183  10.829  23.133  0.00  0.00    +0.000 A 
ATOM     29  C   UNL     1      -2.077  11.878  23.022  0.00  0.00    +0.000 A 
ATOM     30  N   UNL     1      -2.258  12.596  21.893  0.00  0.00    +0.000 NA
ATOM     31  C   UNL     1      -1.492  12.274  20.828  0.00  0.00    +0.000 A 
ATOM     32  C   UNL     1      -0.562  11.252  20.839  0.00  0.00    +0.000 A 
ENDBRANCH  24  27
ENDBRANCH  21  23
ENDBRANCH   8  21
TORSDOF 4
ENDMDL
MODEL 2
REMARK VINA RESULT:      -7.5      3.522     10.056
REMARK  Name = 
REMARK  7 active torsions:
REMARK  status: ('A' for Active; 'I' for Inactive)
REMARK    1  A    between atoms: C_1  and  C_2
REMARK    2  A    between atoms: C_4  and  C_5
REMARK    3  A    between atoms: C_6  and  N_7
REMARK    4  A    between atoms: C_14  and  N_15
REMARK    5  A    between atoms: N_15  and  N_16
REMARK    6  A    between atoms: C_17  and  C_19
REMARK    7  A    between atoms: C_27  and  C_28
REMARK                            x       y       z     vdW  Elec       q    Type
REMARK                         _______ _______ _______ _____ _____    ______ ____
ROOT
ATOM      1  N   UNL     1      -0.650  12.363  20.300  0.00  0.00    +0.000 N 
ATOM      2  C   UNL     1      -0.277  12.383  18.958  0.00  0.00    +0.000 C 
ATOM      3  O   UNL     1      -0.499  13.295  18.166  0.00  0.00    +0.000 OA
ATOM      4  N   UNL     1       0.398  11.293  18.496  0.00  0.00    +0.000 N 
ATOM      5  C   UNL     1       0.883  10.235  19.207  0.00  0.00    +0.000 C 
ATOM      6  O   UNL     1       1.540   9.378  18.661  0.00  0.00    +0.000 OA
ATOM      7  C   UNL     1       0.536  10.254  20.642  0.00  0.00    +0.000 C 
ATOM      8  C   UNL     1       0.988   9.269  21.430  0.00  0.00    +0.000 C 
ATOM      9  C   UNL     1      -0.331  11.338  21.198  0.00  0.00    +0.000 C 
ATOM     10  O   UNL     1      -0.718  11.279  22.363  0.00  0.00    +0.000 OA
ATOM     11  H   UNL     1       0.653  11.312  17.519  0.00  0.00    +0.000 HD
ENDROOT
BRANCH   1  17
ATOM     12  C   UNL     1      -3.914  16.638  22.374  0.00  0.00    +0.000 C 
ATOM     13  C   UNL     1      -3.078  15.535  21.791  0.00  0.00    +0.000 A 
ATOM     14  C   UNL     1      -3.648  14.491  21.060  0.00  0.00    +0.000 A 
ATOM     15  C   UNL     1      -2.858  13.440  20.553  0.00  0.00    +0.000 A 
ATOM     16  C   UNL     1      -3.556  12.305  19.844  0.00  0.00    +0.000 C 
ATOM     17  C   UNL     1      -1.459  13.449  20.771  0.00  0.00    +0.000 A 
ATOM     18  C   UNL     1      -0.875  14.512  21.498  0.00  0.00    +0.000 A 
ATOM     19  C   UNL     1       0.594  14.620  21.808  0.00  0.00    +0.000 C 
ATOM     20  C   UNL     1      -1.698  15.535  22.006  0.00  0.00    +0.000 A 
ENDBRANCH   1  17
BRANCH   8  21
ATOM     21  N   UNL     1       1.854   8.217  21.179  0.00  0.00    +0.000 N 
ATOM     22  H   UNL     1       2.692   8.462  20.604  0.00  0.00    +0.000 HD
BRANCH  21  23
ATOM     23  N   UNL     1       1.418   6.916  20.875  0.00  0.00    +0.000 N 
ATOM     24  C   UNL     1       2.223   6.222  19.975  0.00  0.00    +0.000 C 
ATOM     25  O   UNL     1       3.196   6.723  19.410  0.00  0.00    +0.000 OA
ATOM     26  H   UNL     1       0.935   6.416  21.616  0.00  0.00    +0.000 HD
BRANCH  24  27
ATOM     27  C   UNL     1       1.883   4.800  19.723  0.00  0.00    +0.000 A 
ATOM     28  C   UNL     1       1.512   3.948  20.760  0.00  0.00    +0.000 A 
ATOM     29  C   UNL     1       1.177   2.647  20.433  0.00  0.00    +0.000 A 
ATOM     30  N   UNL     1       1.197   2.158  19.175  0.00  0.00    +0.000 NA
ATOM     31  C   UNL     1       1.542   3.013  18.187  0.00  0.00    +0.000 A 
ATOM     32  C   UNL     1       1.882   4.334  18.406  0.00  0.00    +0.000 A 
ENDBRANCH  24  27
ENDBRANCH  21  23
ENDBRANCH   8  21
TORSDOF 4
ENDMDL
MODEL 3
REMARK VINA RESULT:      -7.5      2.614      3.349
REMARK  Name = 
REMARK  7 active torsions:
REMARK  status: ('A' for Active; 'I' for Inactive)
REMARK    1  A    between atoms: C_1  and  C_2
REMARK    2  A    between atoms: C_4  and  C_5
REMARK    3  A    between atoms: C_6  and  N_7
REMARK    4  A    between atoms: C_14  and  N_15
REMARK    5  A    between atoms: N_15  and  N_16
REMARK    6  A    between atoms: C_17  and  C_19
REMARK    7  A    between atoms: C_27  and  C_28
REMARK                            x       y       z     vdW  Elec       q    Type
REMARK                         _______ _______ _______ _____ _____    ______ ____
ROOT
ATOM      1  N   UNL     1       3.129   6.599  18.620  0.00  0.00    +0.000 N 
ATOM      2  C   UNL     1       2.962   6.078  19.901  0.00  0.00    +0.000 C 
ATOM      3  O   UNL     1       3.513   5.074  20.344  0.00  0.00    +0.000 OA
ATOM      4  N   UNL     1       2.115   6.754  20.728  0.00  0.00    +0.000 N 
ATOM      5  C   UNL     1       1.509   7.958  20.519  0.00  0.00    +0.000 C 
ATOM      6  O   UNL     1       0.846   8.471  21.390  0.00  0.00    +0.000 OA
ATOM      7  C   UNL     1       1.744   8.533  19.179  0.00  0.00    +0.000 C 
ATOM      8  C   UNL     1       1.210   9.726  18.885  0.00  0.00    +0.000 C 
ATOM      9  C   UNL     1       2.538   7.780  18.159  0.00  0.00    +0.000 C 
ATOM     10  O   UNL     1       2.623   8.208  17.010  0.00  0.00    +0.000 OA
ATOM     11  H   UNL     1       1.992   6.361  21.651  0.00  0.00    +0.000 HD
ENDROOT
BRANCH   1  17
ATOM     12  C   UNL     1       6.267   3.658  14.781  0.00  0.00    +0.000 C 
ATOM     13  C   UNL     1       5.449   4.387  15.809  0.00  0.00    +0.000 A 
ATOM     14  C   UNL     1       4.185   3.937  16.193  0.00  0.00    +0.000 A 
ATOM     15  C   UNL     1       3.409   4.652  17.127  0.00  0.00    +0.000 A 
ATOM     16  C   UNL     1       2.020   4.148  17.430  0.00  0.00    +0.000 C 
ATOM     17  C   UNL     1       3.926   5.838  17.702  0.00  0.00    +0.000 A 
ATOM     18  C   UNL     1       5.213   6.291  17.328  0.00  0.00    +0.000 A 
ATOM     19  C   UNL     1       5.859   7.543  17.857  0.00  0.00    +0.000 C 
ATOM     20  C   UNL     1       5.951   5.560  16.377  0.00  0.00    +0.000 A 
ENDBRANCH   1  17
BRANCH   8  21
ATOM     21  N   UNL     1       0.518  10.639  19.665  0.00  0.00    +0.000 N 
ATOM     22  H   UNL     1       0.893  10.770  20.631  0.00  0.00    +0.000 HD
BRANCH  21  23
ATOM     23  N   UNL     1      -0.884  10.742  19.668  0.00  0.00    +0.000 N 
ATOM     24  C   UNL     1      -1.402  11.732  18.836  0.00  0.00    +0.000 C 
ATOM     25  O   UNL     1      -0.700  12.524  18.206  0.00  0.00    +0.000 OA
ATOM     26  H   UNL     1      -1.401   9.880  19.817  0.00  0.00    +0.000 HD
BRANCH  24  27
ATOM     27  C   UNL     1      -2.878  11.795  18.700  0.00  0.00    +0.000 A 
ATOM     28  C   UNL     1      -3.677  12.330  19.707  0.00  0.00    +0.000 A 
ATOM     29  C   UNL     1      -5.041  12.383  19.484  0.00  0.00    +0.000 A 
ATOM     30  N   UNL     1      -5.637  11.941  18.356  0.00  0.00    +0.000 NA
ATOM     31  C   UNL     1      -4.834  11.445  17.388  0.00  0.00    +0.000 A 
ATOM     32  C   UNL     1      -3.460  11.360  17.508  0.00  0.00    +0.000 A 
ENDBRANCH  24  27
ENDBRANCH  21  23
ENDBRANCH   8  21
TORSDOF 4
ENDMDL
MODEL 4
REMARK VINA RESULT:      -7.5      3.266     10.197
REMARK  Name = 
REMARK  7 active torsions:
REMARK  status: ('A' for Active; 'I' for Inactive)
REMARK    1  A    between atoms: C_1  and  C_2
REMARK    2  A    between atoms: C_4  and  C_5
REMARK    3  A    between atoms: C_6  and  N_7
REMARK    4  A    between atoms: C_14  and  N_15
REMARK    5  A    between atoms: N_15  and  N_16
REMARK    6  A    between atoms: C_17  and  C_19
REMARK    7  A    between atoms: C_27  and  C_28
REMARK                            x       y       z     vdW  Elec       q    Type
REMARK                         _______ _______ _______ _____ _____    ______ ____
ROOT
ATOM      1  N   UNL     1      -0.748  12.051  20.117  0.00  0.00    +0.000 N 
ATOM      2  C   UNL     1      -0.235  12.341  18.855  0.00  0.00    +0.000 C 
ATOM      3  O   UNL     1      -0.457  13.363  18.209  0.00  0.00    +0.000 OA
ATOM      4  N   UNL     1       0.587  11.407  18.301  0.00  0.00    +0.000 N 
ATOM      5  C   UNL     1       1.092  10.277  18.875  0.00  0.00    +0.000 C 
ATOM      6  O   UNL     1       1.883   9.585  18.277  0.00  0.00    +0.000 OA
ATOM      7  C   UNL     1       0.590  10.010  20.238  0.00  0.00    +0.000 C 
ATOM      8  C   UNL     1       1.046   8.936  20.896  0.00  0.00    +0.000 C 
ATOM      9  C   UNL     1      -0.432  10.908  20.859  0.00  0.00    +0.000 C 
ATOM     10  O   UNL     1      -0.935  10.610  21.940  0.00  0.00    +0.000 OA
ATOM     11  H   UNL     1       0.944  11.622  17.381  0.00  0.00    +0.000 HD
ENDROOT
BRANCH   1  17
ATOM     12  C   UNL     1      -4.568  15.861  22.149  0.00  0.00    +0.000 C 
ATOM     13  C   UNL     1      -3.564  14.854  21.663  0.00  0.00    +0.000 A 
ATOM     14  C   UNL     1      -2.230  14.894  22.070  0.00  0.00    +0.000 A 
ATOM     15  C   UNL     1      -1.288  13.970  21.574  0.00  0.00    +0.000 A 
ATOM     16  C   UNL     1       0.152  14.128  21.995  0.00  0.00    +0.000 C 
ATOM     17  C   UNL     1      -1.704  12.969  20.663  0.00  0.00    +0.000 A 
ATOM     18  C   UNL     1      -3.059  12.914  20.259  0.00  0.00    +0.000 A 
ATOM     19  C   UNL     1      -3.614  11.910  19.285  0.00  0.00    +0.000 C 
ATOM     20  C   UNL     1      -3.967  13.867  20.760  0.00  0.00    +0.000 A 
ENDBRANCH   1  17
BRANCH   8  21
ATOM     21  N   UNL     1       2.032   8.014  20.578  0.00  0.00    +0.000 N 
ATOM     22  H   UNL     1       2.671   8.301  19.803  0.00  0.00    +0.000 HD
BRANCH  21  23
ATOM     23  N   UNL     1       1.806   6.628  20.537  0.00  0.00    +0.000 N 
ATOM     24  C   UNL     1       2.210   6.002  19.360  0.00  0.00    +0.000 C 
ATOM     25  O   UNL     1       2.653   6.612  18.386  0.00  0.00    +0.000 OA
ATOM     26  H   UNL     1       1.863   6.134  21.422  0.00  0.00    +0.000 HD
BRANCH  24  27
ATOM     27  C   UNL     1       2.118   4.522  19.317  0.00  0.00    +0.000 A 
ATOM     28  C   UNL     1       1.476   3.806  20.324  0.00  0.00    +0.000 A 
ATOM     29  C   UNL     1       1.403   2.431  20.188  0.00  0.00    +0.000 A 
ATOM     30  N   UNL     1       1.924   1.750  19.145  0.00  0.00    +0.000 NA
ATOM     31  C   UNL     1       2.522   2.473  18.173  0.00  0.00    +0.000 A 
ATOM     32  C   UNL     1       2.636   3.850  18.208  0.00  0.00    +0.000 A 
ENDBRANCH  24  27
ENDBRANCH  21  23
ENDBRANCH   8  21
TORSDOF 4
ENDMDL
MODEL 5
REMARK VINA RESULT:      -7.5      3.302     10.083
REMARK  Name = 
REMARK  7 active torsions:
REMARK  status: ('A' for Active; 'I' for Inactive)
REMARK    1  A    between atoms: C_1  and  C_2
REMARK    2  A    between atoms: C_4  and  C_5
REMARK    3  A    between atoms: C_6  and  N_7
REMARK    4  A    between atoms: C_14  and  N_15
REMARK    5  A    between atoms: N_15  and  N_16
REMARK    6  A    between atoms: C_17  and  C_19
REMARK    7  A    between atoms: C_27  and  C_28
REMARK                            x       y       z     vdW  Elec       q    Type
REMARK                         _______ _______ _______ _____ _____    ______ ____
ROOT
ATOM      1  N   UNL     1      -0.759  11.933  19.975  0.00  0.00    +0.000 N 
ATOM      2  C   UNL     1      -0.195  12.301  18.756  0.00  0.00    +0.000 C 
ATOM      3  O   UNL     1      -0.421  13.344  18.147  0.00  0.00    +0.000 OA
ATOM      4  N   UNL     1       0.688  11.422  18.203  0.00  0.00    +0.000 N 
ATOM      5  C   UNL     1       1.204  10.285  18.750  0.00  0.00    +0.000 C 
ATOM      6  O   UNL     1       2.049   9.649  18.163  0.00  0.00    +0.000 OA
ATOM      7  C   UNL     1       0.645   9.936  20.072  0.00  0.00    +0.000 C 
ATOM      8  C   UNL     1       1.106   8.848  20.703  0.00  0.00    +0.000 C 
ATOM      9  C   UNL     1      -0.439  10.768  20.680  0.00  0.00    +0.000 C 
ATOM     10  O   UNL     1      -0.984  10.402  21.719  0.00  0.00    +0.000 OA
ATOM     11  H   UNL     1       1.082  11.693  17.313  0.00  0.00    +0.000 HD
ENDROOT
BRANCH   1  17
ATOM     12  C   UNL     1      -4.865  15.256  22.288  0.00  0.00    +0.000 C 
ATOM     13  C   UNL     1      -3.804  14.409  21.644  0.00  0.00    +0.000 A 
ATOM     14  C   UNL     1      -4.106  13.508  20.622  0.00  0.00    +0.000 A 
ATOM     15  C   UNL     1      -3.109  12.688  20.054  0.00  0.00    +0.000 A 
ATOM     16  C   UNL     1      -3.527  11.681  19.012  0.00  0.00    +0.000 C 
ATOM     17  C   UNL     1      -1.774  12.792  20.513  0.00  0.00    +0.000 A 
ATOM     18  C   UNL     1      -1.460  13.715  21.538  0.00  0.00    +0.000 A 
ATOM     19  C   UNL     1      -0.084  13.902  22.118  0.00  0.00    +0.000 C 
ATOM     20  C   UNL     1      -2.485  14.503  22.094  0.00  0.00    +0.000 A 
ENDBRANCH   1  17
BRANCH   8  21
ATOM     21  N   UNL     1       2.140   7.977  20.395  0.00  0.00    +0.000 N 
ATOM     22  H   UNL     1       2.792   8.311  19.650  0.00  0.00    +0.000 HD
BRANCH  21  23
ATOM     23  N   UNL     1       1.973   6.584  20.308  0.00  0.00    +0.000 N 
ATOM     24  C   UNL     1       2.531   5.995  19.176  0.00  0.00    +0.000 C 
ATOM     25  O   UNL     1       3.056   6.639  18.266  0.00  0.00    +0.000 OA
ATOM     26  H   UNL     1       1.950   6.076  21.187  0.00  0.00    +0.000 HD
BRANCH  24  27
ATOM     27  C   UNL     1       2.500   4.514  19.101  0.00  0.00    +0.000 A 
ATOM     28  C   UNL     1       1.375   3.834  18.641  0.00  0.00    +0.000 A 
ATOM     29  C   UNL     1       1.443   2.455  18.569  0.00  0.00    +0.000 A 
ATOM     30  N   UNL     1       2.529   1.736  18.925  0.00  0.00    +0.000 NA
ATOM     31  C   UNL     1       3.613   2.424  19.348  0.00  0.00    +0.000 A 
ATOM     32  C   UNL     1       3.651   3.802  19.445  0.00  0.00    +0.000 A 
ENDBRANCH  24  27
ENDBRANCH  21  23
ENDBRANCH   8  21
TORSDOF 4
ENDMDL
MODEL 6
REMARK VINA RESULT:      -7.4      2.604      9.798
REMARK  Name = 
REMARK  7 active torsions:
REMARK  status: ('A' for Active; 'I' for Inactive)
REMARK    1  A    between atoms: C_1  and  C_2
REMARK    2  A    between atoms: C_4  and  C_5
REMARK    3  A    between atoms: C_6  and  N_7
REMARK    4  A    between atoms: C_14  and  N_15
REMARK    5  A    between atoms: N_15  and  N_16
REMARK    6  A    between atoms: C_17  and  C_19
REMARK    7  A    between atoms: C_27  and  C_28
REMARK                            x       y       z     vdW  Elec       q    Type
REMARK                         _______ _______ _______ _____ _____    ______ ____
ROOT
ATOM      1  N   UNL     1       0.519  11.405  20.477  0.00  0.00    +0.000 N 
ATOM      2  C   UNL     1       0.440  10.600  21.611  0.00  0.00    +0.000 C 
ATOM      3  O   UNL     1      -0.071  10.918  22.681  0.00  0.00    +0.000 OA
ATOM      4  N   UNL     1       0.976   9.351  21.510  0.00  0.00    +0.000 N 
ATOM      5  C   UNL     1       1.461   8.725  20.400  0.00  0.00    +0.000 C 
ATOM      6  O   UNL     1       1.830   7.575  20.454  0.00  0.00    +0.000 OA
ATOM      7  C   UNL     1       1.482   9.567  19.186  0.00  0.00    +0.000 C 
ATOM      8  C   UNL     1       1.919   9.035  18.037  0.00  0.00    +0.000 C 
ATOM      9  C   UNL     1       1.052  10.998  19.249  0.00  0.00    +0.000 C 
ATOM     10  O   UNL     1       1.190  11.724  18.267  0.00  0.00    +0.000 OA
ATOM     11  H   UNL     1       0.925   8.780  22.342  0.00  0.00    +0.000 HD
ENDROOT
BRANCH   1  17
ATOM     12  C   UNL     1      -1.290  16.871  20.780  0.00  0.00    +0.000 C 
ATOM     13  C   UNL     1      -0.806  15.449  20.745  0.00  0.00    +0.000 A 
ATOM     14  C   UNL     1       0.525  15.121  21.007  0.00  0.00    +0.000 A 
ATOM     15  C   UNL     1       0.977  13.789  20.931  0.00  0.00    +0.000 A 
ATOM     16  C   UNL     1       2.447  13.524  21.146  0.00  0.00    +0.000 C 
ATOM     17  C   UNL     1       0.063  12.759  20.602  0.00  0.00    +0.000 A 
ATOM     18  C   UNL     1      -1.291  13.083  20.350  0.00  0.00    +0.000 A 
ATOM     19  C   UNL     1      -2.347  12.079  19.975  0.00  0.00    +0.000 C 
ATOM     20  C   UNL     1      -1.701  14.428  20.417  0.00  0.00    +0.000 A 
ENDBRANCH   1  17
BRANCH   8  21
ATOM     21  N   UNL     1       2.288   7.740  17.707  0.00  0.00    +0.000 N 
ATOM     22  H   UNL     1       1.729   6.989  18.171  0.00  0.00    +0.000 HD
BRANCH  21  23
ATOM     23  N   UNL     1       3.626   7.334  17.564  0.00  0.00    +0.000 N 
ATOM     24  C   UNL     1       3.823   5.955  17.554  0.00  0.00    +0.000 C 
ATOM     25  O   UNL     1       2.919   5.140  17.744  0.00  0.00    +0.000 OA
ATOM     26  H   UNL     1       4.225   7.937  17.009  0.00  0.00    +0.000 HD
BRANCH  24  27
ATOM     27  C   UNL     1       5.197   5.471  17.272  0.00  0.00    +0.000 A 
ATOM     28  C   UNL     1       6.126   5.290  18.294  0.00  0.00    +0.000 A 
ATOM     29  C   UNL     1       7.374   4.803  17.948  0.00  0.00    +0.000 A 
ATOM     30  N   UNL     1       7.739   4.502  16.684  0.00  0.00    +0.000 NA
ATOM     31  C   UNL     1       6.810   4.668  15.717  0.00  0.00    +0.000 A 
ATOM     32  C   UNL     1       5.534   5.137  15.959  0.00  0.00    +0.000 A 
ENDBRANCH  24  27
ENDBRANCH  21  23
ENDBRANCH   8  21
TORSDOF 4
ENDMDL
MODEL 7
REMARK VINA RESULT:      -7.4      3.599     10.280
REMARK  Name = 
REMARK  7 active torsions:
REMARK  status: ('A' for Active; 'I' for Inactive)
REMARK    1  A    between atoms: C_1  and  C_2
REMARK    2  A    between atoms: C_4  and  C_5
REMARK    3  A    between atoms: C_6  and  N_7
REMARK    4  A    between atoms: C_14  and  N_15
REMARK    5  A    between atoms: N_15  and  N_16
REMARK    6  A    between atoms: C_17  and  C_19
REMARK    7  A    between atoms: C_27  and  C_28
REMARK                            x       y       z     vdW  Elec       q    Type
REMARK                         _______ _______ _______ _____ _____    ______ ____
ROOT
ATOM      1  N   UNL     1      -0.601  12.391  20.849  0.00  0.00    +0.000 N 
ATOM      2  C   UNL     1      -0.421  12.435  19.468  0.00  0.00    +0.000 C 
ATOM      3  O   UNL     1      -0.749  13.362  18.732  0.00  0.00    +0.000 OA
ATOM      4  N   UNL     1       0.175  11.351  18.896  0.00  0.00    +0.000 N 
ATOM      5  C   UNL     1       0.751  10.279  19.512  0.00  0.00    +0.000 C 
ATOM      6  O   UNL     1       1.319   9.430  18.864  0.00  0.00    +0.000 OA
ATOM      7  C   UNL     1       0.610  10.273  20.982  0.00  0.00    +0.000 C 
ATOM      8  C   UNL     1       1.164   9.272  21.680  0.00  0.00    +0.000 C 
ATOM      9  C   UNL     1      -0.163  11.349  21.674  0.00  0.00    +0.000 C 
ATOM     10  O   UNL     1      -0.381  11.270  22.881  0.00  0.00    +0.000 OA
ATOM     11  H   UNL     1       0.289  11.388  17.893  0.00  0.00    +0.000 HD
ENDROOT
BRANCH   1  17
ATOM     12  C   UNL     1      -3.546  16.816  23.081  0.00  0.00    +0.000 C 
ATOM     13  C   UNL     1      -2.759  15.656  22.541  0.00  0.00    +0.000 A 
ATOM     14  C   UNL     1      -1.364  15.643  22.561  0.00  0.00    +0.000 A 
ATOM     15  C   UNL     1      -0.636  14.568  22.014  0.00  0.00    +0.000 A 
ATOM     16  C   UNL     1       0.870  14.664  21.998  0.00  0.00    +0.000 C 
ATOM     17  C   UNL     1      -1.329  13.470  21.449  0.00  0.00    +0.000 A 
ATOM     18  C   UNL     1      -2.744  13.471  21.440  0.00  0.00    +0.000 A 
ATOM     19  C   UNL     1      -3.588  12.371  20.853  0.00  0.00    +0.000 C 
ATOM     20  C   UNL     1      -3.436  14.571  21.978  0.00  0.00    +0.000 A 
ENDBRANCH   1  17
BRANCH   8  21
ATOM     21  N   UNL     1       1.980   8.222  21.290  0.00  0.00    +0.000 N 
ATOM     22  H   UNL     1       2.749   8.481  20.632  0.00  0.00    +0.000 HD
BRANCH  21  23
ATOM     23  N   UNL     1       1.493   6.939  20.990  0.00  0.00    +0.000 N 
ATOM     24  C   UNL     1       2.263   6.215  20.082  0.00  0.00    +0.000 C 
ATOM     25  O   UNL     1       3.248   6.681  19.508  0.00  0.00    +0.000 OA
ATOM     26  H   UNL     1       0.999   6.457  21.735  0.00  0.00    +0.000 HD
BRANCH  24  27
ATOM     27  C   UNL     1       1.868   4.808  19.833  0.00  0.00    +0.000 A 
ATOM     28  C   UNL     1       1.632   3.924  20.883  0.00  0.00    +0.000 A 
ATOM     29  C   UNL     1       1.234   2.638  20.563  0.00  0.00    +0.000 A 
ATOM     30  N   UNL     1       1.069   2.195  19.298  0.00  0.00    +0.000 NA
ATOM     31  C   UNL     1       1.285   3.080  18.301  0.00  0.00    +0.000 A 
ATOM     32  C   UNL     1       1.674   4.389  18.515  0.00  0.00    +0.000 A 
ENDBRANCH  24  27
ENDBRANCH  21  23
ENDBRANCH   8  21
TORSDOF 4
ENDMDL
MODEL 8
REMARK VINA RESULT:      -7.4      2.583      9.703
REMARK  Name = 
REMARK  7 active torsions:
REMARK  status: ('A' for Active; 'I' for Inactive)
REMARK    1  A    between atoms: C_1  and  C_2
REMARK    2  A    between atoms: C_4  and  C_5
REMARK    3  A    between atoms: C_6  and  N_7
REMARK    4  A    between atoms: C_14  and  N_15
REMARK    5  A    between atoms: N_15  and  N_16
REMARK    6  A    between atoms: C_17  and  C_19
REMARK    7  A    between atoms: C_27  and  C_28
REMARK                            x       y       z     vdW  Elec       q    Type
REMARK                         _______ _______ _______ _____ _____    ______ ____
ROOT
ATOM      1  N   UNL     1       0.543  11.381  20.456  0.00  0.00    +0.000 N 
ATOM      2  C   UNL     1       0.443  10.617  21.617  0.00  0.00    +0.000 C 
ATOM      3  O   UNL     1      -0.072  10.980  22.672  0.00  0.00    +0.000 OA
ATOM      4  N   UNL     1       0.962   9.358  21.564  0.00  0.00    +0.000 N 
ATOM      5  C   UNL     1       1.446   8.686  20.480  0.00  0.00    +0.000 C 
ATOM      6  O   UNL     1       1.797   7.533  20.578  0.00  0.00    +0.000 OA
ATOM      7  C   UNL     1       1.489   9.485  19.239  0.00  0.00    +0.000 C 
ATOM      8  C   UNL     1       1.926   8.907  18.112  0.00  0.00    +0.000 C 
ATOM      9  C   UNL     1       1.079  10.924  19.248  0.00  0.00    +0.000 C 
ATOM     10  O   UNL     1       1.236  11.613  18.242  0.00  0.00    +0.000 OA
ATOM     11  H   UNL     1       0.895   8.817  22.415  0.00  0.00    +0.000 HD
ENDROOT
BRANCH   1  17
ATOM     12  C   UNL     1      -1.233  16.843  20.953  0.00  0.00    +0.000 C 
ATOM     13  C   UNL     1      -0.784  15.420  20.779  0.00  0.00    +0.000 A 
ATOM     14  C   UNL     1      -1.676  14.409  20.419  0.00  0.00    +0.000 A 
ATOM     15  C   UNL     1      -1.251  13.070  20.300  0.00  0.00    +0.000 A 
ATOM     16  C   UNL     1      -2.290  12.021  19.988  0.00  0.00    +0.000 C 
ATOM     17  C   UNL     1       0.107  12.745  20.530  0.00  0.00    +0.000 A 
ATOM     18  C   UNL     1       1.018  13.768  20.881  0.00  0.00    +0.000 A 
ATOM     19  C   UNL     1       2.479  13.542  21.167  0.00  0.00    +0.000 C 
ATOM     20  C   UNL     1       0.554  15.091  21.009  0.00  0.00    +0.000 A 
ENDBRANCH   1  17
BRANCH   8  21
ATOM     21  N   UNL     1       2.279   7.596  17.831  0.00  0.00    +0.000 N 
ATOM     22  H   UNL     1       1.724   6.870  18.339  0.00  0.00    +0.000 HD
BRANCH  21  23
ATOM     23  N   UNL     1       3.610   7.173  17.677  0.00  0.00    +0.000 N 
ATOM     24  C   UNL     1       3.776   5.798  17.527  0.00  0.00    +0.000 C 
ATOM     25  O   UNL     1       2.849   4.991  17.610  0.00  0.00    +0.000 OA
ATOM     26  H   UNL     1       4.237   7.815  17.201  0.00  0.00    +0.000 HD
BRANCH  24  27
ATOM     27  C   UNL     1       5.144   5.311  17.227  0.00  0.00    +0.000 A 
ATOM     28  C   UNL     1       5.537   5.004  15.926  0.00  0.00    +0.000 A 
ATOM     29  C   UNL     1       6.842   4.591  15.730  0.00  0.00    +0.000 A 
ATOM     30  N   UNL     1       7.748   4.463  16.723  0.00  0.00    +0.000 NA
ATOM     31  C   UNL     1       7.345   4.787  17.971  0.00  0.00    +0.000 A 
ATOM     32  C   UNL     1       6.068   5.221  18.271  0.00  0.00    +0.000 A 
ENDBRANCH  24  27
ENDBRANCH  21  23
ENDBRANCH   8  21
TORSDOF 4
ENDMDL
MODEL 9
REMARK VINA RESULT:      -7.4      2.718      9.736
REMARK  Name = 
REMARK  7 active torsions:
REMARK  status: ('A' for Active; 'I' for Inactive)
REMARK    1  A    between atoms: C_1  and  C_2
REMARK    2  A    between atoms: C_4  and  C_5
REMARK    3  A    between atoms: C_6  and  N_7
REMARK    4  A    between atoms: C_14  and  N_15
REMARK    5  A    between atoms: N_15  and  N_16
REMARK    6  A    between atoms: C_17  and  C_19
REMARK    7  A    between atoms: C_27  and  C_28
REMARK                            x       y       z     vdW  Elec       q    Type
REMARK                         _______ _______ _______ _____ _____    ______ ____
ROOT
ATOM      1  N   UNL     1       0.577  11.801  20.245  0.00  0.00    +0.000 N 
ATOM      2  C   UNL     1       0.603  11.896  18.855  0.00  0.00    +0.000 C 
ATOM      3  O   UNL     1       0.464  12.928  18.204  0.00  0.00    +0.000 OA
ATOM      4  N   UNL     1       0.805  10.736  18.169  0.00  0.00    +0.000 N 
ATOM      5  C   UNL     1       1.126   9.505  18.663  0.00  0.00    +0.000 C 
ATOM      6  O   UNL     1       1.358   8.584  17.915  0.00  0.00    +0.000 OA
ATOM      7  C   UNL     1       1.158   9.431  20.138  0.00  0.00    +0.000 C 
ATOM      8  C   UNL     1       1.488   8.270  20.719  0.00  0.00    +0.000 C 
ATOM      9  C   UNL     1       0.799  10.623  20.966  0.00  0.00    +0.000 C 
ATOM     10  O   UNL     1       0.706  10.518  22.187  0.00  0.00    +0.000 OA
ATOM     11  H   UNL     1       0.810  10.813  17.162  0.00  0.00    +0.000 HD
ENDROOT
BRANCH   1  17
ATOM     12  C   UNL     1      -0.682  16.490  23.355  0.00  0.00    +0.000 C 
ATOM     13  C   UNL     1      -0.383  15.283  22.511  0.00  0.00    +0.000 A 
ATOM     14  C   UNL     1      -1.383  14.385  22.136  0.00  0.00    +0.000 A 
ATOM     15  C   UNL     1      -1.084  13.234  21.380  0.00  0.00    +0.000 A 
ATOM     16  C   UNL     1      -2.204  12.267  21.084  0.00  0.00    +0.000 C 
ATOM     17  C   UNL     1       0.251  12.991  20.976  0.00  0.00    +0.000 A 
ATOM     18  C   UNL     1       1.266  13.907  21.340  0.00  0.00    +0.000 A 
ATOM     19  C   UNL     1       2.720  13.746  20.985  0.00  0.00    +0.000 C 
ATOM     20  C   UNL     1       0.932  15.035  22.112  0.00  0.00    +0.000 A 
ENDBRANCH   1  17
BRANCH   8  21
ATOM     21  N   UNL     1       1.930   7.069  20.186  0.00  0.00    +0.000 N 
ATOM     22  H   UNL     1       1.573   6.213  20.668  0.00  0.00    +0.000 HD
BRANCH  21  23
ATOM     23  N   UNL     1       3.246   6.863  19.739  0.00  0.00    +0.000 N 
ATOM     24  C   UNL     1       3.385   5.893  18.749  0.00  0.00    +0.000 C 
ATOM     25  O   UNL     1       2.452   5.196  18.348  0.00  0.00    +0.000 OA
ATOM     26  H   UNL     1       3.858   7.674  19.746  0.00  0.00    +0.000 HD
BRANCH  24  27
ATOM     27  C   UNL     1       4.731   5.730  18.148  0.00  0.00    +0.000 A 
ATOM     28  C   UNL     1       4.976   6.063  16.818  0.00  0.00    +0.000 A 
ATOM     29  C   UNL     1       6.268   5.915  16.346  0.00  0.00    +0.000 A 
ATOM     30  N   UNL     1       7.295   5.461  17.096  0.00  0.00    +0.000 NA
ATOM     31  C   UNL     1       7.032   5.165  18.388  0.00  0.00    +0.000 A 
ATOM     32  C   UNL     1       5.779   5.290  18.958  0.00  0.00    +0.000 A 
ENDBRANCH  24  27
ENDBRANCH  21  23
ENDBRANCH   8  21
TORSDOF 4
ENDMDL
