MODEL 1
REMARK VINA RESULT:      -8.0      0.000      0.000
REMARK  Name = 
REMARK  7 active torsions:
REMARK  status: ('A' for Active; 'I' for Inactive)
REMARK    1  A    between atoms: C_1  and  C_2
REMARK    2  A    between atoms: C_6  and  O_7
REMARK    3  A    between atoms: C_8  and  O_9
REMARK    4  A    between atoms: C_10  and  C_11
REMARK    5  A    between atoms: C_15  and  C_16
REMARK    6  A    between atoms: C_19  and  C_20
REMARK    7  A    between atoms: C_19  and  C_21
REMARK                            x       y       z     vdW  Elec       q    Type
REMARK                         _______ _______ _______ _____ _____    ______ ____
ROOT
ATOM      1  C   UNL     1       5.862   3.615  13.400  0.00  0.00    +0.000 C 
ATOM      2  C   UNL     1       5.753   4.356  14.700  0.00  0.00    +0.000 A 
ATOM      3  C   UNL     1       4.639   4.186  15.532  0.00  0.00    +0.000 A 
ATOM      4  C   UNL     1       4.600   4.674  16.860  0.00  0.00    +0.000 A 
ATOM      5  C   UNL     1       5.647   5.522  17.286  0.00  0.00    +0.000 A 
ATOM      6  C   UNL     1       6.695   5.801  16.386  0.00  0.00    +0.000 A 
ATOM      7  C   UNL     1       6.766   5.189  15.136  0.00  0.00    +0.000 A 
ATOM      8  C   UNL     1       5.675   6.066  18.697  0.00  0.00    +0.000 C 
ATOM      9  C   UNL     1       6.821   5.437  19.501  0.00  0.00    +0.000 C 
ATOM     10  C   UNL     1       4.355   5.927  19.468  0.00  0.00    +0.000 C 
ATOM     11  C   UNL     1       3.383   4.874  18.996  0.00  0.00    +0.000 C 
ATOM     12  C   UNL     1       3.512   4.255  17.800  0.00  0.00    +0.000 C 
ATOM     13  C   UNL     1       2.513   3.166  17.390  0.00  0.00    +0.000 C 
ATOM     14  C   UNL     1       3.152   1.806  17.032  0.00  0.00    +0.000 C 
ATOM     15  C   UNL     1       1.475   2.855  18.486  0.00  0.00    +0.000 C 
ATOM     16  O   UNL     1       1.122   4.001  19.240  0.00  0.00    +0.000 OA
ATOM     17  C   UNL     1       2.225   4.580  19.956  0.00  0.00    +0.000 C 
ATOM     18  C   UNL     1       1.627   5.858  20.575  0.00  0.00    +0.000 C 
ATOM     19  C   UNL     1       2.678   3.659  21.104  0.00  0.00    +0.000 C 
ENDROOT
BRANCH   6  20
ATOM     20  O   UNL     1       7.741   6.650  16.673  0.00  0.00    +0.000 OA
ATOM     21  H   UNL     1       8.140   6.383  17.510  0.00  0.00    +0.000 HD
ENDBRANCH   6  20
BRANCH   7  22
ATOM     22  O   UNL     1       7.863   5.410  14.347  0.00  0.00    +0.000 OA
ATOM     23  H   UNL     1       7.540   6.022  13.657  0.00  0.00    +0.000 HD
ENDBRANCH   7  22
TORSDOF 2
ENDMDL
MODEL 2
REMARK VINA RESULT:      -6.7      8.776     10.894
REMARK  Name = 
REMARK  7 active torsions:
REMARK  status: ('A' for Active; 'I' for Inactive)
REMARK    1  A    between atoms: C_1  and  C_2
REMARK    2  A    between atoms: C_6  and  O_7
REMARK    3  A    between atoms: C_8  and  O_9
REMARK    4  A    between atoms: C_10  and  C_11
REMARK    5  A    between atoms: C_15  and  C_16
REMARK    6  A    between atoms: C_19  and  C_20
REMARK    7  A    between atoms: C_19  and  C_21
REMARK                            x       y       z     vdW  Elec       q    Type
REMARK                         _______ _______ _______ _____ _____    ______ ____
ROOT
ATOM      1  C   UNL     1      11.082  15.997  16.621  0.00  0.00    +0.000 C 
ATOM      2  C   UNL     1      10.986  14.840  17.572  0.00  0.00    +0.000 A 
ATOM      3  C   UNL     1      10.331  14.975  18.803  0.00  0.00    +0.000 A 
ATOM      4  C   UNL     1      10.012  13.864  19.620  0.00  0.00    +0.000 A 
ATOM      5  C   UNL     1      10.543  12.604  19.264  0.00  0.00    +0.000 A 
ATOM      6  C   UNL     1      11.322  12.509  18.094  0.00  0.00    +0.000 A 
ATOM      7  C   UNL     1      11.496  13.599  17.243  0.00  0.00    +0.000 A 
ATOM      8  C   UNL     1      10.229  11.374  20.085  0.00  0.00    +0.000 C 
ATOM      9  C   UNL     1       9.324  10.412  19.303  0.00  0.00    +0.000 C 
ATOM     10  C   UNL     1       9.624  11.657  21.466  0.00  0.00    +0.000 C 
ATOM     11  C   UNL     1       8.950  12.992  21.668  0.00  0.00    +0.000 C 
ATOM     12  C   UNL     1       9.092  14.014  20.793  0.00  0.00    +0.000 C 
ATOM     13  C   UNL     1       8.354  15.336  21.032  0.00  0.00    +0.000 C 
ATOM     14  C   UNL     1       7.445  15.788  19.867  0.00  0.00    +0.000 C 
ATOM     15  C   UNL     1       7.441  15.302  22.274  0.00  0.00    +0.000 C 
ATOM     16  O   UNL     1       7.969  14.497  23.314  0.00  0.00    +0.000 OA
ATOM     17  C   UNL     1       8.120  13.115  22.951  0.00  0.00    +0.000 C 
ATOM     18  C   UNL     1       8.820  12.492  24.174  0.00  0.00    +0.000 C 
ATOM     19  C   UNL     1       6.747  12.438  22.788  0.00  0.00    +0.000 C 
ENDROOT
BRANCH   6  20
ATOM     20  O   UNL     1      11.930  11.346  17.674  0.00  0.00    +0.000 OA
ATOM     21  H   UNL     1      12.259  11.473  16.776  0.00  0.00    +0.000 HD
ENDBRANCH   6  20
BRANCH   7  22
ATOM     22  O   UNL     1      12.169  13.422  16.063  0.00  0.00    +0.000 OA
ATOM     23  H   UNL     1      12.451  12.486  16.088  0.00  0.00    +0.000 HD
ENDBRANCH   7  22
TORSDOF 2
ENDMDL
MODEL 3
REMARK VINA RESULT:      -6.5      8.380     10.945
REMARK  Name = 
REMARK  7 active torsions:
REMARK  status: ('A' for Active; 'I' for Inactive)
REMARK    1  A    between atoms: C_1  and  C_2
REMARK    2  A    between atoms: C_6  and  O_7
REMARK    3  A    between atoms: C_8  and  O_9
REMARK    4  A    between atoms: C_10  and  C_11
REMARK    5  A    between atoms: C_15  and  C_16
REMARK    6  A    between atoms: C_19  and  C_20
REMARK    7  A    between atoms: C_19  and  C_21
REMARK                            x       y       z     vdW  Elec       q    Type
REMARK                         _______ _______ _______ _____ _____    ______ ____
ROOT
ATOM      1  C   UNL     1      -2.410  11.109  16.715  0.00  0.00    +0.000 C 
ATOM      2  C   UNL     1      -1.884  11.315  18.105  0.00  0.00    +0.000 A 
ATOM      3  C   UNL     1      -2.604  12.068  19.041  0.00  0.00    +0.000 A 
ATOM      4  C   UNL     1      -2.270  12.093  20.416  0.00  0.00    +0.000 A 
ATOM      5  C   UNL     1      -1.057  11.488  20.816  0.00  0.00    +0.000 A 
ATOM      6  C   UNL     1      -0.268  10.853  19.836  0.00  0.00    +0.000 A 
ATOM      7  C   UNL     1      -0.701  10.730  18.517  0.00  0.00    +0.000 A 
ATOM      8  C   UNL     1      -0.648  11.465  22.271  0.00  0.00    +0.000 C 
ATOM      9  C   UNL     1      -0.713  10.039  22.834  0.00  0.00    +0.000 C 
ATOM     10  C   UNL     1      -1.433  12.424  23.176  0.00  0.00    +0.000 C 
ATOM     11  C   UNL     1      -2.788  12.879  22.696  0.00  0.00    +0.000 C 
ATOM     12  C   UNL     1      -3.204  12.693  21.421  0.00  0.00    +0.000 C 
ATOM     13  C   UNL     1      -4.608  13.144  21.000  0.00  0.00    +0.000 C 
ATOM     14  C   UNL     1      -5.487  12.032  20.387  0.00  0.00    +0.000 C 
ATOM     15  C   UNL     1      -5.432  13.722  22.167  0.00  0.00    +0.000 C 
ATOM     16  O   UNL     1      -4.631  14.420  23.105  0.00  0.00    +0.000 OA
ATOM     17  C   UNL     1      -3.646  13.593  23.747  0.00  0.00    +0.000 C 
ATOM     18  C   UNL     1      -2.836  14.588  24.599  0.00  0.00    +0.000 C 
ATOM     19  C   UNL     1      -4.314  12.581  24.696  0.00  0.00    +0.000 C 
ENDROOT
BRANCH   6  20
ATOM     20  O   UNL     1       0.954  10.273  20.098  0.00  0.00    +0.000 OA
ATOM     21  H   UNL     1       1.503  10.905  20.578  0.00  0.00    +0.000 HD
ENDBRANCH   6  20
BRANCH   7  22
ATOM     22  O   UNL     1       0.054  10.006  17.632  0.00  0.00    +0.000 OA
ATOM     23  H   UNL     1      -0.259  10.304  16.754  0.00  0.00    +0.000 HD
ENDBRANCH   7  22
TORSDOF 2
ENDMDL
MODEL 4
REMARK VINA RESULT:      -6.4      9.814     12.785
REMARK  Name = 
REMARK  7 active torsions:
REMARK  status: ('A' for Active; 'I' for Inactive)
REMARK    1  A    between atoms: C_1  and  C_2
REMARK    2  A    between atoms: C_6  and  O_7
REMARK    3  A    between atoms: C_8  and  O_9
REMARK    4  A    between atoms: C_10  and  C_11
REMARK    5  A    between atoms: C_15  and  C_16
REMARK    6  A    between atoms: C_19  and  C_20
REMARK    7  A    between atoms: C_19  and  C_21
REMARK                            x       y       z     vdW  Elec       q    Type
REMARK                         _______ _______ _______ _____ _____    ______ ____
ROOT
ATOM      1  C   UNL     1      -0.675  12.098  18.259  0.00  0.00    +0.000 C 
ATOM      2  C   UNL     1      -2.153  11.889  18.402  0.00  0.00    +0.000 A 
ATOM      3  C   UNL     1      -2.788  12.072  19.637  0.00  0.00    +0.000 A 
ATOM      4  C   UNL     1      -4.197  12.118  19.769  0.00  0.00    +0.000 A 
ATOM      5  C   UNL     1      -4.980  11.777  18.643  0.00  0.00    +0.000 A 
ATOM      6  C   UNL     1      -4.322  11.455  17.439  0.00  0.00    +0.000 A 
ATOM      7  C   UNL     1      -2.938  11.558  17.314  0.00  0.00    +0.000 A 
ATOM      8  C   UNL     1      -6.490  11.820  18.711  0.00  0.00    +0.000 C 
ATOM      9  C   UNL     1      -7.043  12.965  17.852  0.00  0.00    +0.000 C 
ATOM     10  C   UNL     1      -7.069  11.900  20.130  0.00  0.00    +0.000 C 
ATOM     11  C   UNL     1      -6.168  12.426  21.219  0.00  0.00    +0.000 C 
ATOM     12  C   UNL     1      -4.833  12.570  21.047  0.00  0.00    +0.000 C 
ATOM     13  C   UNL     1      -3.972  13.144  22.178  0.00  0.00    +0.000 C 
ATOM     14  C   UNL     1      -3.142  14.388  21.791  0.00  0.00    +0.000 C 
ATOM     15  C   UNL     1      -4.798  13.570  23.409  0.00  0.00    +0.000 C 
ATOM     16  O   UNL     1      -5.923  12.736  23.624  0.00  0.00    +0.000 OA
ATOM     17  C   UNL     1      -6.868  12.757  22.542  0.00  0.00    +0.000 C 
ATOM     18  C   UNL     1      -7.907  11.693  22.946  0.00  0.00    +0.000 C 
ATOM     19  C   UNL     1      -7.583  14.119  22.464  0.00  0.00    +0.000 C 
ENDROOT
BRANCH   6  20
ATOM     20  O   UNL     1      -4.978  11.061  16.293  0.00  0.00    +0.000 OA
ATOM     21  H   UNL     1      -4.360  11.095  15.553  0.00  0.00    +0.000 HD
ENDBRANCH   6  20
BRANCH   7  22
ATOM     22  O   UNL     1      -2.362  11.341  16.090  0.00  0.00    +0.000 OA
ATOM     23  H   UNL     1      -3.026  10.810  15.606  0.00  0.00    +0.000 HD
ENDBRANCH   7  22
TORSDOF 2
ENDMDL
MODEL 5
REMARK VINA RESULT:      -6.2      9.048     12.236
REMARK  Name = 
REMARK  7 active torsions:
REMARK  status: ('A' for Active; 'I' for Inactive)
REMARK    1  A    between atoms: C_1  and  C_2
REMARK    2  A    between atoms: C_6  and  O_7
REMARK    3  A    between atoms: C_8  and  O_9
REMARK    4  A    between atoms: C_10  and  C_11
REMARK    5  A    between atoms: C_15  and  C_16
REMARK    6  A    between atoms: C_19  and  C_20
REMARK    7  A    between atoms: C_19  and  C_21
REMARK                            x       y       z     vdW  Elec       q    Type
REMARK                         _______ _______ _______ _____ _____    ______ ____
ROOT
ATOM      1  C   UNL     1      -7.122  12.405  21.674  0.00  0.00    +0.000 C 
ATOM      2  C   UNL     1      -6.053  12.299  20.627  0.00  0.00    +0.000 A 
ATOM      3  C   UNL     1      -4.741  12.711  20.896  0.00  0.00    +0.000 A 
ATOM      4  C   UNL     1      -3.659  12.417  20.034  0.00  0.00    +0.000 A 
ATOM      5  C   UNL     1      -3.952  11.854  18.770  0.00  0.00    +0.000 A 
ATOM      6  C   UNL     1      -5.296  11.574  18.454  0.00  0.00    +0.000 A 
ATOM      7  C   UNL     1      -6.317  11.750  19.387  0.00  0.00    +0.000 A 
ATOM      8  C   UNL     1      -2.842  11.500  17.806  0.00  0.00    +0.000 C 
ATOM      9  C   UNL     1      -2.714   9.978  17.656  0.00  0.00    +0.000 C 
ATOM     10  C   UNL     1      -1.475  12.111  18.145  0.00  0.00    +0.000 C 
ATOM     11  C   UNL     1      -1.239  12.536  19.573  0.00  0.00    +0.000 C 
ATOM     12  C   UNL     1      -2.245  12.642  20.472  0.00  0.00    +0.000 C 
ATOM     13  C   UNL     1      -1.939  13.043  21.920  0.00  0.00    +0.000 C 
ATOM     14  C   UNL     1      -2.437  12.042  22.986  0.00  0.00    +0.000 C 
ATOM     15  C   UNL     1      -0.432  13.217  22.193  0.00  0.00    +0.000 C 
ATOM     16  O   UNL     1       0.268  13.727  21.072  0.00  0.00    +0.000 OA
ATOM     17  C   UNL     1       0.217  12.867  19.922  0.00  0.00    +0.000 C 
ATOM     18  C   UNL     1       0.920  13.686  18.823  0.00  0.00    +0.000 C 
ATOM     19  C   UNL     1       1.034  11.584  20.160  0.00  0.00    +0.000 C 
ENDROOT
BRANCH   6  20
ATOM     20  O   UNL     1      -5.705  11.071  17.239  0.00  0.00    +0.000 OA
ATOM     21  H   UNL     1      -4.933  10.968  16.668  0.00  0.00    +0.000 HD
ENDBRANCH   6  20
BRANCH   7  22
ATOM     22  O   UNL     1      -7.589  11.357  19.064  0.00  0.00    +0.000 OA
ATOM     23  H   UNL     1      -7.544  11.174  18.104  0.00  0.00    +0.000 HD
ENDBRANCH   7  22
TORSDOF 2
ENDMDL
MODEL 6
REMARK VINA RESULT:      -6.2      2.961      4.849
REMARK  Name = 
REMARK  7 active torsions:
REMARK  status: ('A' for Active; 'I' for Inactive)
REMARK    1  A    between atoms: C_1  and  C_2
REMARK    2  A    between atoms: C_6  and  O_7
REMARK    3  A    between atoms: C_8  and  O_9
REMARK    4  A    between atoms: C_10  and  C_11
REMARK    5  A    between atoms: C_15  and  C_16
REMARK    6  A    between atoms: C_19  and  C_20
REMARK    7  A    between atoms: C_19  and  C_21
REMARK                            x       y       z     vdW  Elec       q    Type
REMARK                         _______ _______ _______ _____ _____    ______ ____
ROOT
ATOM      1  C   UNL     1       5.093   6.053  15.757  0.00  0.00    +0.000 C 
ATOM      2  C   UNL     1       4.462   5.851  17.103  0.00  0.00    +0.000 A 
ATOM      3  C   UNL     1       3.825   6.910  17.763  0.00  0.00    +0.000 A 
ATOM      4  C   UNL     1       3.019   6.717  18.910  0.00  0.00    +0.000 A 
ATOM      5  C   UNL     1       3.018   5.438  19.513  0.00  0.00    +0.000 A 
ATOM      6  C   UNL     1       3.779   4.413  18.916  0.00  0.00    +0.000 A 
ATOM      7  C   UNL     1       4.447   4.609  17.708  0.00  0.00    +0.000 A 
ATOM      8  C   UNL     1       2.167   5.159  20.731  0.00  0.00    +0.000 C 
ATOM      9  C   UNL     1       1.013   4.208  20.385  0.00  0.00    +0.000 C 
ATOM     10  C   UNL     1       1.624   6.408  21.438  0.00  0.00    +0.000 C 
ATOM     11  C   UNL     1       1.538   7.680  20.632  0.00  0.00    +0.000 C 
ATOM     12  C   UNL     1       2.151   7.820  19.433  0.00  0.00    +0.000 C 
ATOM     13  C   UNL     1       1.998   9.124  18.642  0.00  0.00    +0.000 C 
ATOM     14  C   UNL     1       1.445   8.949  17.210  0.00  0.00    +0.000 C 
ATOM     15  C   UNL     1       1.057  10.137  19.324  0.00  0.00    +0.000 C 
ATOM     16  O   UNL     1       1.129  10.080  20.737  0.00  0.00    +0.000 OA
ATOM     17  C   UNL     1       0.733   8.811  21.282  0.00  0.00    +0.000 C 
ATOM     18  C   UNL     1       1.021   8.956  22.789  0.00  0.00    +0.000 C 
ATOM     19  C   UNL     1      -0.780   8.586  21.103  0.00  0.00    +0.000 C 
ENDROOT
BRANCH   6  20
ATOM     20  O   UNL     1       3.892   3.144  19.439  0.00  0.00    +0.000 OA
ATOM     21  H   UNL     1       3.035   2.874  19.791  0.00  0.00    +0.000 HD
ENDBRANCH   6  20
BRANCH   7  22
ATOM     22  O   UNL     1       5.079   3.548  17.117  0.00  0.00    +0.000 OA
ATOM     23  H   UNL     1       4.403   3.172  16.519  0.00  0.00    +0.000 HD
ENDBRANCH   7  22
TORSDOF 2
ENDMDL
MODEL 7
REMARK VINA RESULT:      -6.1     10.051     12.312
REMARK  Name = 
REMARK  7 active torsions:
REMARK  status: ('A' for Active; 'I' for Inactive)
REMARK    1  A    between atoms: C_1  and  C_2
REMARK    2  A    between atoms: C_6  and  O_7
REMARK    3  A    between atoms: C_8  and  O_9
REMARK    4  A    between atoms: C_10  and  C_11
REMARK    5  A    between atoms: C_15  and  C_16
REMARK    6  A    between atoms: C_19  and  C_20
REMARK    7  A    between atoms: C_19  and  C_21
REMARK                            x       y       z     vdW  Elec       q    Type
REMARK                         _______ _______ _______ _____ _____    ______ ____
ROOT
ATOM      1  C   UNL     1      -3.884  10.805  16.464  0.00  0.00    +0.000 C 
ATOM      2  C   UNL     1      -3.556  11.500  17.752  0.00  0.00    +0.000 A 
ATOM      3  C   UNL     1      -4.572  11.975  18.591  0.00  0.00    +0.000 A 
ATOM      4  C   UNL     1      -4.323  12.420  19.911  0.00  0.00    +0.000 A 
ATOM      5  C   UNL     1      -2.977  12.565  20.320  0.00  0.00    +0.000 A 
ATOM      6  C   UNL     1      -1.957  12.216  19.411  0.00  0.00    +0.000 A 
ATOM      7  C   UNL     1      -2.248  11.650  18.171  0.00  0.00    +0.000 A 
ATOM      8  C   UNL     1      -2.640  13.021  21.721  0.00  0.00    +0.000 C 
ATOM      9  C   UNL     1      -2.013  11.878  22.531  0.00  0.00    +0.000 C 
ATOM     10  C   UNL     1      -3.812  13.634  22.499  0.00  0.00    +0.000 C 
ATOM     11  C   UNL     1      -5.207  13.276  22.048  0.00  0.00    +0.000 C 
ATOM     12  C   UNL     1      -5.452  12.674  20.862  0.00  0.00    +0.000 C 
ATOM     13  C   UNL     1      -6.887  12.301  20.473  0.00  0.00    +0.000 C 
ATOM     14  C   UNL     1      -7.099  10.809  20.135  0.00  0.00    +0.000 C 
ATOM     15  C   UNL     1      -7.914  12.620  21.579  0.00  0.00    +0.000 C 
ATOM     16  O   UNL     1      -7.576  13.782  22.315  0.00  0.00    +0.000 OA
ATOM     17  C   UNL     1      -6.327  13.674  23.017  0.00  0.00    +0.000 C 
ATOM     18  C   UNL     1      -6.123  15.078  23.617  0.00  0.00    +0.000 C 
ATOM     19  C   UNL     1      -6.435  12.668  24.179  0.00  0.00    +0.000 C 
ENDROOT
BRANCH   6  20
ATOM     20  O   UNL     1      -0.614  12.360  19.680  0.00  0.00    +0.000 OA
ATOM     21  H   UNL     1      -0.125  12.332  18.848  0.00  0.00    +0.000 HD
ENDBRANCH   6  20
BRANCH   7  22
ATOM     22  O   UNL     1      -1.217  11.227  17.375  0.00  0.00    +0.000 OA
ATOM     23  H   UNL     1      -1.656  10.705  16.674  0.00  0.00    +0.000 HD
ENDBRANCH   7  22
TORSDOF 2
ENDMDL
MODEL 8
REMARK VINA RESULT:      -6.0      1.542      3.389
REMARK  Name = 
REMARK  7 active torsions:
REMARK  status: ('A' for Active; 'I' for Inactive)
REMARK    1  A    between atoms: C_1  and  C_2
REMARK    2  A    between atoms: C_6  and  O_7
REMARK    3  A    between atoms: C_8  and  O_9
REMARK    4  A    between atoms: C_10  and  C_11
REMARK    5  A    between atoms: C_15  and  C_16
REMARK    6  A    between atoms: C_19  and  C_20
REMARK    7  A    between atoms: C_19  and  C_21
REMARK                            x       y       z     vdW  Elec       q    Type
REMARK                         _______ _______ _______ _____ _____    ______ ____
ROOT
ATOM      1  C   UNL     1       6.941   7.839  17.012  0.00  0.00    +0.000 C 
ATOM      2  C   UNL     1       6.320   6.490  17.224  0.00  0.00    +0.000 A 
ATOM      3  C   UNL     1       5.371   6.287  18.234  0.00  0.00    +0.000 A 
ATOM      4  C   UNL     1       4.592   5.108  18.320  0.00  0.00    +0.000 A 
ATOM      5  C   UNL     1       4.924   4.030  17.468  0.00  0.00    +0.000 A 
ATOM      6  C   UNL     1       5.979   4.199  16.549  0.00  0.00    +0.000 A 
ATOM      7  C   UNL     1       6.629   5.423  16.402  0.00  0.00    +0.000 A 
ATOM      8  C   UNL     1       4.124   2.748  17.498  0.00  0.00    +0.000 C 
ATOM      9  C   UNL     1       3.311   2.581  16.206  0.00  0.00    +0.000 C 
ATOM     10  C   UNL     1       3.207   2.588  18.718  0.00  0.00    +0.000 C 
ATOM     11  C   UNL     1       2.805   3.842  19.453  0.00  0.00    +0.000 C 
ATOM     12  C   UNL     1       3.417   5.031  19.245  0.00  0.00    +0.000 C 
ATOM     13  C   UNL     1       2.941   6.280  19.995  0.00  0.00    +0.000 C 
ATOM     14  C   UNL     1       2.542   7.465  19.088  0.00  0.00    +0.000 C 
ATOM     15  C   UNL     1       1.712   6.016  20.889  0.00  0.00    +0.000 C 
ATOM     16  O   UNL     1       1.720   4.716  21.453  0.00  0.00    +0.000 OA
ATOM     17  C   UNL     1       1.675   3.665  20.474  0.00  0.00    +0.000 C 
ATOM     18  C   UNL     1       1.826   2.381  21.312  0.00  0.00    +0.000 C 
ATOM     19  C   UNL     1       0.302   3.624  19.777  0.00  0.00    +0.000 C 
ENDROOT
BRANCH   6  20
ATOM     20  O   UNL     1       6.423   3.204  15.705  0.00  0.00    +0.000 OA
ATOM     21  H   UNL     1       7.358   3.350  15.515  0.00  0.00    +0.000 HD
ENDBRANCH   6  20
BRANCH   7  22
ATOM     22  O   UNL     1       7.570   5.563  15.417  0.00  0.00    +0.000 OA
ATOM     23  H   UNL     1       7.157   5.150  14.632  0.00  0.00    +0.000 HD
ENDBRANCH   7  22
TORSDOF 2
ENDMDL
MODEL 9
REMARK VINA RESULT:      -6.0      9.600     11.830
REMARK  Name = 
REMARK  7 active torsions:
REMARK  status: ('A' for Active; 'I' for Inactive)
REMARK    1  A    between atoms: C_1  and  C_2
REMARK    2  A    between atoms: C_6  and  O_7
REMARK    3  A    between atoms: C_8  and  O_9
REMARK    4  A    between atoms: C_10  and  C_11
REMARK    5  A    between atoms: C_15  and  C_16
REMARK    6  A    between atoms: C_19  and  C_20
REMARK    7  A    between atoms: C_19  and  C_21
REMARK                            x       y       z     vdW  Elec       q    Type
REMARK                         _______ _______ _______ _____ _____    ______ ____
ROOT
ATOM      1  C   UNL     1      -4.548  11.325  16.583  0.00  0.00    +0.000 C 
ATOM      2  C   UNL     1      -3.736  11.714  17.783  0.00  0.00    +0.000 A 
ATOM      3  C   UNL     1      -4.346  12.274  18.913  0.00  0.00    +0.000 A 
ATOM      4  C   UNL     1      -3.666  12.435  20.143  0.00  0.00    +0.000 A 
ATOM      5  C   UNL     1      -2.273  12.197  20.168  0.00  0.00    +0.000 A 
ATOM      6  C   UNL     1      -1.643  11.767  18.983  0.00  0.00    +0.000 A 
ATOM      7  C   UNL     1      -2.373  11.487  17.829  0.00  0.00    +0.000 A 
ATOM      8  C   UNL     1      -1.489  12.335  21.453  0.00  0.00    +0.000 C 
ATOM      9  C   UNL     1      -1.008  10.965  21.950  0.00  0.00    +0.000 C 
ATOM     10  C   UNL     1      -2.223  13.074  22.580  0.00  0.00    +0.000 C 
ATOM     11  C   UNL     1      -3.729  13.127  22.510  0.00  0.00    +0.000 C 
ATOM     12  C   UNL     1      -4.413  12.792  21.391  0.00  0.00    +0.000 C 
ATOM     13  C   UNL     1      -5.946  12.830  21.390  0.00  0.00    +0.000 C 
ATOM     14  C   UNL     1      -6.625  11.500  20.994  0.00  0.00    +0.000 C 
ATOM     15  C   UNL     1      -6.542  13.201  22.763  0.00  0.00    +0.000 C 
ATOM     16  O   UNL     1      -5.733  14.121  23.475  0.00  0.00    +0.000 OA
ATOM     17  C   UNL     1      -4.425  13.616  23.786  0.00  0.00    +0.000 C 
ATOM     18  C   UNL     1      -3.711  14.822  24.426  0.00  0.00    +0.000 C 
ATOM     19  C   UNL     1      -4.505  12.493  24.837  0.00  0.00    +0.000 C 
ENDROOT
BRANCH   6  20
ATOM     20  O   UNL     1      -0.287  11.551  18.875  0.00  0.00    +0.000 OA
ATOM     21  H   UNL     1       0.098  12.251  18.333  0.00  0.00    +0.000 HD
ENDBRANCH   6  20
BRANCH   7  22
ATOM     22  O   UNL     1      -1.725  10.967  16.741  0.00  0.00    +0.000 OA
ATOM     23  H   UNL     1      -1.854  11.640  16.043  0.00  0.00    +0.000 HD
ENDBRANCH   7  22
TORSDOF 2
ENDMDL
