MODEL 1
REMARK VINA RESULT:      -8.2      0.000      0.000
REMARK  Name = 
REMARK  5 active torsions:
REMARK  status: ('A' for Active; 'I' for Inactive)
REMARK    1  A    between atoms: C_2  and  C_11
REMARK    2  A    between atoms: N_3  and  C_4
REMARK    3  A    between atoms: C_4  and  C_5
REMARK    4  A    between atoms: C_11  and  C_13
REMARK    5  A    between atoms: C_19  and  N_20
REMARK                            x       y       z     vdW  Elec       q    Type
REMARK                         _______ _______ _______ _____ _____    ______ ____
ROOT
ATOM      1  C   UNL     1       7.553   6.339  18.359  0.00  0.00    +0.000 C 
ATOM      2  O   UNL     1       8.261   6.163  19.353  0.00  0.00    +0.000 OA
ENDROOT
BRANCH   1   3
ATOM      3  C   UNL     1       6.702   5.281  17.810  0.00  0.00    +0.000 A 
ATOM      4  C   UNL     1       7.005   4.490  16.715  0.00  0.00    +0.000 A 
ATOM      5  N   UNL     1       5.974   3.620  16.500  0.00  0.00    +0.000 N 
ATOM      6  C   UNL     1       4.989   3.811  17.439  0.00  0.00    +0.000 A 
ATOM      7  C   UNL     1       3.767   3.145  17.590  0.00  0.00    +0.000 A 
ATOM      8  C   UNL     1       2.930   3.552  18.631  0.00  0.00    +0.000 A 
ATOM      9  C   UNL     1       3.316   4.594  19.481  0.00  0.00    +0.000 A 
ATOM     10  C   UNL     1       4.550   5.251  19.323  0.00  0.00    +0.000 A 
ATOM     11  C   UNL     1       5.412   4.847  18.278  0.00  0.00    +0.000 A 
ATOM     12  H   UNL     1       5.935   2.937  15.755  0.00  0.00    +0.000 HD
BRANCH   9  13
ATOM     13  N   UNL     1       2.405   5.014  20.556  0.00  0.00    +0.000 N 
ATOM     14  O   UNL     1       1.903   6.145  20.479  0.00  0.00    +0.000 OA
ATOM     15  O   UNL     1       2.194   4.215  21.480  0.00  0.00    +0.000 OA
ENDBRANCH   9  13
ENDBRANCH   1   3
BRANCH   1  17
ATOM     16  O   UNL     1       6.890   8.046  16.766  0.00  0.00    +0.000 OA
ATOM     17  C   UNL     1       7.580   7.756  17.731  0.00  0.00    +0.000 C 
ATOM     18  N   UNL     1       8.408   8.648  18.382  0.00  0.00    +0.000 N 
ATOM     19  H   UNL     1       8.938   8.301  19.177  0.00  0.00    +0.000 HD
BRANCH  18  20
ATOM     20  C   UNL     1       8.475  10.039  18.008  0.00  0.00    +0.000 C 
BRANCH  20  21
ATOM     21  C   UNL     1       9.542  10.778  18.767  0.00  0.00    +0.000 A 
ATOM     22  C   UNL     1       9.406  11.025  20.138  0.00  0.00    +0.000 A 
ATOM     23  C   UNL     1      10.426  11.695  20.797  0.00  0.00    +0.000 A 
ATOM     24  N   UNL     1      11.549  12.136  20.193  0.00  0.00    +0.000 NA
ATOM     25  C   UNL     1      11.656  11.900  18.869  0.00  0.00    +0.000 A 
ATOM     26  C   UNL     1      10.692  11.239  18.121  0.00  0.00    +0.000 A 
ENDBRANCH  20  21
ENDBRANCH  18  20
ENDBRANCH   1  17
TORSDOF 5
ENDMDL
MODEL 2
REMARK VINA RESULT:      -8.1      0.415      1.201
REMARK  Name = 
REMARK  5 active torsions:
REMARK  status: ('A' for Active; 'I' for Inactive)
REMARK    1  A    between atoms: C_2  and  C_11
REMARK    2  A    between atoms: N_3  and  C_4
REMARK    3  A    between atoms: C_4  and  C_5
REMARK    4  A    between atoms: C_11  and  C_13
REMARK    5  A    between atoms: C_19  and  N_20
REMARK                            x       y       z     vdW  Elec       q    Type
REMARK                         _______ _______ _______ _____ _____    ______ ____
ROOT
ATOM      1  C   UNL     1       7.534   6.323  18.284  0.00  0.00    +0.000 C 
ATOM      2  O   UNL     1       8.276   6.118  19.247  0.00  0.00    +0.000 OA
ENDROOT
BRANCH   1   3
ATOM      3  C   UNL     1       6.654   5.285  17.743  0.00  0.00    +0.000 A 
ATOM      4  C   UNL     1       6.991   4.375  16.755  0.00  0.00    +0.000 A 
ATOM      5  N   UNL     1       5.916   3.569  16.511  0.00  0.00    +0.000 N 
ATOM      6  C   UNL     1       4.867   3.919  17.325  0.00  0.00    +0.000 A 
ATOM      7  C   UNL     1       3.584   3.363  17.408  0.00  0.00    +0.000 A 
ATOM      8  C   UNL     1       2.689   3.926  18.320  0.00  0.00    +0.000 A 
ATOM      9  C   UNL     1       3.079   5.011  19.113  0.00  0.00    +0.000 A 
ATOM     10  C   UNL     1       4.373   5.557  19.026  0.00  0.00    +0.000 A 
ATOM     11  C   UNL     1       5.293   4.994  18.112  0.00  0.00    +0.000 A 
ATOM     12  H   UNL     1       5.891   2.824  15.827  0.00  0.00    +0.000 HD
BRANCH   9  13
ATOM     13  N   UNL     1       2.109   5.595  20.050  0.00  0.00    +0.000 N 
ATOM     14  O   UNL     1       1.378   4.819  20.685  0.00  0.00    +0.000 OA
ATOM     15  O   UNL     1       2.074   6.829  20.152  0.00  0.00    +0.000 OA
ENDBRANCH   9  13
ENDBRANCH   1   3
BRANCH   1  17
ATOM     16  O   UNL     1       6.835   8.069  16.750  0.00  0.00    +0.000 OA
ATOM     17  C   UNL     1       7.551   7.753  17.687  0.00  0.00    +0.000 C 
ATOM     18  N   UNL     1       8.405   8.626  18.332  0.00  0.00    +0.000 N 
ATOM     19  H   UNL     1       8.956   8.257  19.103  0.00  0.00    +0.000 HD
BRANCH  18  20
ATOM     20  C   UNL     1       8.470  10.024  17.988  0.00  0.00    +0.000 C 
BRANCH  20  21
ATOM     21  C   UNL     1       9.521  10.753  18.779  0.00  0.00    +0.000 A 
ATOM     22  C   UNL     1      10.685  11.222  18.162  0.00  0.00    +0.000 A 
ATOM     23  C   UNL     1      11.617  11.903  18.931  0.00  0.00    +0.000 A 
ATOM     24  N   UNL     1      11.475  12.138  20.252  0.00  0.00    +0.000 NA
ATOM     25  C   UNL     1      10.351  11.666  20.832  0.00  0.00    +0.000 A 
ATOM     26  C   UNL     1       9.362  10.974  20.150  0.00  0.00    +0.000 A 
ENDBRANCH  20  21
ENDBRANCH  18  20
ENDBRANCH   1  17
TORSDOF 5
ENDMDL
MODEL 3
REMARK VINA RESULT:      -7.9      4.503      7.205
REMARK  Name = 
REMARK  5 active torsions:
REMARK  status: ('A' for Active; 'I' for Inactive)
REMARK    1  A    between atoms: C_2  and  C_11
REMARK    2  A    between atoms: N_3  and  C_4
REMARK    3  A    between atoms: C_4  and  C_5
REMARK    4  A    between atoms: C_11  and  C_13
REMARK    5  A    between atoms: C_19  and  N_20
REMARK                            x       y       z     vdW  Elec       q    Type
REMARK                         _______ _______ _______ _____ _____    ______ ____
ROOT
ATOM      1  C   UNL     1       4.878   4.104  17.194  0.00  0.00    +0.000 C 
ATOM      2  O   UNL     1       4.227   3.093  16.926  0.00  0.00    +0.000 OA
ENDROOT
BRANCH   1   3
ATOM      3  C   UNL     1       5.884   4.649  16.280  0.00  0.00    +0.000 A 
ATOM      4  C   UNL     1       6.861   5.572  16.612  0.00  0.00    +0.000 A 
ATOM      5  N   UNL     1       7.609   5.843  15.502  0.00  0.00    +0.000 N 
ATOM      6  C   UNL     1       7.154   5.110  14.433  0.00  0.00    +0.000 A 
ATOM      7  C   UNL     1       7.623   5.080  13.114  0.00  0.00    +0.000 A 
ATOM      8  C   UNL     1       6.959   4.250  12.208  0.00  0.00    +0.000 A 
ATOM      9  C   UNL     1       5.864   3.485  12.622  0.00  0.00    +0.000 A 
ATOM     10  C   UNL     1       5.406   3.519  13.952  0.00  0.00    +0.000 A 
ATOM     11  C   UNL     1       6.070   4.350  14.884  0.00  0.00    +0.000 A 
ATOM     12  H   UNL     1       8.384   6.493  15.467  0.00  0.00    +0.000 HD
BRANCH   9  13
ATOM     13  N   UNL     1       5.173   2.635  11.641  0.00  0.00    +0.000 N 
ATOM     14  O   UNL     1       5.724   1.576  11.305  0.00  0.00    +0.000 OA
ATOM     15  O   UNL     1       4.083   3.026  11.203  0.00  0.00    +0.000 OA
ENDBRANCH   9  13
ENDBRANCH   1   3
BRANCH   1  17
ATOM     16  O   UNL     1       5.404   4.946  19.409  0.00  0.00    +0.000 OA
ATOM     17  C   UNL     1       4.557   4.799  18.542  0.00  0.00    +0.000 C 
ATOM     18  N   UNL     1       3.261   5.264  18.644  0.00  0.00    +0.000 N 
ATOM     19  H   UNL     1       2.637   5.088  17.860  0.00  0.00    +0.000 HD
BRANCH  18  20
ATOM     20  C   UNL     1       2.814   6.035  19.778  0.00  0.00    +0.000 C 
BRANCH  20  21
ATOM     21  C   UNL     1       2.257   7.370  19.370  0.00  0.00    +0.000 A 
ATOM     22  C   UNL     1       1.550   8.161  20.283  0.00  0.00    +0.000 A 
ATOM     23  C   UNL     1       1.070   9.393  19.864  0.00  0.00    +0.000 A 
ATOM     24  N   UNL     1       1.237   9.880  18.616  0.00  0.00    +0.000 NA
ATOM     25  C   UNL     1       1.911   9.097  17.747  0.00  0.00    +0.000 A 
ATOM     26  C   UNL     1       2.428   7.851  18.069  0.00  0.00    +0.000 A 
ENDBRANCH  20  21
ENDBRANCH  18  20
ENDBRANCH   1  17
TORSDOF 5
ENDMDL
MODEL 4
REMARK VINA RESULT:      -7.9      4.515      7.286
REMARK  Name = 
REMARK  5 active torsions:
REMARK  status: ('A' for Active; 'I' for Inactive)
REMARK    1  A    between atoms: C_2  and  C_11
REMARK    2  A    between atoms: N_3  and  C_4
REMARK    3  A    between atoms: C_4  and  C_5
REMARK    4  A    between atoms: C_11  and  C_13
REMARK    5  A    between atoms: C_19  and  N_20
REMARK                            x       y       z     vdW  Elec       q    Type
REMARK                         _______ _______ _______ _____ _____    ______ ____
ROOT
ATOM      1  C   UNL     1       4.593   4.316  17.088  0.00  0.00    +0.000 C 
ATOM      2  O   UNL     1       3.810   3.428  16.743  0.00  0.00    +0.000 OA
ENDROOT
BRANCH   1   3
ATOM      3  C   UNL     1       5.694   4.760  16.230  0.00  0.00    +0.000 A 
ATOM      4  C   UNL     1       6.708   5.626  16.604  0.00  0.00    +0.000 A 
ATOM      5  N   UNL     1       7.547   5.809  15.541  0.00  0.00    +0.000 N 
ATOM      6  C   UNL     1       7.114   5.073  14.464  0.00  0.00    +0.000 A 
ATOM      7  C   UNL     1       7.668   4.967  13.182  0.00  0.00    +0.000 A 
ATOM      8  C   UNL     1       7.012   4.154  12.256  0.00  0.00    +0.000 A 
ATOM      9  C   UNL     1       5.840   3.479  12.615  0.00  0.00    +0.000 A 
ATOM     10  C   UNL     1       5.296   3.589  13.909  0.00  0.00    +0.000 A 
ATOM     11  C   UNL     1       5.952   4.403  14.860  0.00  0.00    +0.000 A 
ATOM     12  H   UNL     1       8.365   6.403  15.541  0.00  0.00    +0.000 HD
BRANCH   9  13
ATOM     13  N   UNL     1       5.160   2.646  11.613  0.00  0.00    +0.000 N 
ATOM     14  O   UNL     1       4.078   3.052  11.161  0.00  0.00    +0.000 OA
ATOM     15  O   UNL     1       5.703   1.584  11.279  0.00  0.00    +0.000 OA
ENDBRANCH   9  13
ENDBRANCH   1   3
BRANCH   1  17
ATOM     16  O   UNL     1       5.192   4.991  19.341  0.00  0.00    +0.000 OA
ATOM     17  C   UNL     1       4.337   4.969  18.470  0.00  0.00    +0.000 C 
ATOM     18  N   UNL     1       3.090   5.548  18.600  0.00  0.00    +0.000 N 
ATOM     19  H   UNL     1       2.454   5.472  17.810  0.00  0.00    +0.000 HD
BRANCH  18  20
ATOM     20  C   UNL     1       2.715   6.299  19.772  0.00  0.00    +0.000 C 
BRANCH  20  21
ATOM     21  C   UNL     1       2.121   7.635  19.423  0.00  0.00    +0.000 A 
ATOM     22  C   UNL     1       2.263   8.167  18.137  0.00  0.00    +0.000 A 
ATOM     23  C   UNL     1       1.683   9.396  17.858  0.00  0.00    +0.000 A 
ATOM     24  N   UNL     1       0.990  10.122  18.760  0.00  0.00    +0.000 NA
ATOM     25  C   UNL     1       0.875   9.598  19.998  0.00  0.00    +0.000 A 
ATOM     26  C   UNL     1       1.419   8.379  20.374  0.00  0.00    +0.000 A 
ENDBRANCH  20  21
ENDBRANCH  18  20
ENDBRANCH   1  17
TORSDOF 5
ENDMDL
MODEL 5
REMARK VINA RESULT:      -7.7      3.990      6.635
REMARK  Name = 
REMARK  5 active torsions:
REMARK  status: ('A' for Active; 'I' for Inactive)
REMARK    1  A    between atoms: C_2  and  C_11
REMARK    2  A    between atoms: N_3  and  C_4
REMARK    3  A    between atoms: C_4  and  C_5
REMARK    4  A    between atoms: C_11  and  C_13
REMARK    5  A    between atoms: C_19  and  N_20
REMARK                            x       y       z     vdW  Elec       q    Type
REMARK                         _______ _______ _______ _____ _____    ______ ____
ROOT
ATOM      1  C   UNL     1       2.772   3.661  20.025  0.00  0.00    +0.000 C 
ATOM      2  O   UNL     1       2.984   2.795  20.876  0.00  0.00    +0.000 OA
ENDROOT
BRANCH   1   3
ATOM      3  C   UNL     1       3.424   3.640  18.714  0.00  0.00    +0.000 A 
ATOM      4  C   UNL     1       2.897   3.084  17.560  0.00  0.00    +0.000 A 
ATOM      5  N   UNL     1       3.790   3.253  16.540  0.00  0.00    +0.000 N 
ATOM      6  C   UNL     1       4.903   3.920  16.991  0.00  0.00    +0.000 A 
ATOM      7  C   UNL     1       6.055   4.298  16.290  0.00  0.00    +0.000 A 
ATOM      8  C   UNL     1       7.059   4.960  17.000  0.00  0.00    +0.000 A 
ATOM      9  C   UNL     1       6.904   5.222  18.365  0.00  0.00    +0.000 A 
ATOM     10  C   UNL     1       5.738   4.843  19.057  0.00  0.00    +0.000 A 
ATOM     11  C   UNL     1       4.709   4.178  18.352  0.00  0.00    +0.000 A 
ATOM     12  H   UNL     1       3.657   2.930  15.591  0.00  0.00    +0.000 HD
BRANCH   9  13
ATOM     13  N   UNL     1       7.986   5.903  19.089  0.00  0.00    +0.000 N 
ATOM     14  O   UNL     1       8.525   5.295  20.027  0.00  0.00    +0.000 OA
ATOM     15  O   UNL     1       8.298   7.045  18.725  0.00  0.00    +0.000 OA
ENDBRANCH   9  13
ENDBRANCH   1   3
BRANCH   1  17
ATOM     16  O   UNL     1       0.569   4.517  20.575  0.00  0.00    +0.000 OA
ATOM     17  C   UNL     1       1.751   4.766  20.398  0.00  0.00    +0.000 C 
ATOM     18  N   UNL     1       2.305   6.021  20.550  0.00  0.00    +0.000 N 
ATOM     19  H   UNL     1       3.303   6.116  20.379  0.00  0.00    +0.000 HD
BRANCH  18  20
ATOM     20  C   UNL     1       1.529   7.148  21.004  0.00  0.00    +0.000 C 
BRANCH  20  21
ATOM     21  C   UNL     1       1.513   8.266  19.999  0.00  0.00    +0.000 A 
ATOM     22  C   UNL     1       0.874   9.477  20.284  0.00  0.00    +0.000 A 
ATOM     23  C   UNL     1       0.900  10.484  19.330  0.00  0.00    +0.000 A 
ATOM     24  N   UNL     1       1.503  10.365  18.128  0.00  0.00    +0.000 NA
ATOM     25  C   UNL     1       2.102   9.185  17.867  0.00  0.00    +0.000 A 
ATOM     26  C   UNL     1       2.130   8.119  18.754  0.00  0.00    +0.000 A 
ENDBRANCH  20  21
ENDBRANCH  18  20
ENDBRANCH   1  17
TORSDOF 5
ENDMDL
MODEL 6
REMARK VINA RESULT:      -7.7      4.007      6.669
REMARK  Name = 
REMARK  5 active torsions:
REMARK  status: ('A' for Active; 'I' for Inactive)
REMARK    1  A    between atoms: C_2  and  C_11
REMARK    2  A    between atoms: N_3  and  C_4
REMARK    3  A    between atoms: C_4  and  C_5
REMARK    4  A    between atoms: C_11  and  C_13
REMARK    5  A    between atoms: C_19  and  N_20
REMARK                            x       y       z     vdW  Elec       q    Type
REMARK                         _______ _______ _______ _____ _____    ______ ____
ROOT
ATOM      1  C   UNL     1       2.685   3.545  20.013  0.00  0.00    +0.000 C 
ATOM      2  O   UNL     1       2.833   2.631  20.826  0.00  0.00    +0.000 OA
ENDROOT
BRANCH   1   3
ATOM      3  C   UNL     1       3.378   3.560  18.722  0.00  0.00    +0.000 A 
ATOM      4  C   UNL     1       2.902   3.010  17.544  0.00  0.00    +0.000 A 
ATOM      5  N   UNL     1       3.822   3.216  16.556  0.00  0.00    +0.000 N 
ATOM      6  C   UNL     1       4.904   3.902  17.053  0.00  0.00    +0.000 A 
ATOM      7  C   UNL     1       6.068   4.318  16.395  0.00  0.00    +0.000 A 
ATOM      8  C   UNL     1       7.033   4.991  17.146  0.00  0.00    +0.000 A 
ATOM      9  C   UNL     1       6.828   5.229  18.509  0.00  0.00    +0.000 A 
ATOM     10  C   UNL     1       5.651   4.811  19.158  0.00  0.00    +0.000 A 
ATOM     11  C   UNL     1       4.660   4.134  18.410  0.00  0.00    +0.000 A 
ATOM     12  H   UNL     1       3.727   2.905  15.599  0.00  0.00    +0.000 HD
BRANCH   9  13
ATOM     13  N   UNL     1       7.870   5.923  19.279  0.00  0.00    +0.000 N 
ATOM     14  O   UNL     1       8.344   6.965  18.801  0.00  0.00    +0.000 OA
ATOM     15  O   UNL     1       8.220   5.426  20.359  0.00  0.00    +0.000 OA
ENDBRANCH   9  13
ENDBRANCH   1   3
BRANCH   1  17
ATOM     16  O   UNL     1       0.515   4.447  20.617  0.00  0.00    +0.000 OA
ATOM     17  C   UNL     1       1.697   4.671  20.407  0.00  0.00    +0.000 C 
ATOM     18  N   UNL     1       2.279   5.916  20.538  0.00  0.00    +0.000 N 
ATOM     19  H   UNL     1       3.274   5.990  20.339  0.00  0.00    +0.000 HD
BRANCH  18  20
ATOM     20  C   UNL     1       1.539   7.061  21.007  0.00  0.00    +0.000 C 
BRANCH  20  21
ATOM     21  C   UNL     1       1.527   8.178  20.001  0.00  0.00    +0.000 A 
ATOM     22  C   UNL     1       2.182   8.042  18.772  0.00  0.00    +0.000 A 
ATOM     23  C   UNL     1       2.128   9.094  17.870  0.00  0.00    +0.000 A 
ATOM     24  N   UNL     1       1.484  10.256  18.107  0.00  0.00    +0.000 NA
ATOM     25  C   UNL     1       0.870  10.373  19.303  0.00  0.00    +0.000 A 
ATOM     26  C   UNL     1       0.866   9.379  20.271  0.00  0.00    +0.000 A 
ENDBRANCH  20  21
ENDBRANCH  18  20
ENDBRANCH   1  17
TORSDOF 5
ENDMDL
MODEL 7
REMARK VINA RESULT:      -7.5      4.909      7.928
REMARK  Name = 
REMARK  5 active torsions:
REMARK  status: ('A' for Active; 'I' for Inactive)
REMARK    1  A    between atoms: C_2  and  C_11
REMARK    2  A    between atoms: N_3  and  C_4
REMARK    3  A    between atoms: C_4  and  C_5
REMARK    4  A    between atoms: C_11  and  C_13
REMARK    5  A    between atoms: C_19  and  N_20
REMARK                            x       y       z     vdW  Elec       q    Type
REMARK                         _______ _______ _______ _____ _____    ______ ____
ROOT
ATOM      1  C   UNL     1       2.201   7.281  19.307  0.00  0.00    +0.000 C 
ATOM      2  O   UNL     1       2.146   7.389  20.533  0.00  0.00    +0.000 OA
ENDROOT
BRANCH   1   3
ATOM      3  C   UNL     1       2.474   6.002  18.648  0.00  0.00    +0.000 A 
ATOM      4  C   UNL     1       1.641   4.896  18.658  0.00  0.00    +0.000 A 
ATOM      5  N   UNL     1       2.231   3.892  17.943  0.00  0.00    +0.000 N 
ATOM      6  C   UNL     1       3.442   4.312  17.448  0.00  0.00    +0.000 A 
ATOM      7  C   UNL     1       4.372   3.612  16.669  0.00  0.00    +0.000 A 
ATOM      8  C   UNL     1       5.548   4.275  16.311  0.00  0.00    +0.000 A 
ATOM      9  C   UNL     1       5.773   5.590  16.729  0.00  0.00    +0.000 A 
ATOM     10  C   UNL     1       4.827   6.285  17.507  0.00  0.00    +0.000 A 
ATOM     11  C   UNL     1       3.628   5.631  17.872  0.00  0.00    +0.000 A 
ATOM     12  H   UNL     1       1.838   2.971  17.801  0.00  0.00    +0.000 HD
BRANCH   9  13
ATOM     13  N   UNL     1       7.028   6.255  16.353  0.00  0.00    +0.000 N 
ATOM     14  O   UNL     1       7.696   5.755  15.435  0.00  0.00    +0.000 OA
ATOM     15  O   UNL     1       7.352   7.276  16.976  0.00  0.00    +0.000 OA
ENDBRANCH   9  13
ENDBRANCH   1   3
BRANCH   1  17
ATOM     16  O   UNL     1       2.318   8.688  17.333  0.00  0.00    +0.000 OA
ATOM     17  C   UNL     1       1.931   8.567  18.484  0.00  0.00    +0.000 C 
ATOM     18  N   UNL     1       1.190   9.521  19.152  0.00  0.00    +0.000 N 
ATOM     19  H   UNL     1       0.918   9.317  20.111  0.00  0.00    +0.000 HD
BRANCH  18  20
ATOM     20  C   UNL     1       0.747  10.733  18.508  0.00  0.00    +0.000 C 
BRANCH  20  21
ATOM     21  C   UNL     1      -0.746  10.770  18.339  0.00  0.00    +0.000 A 
ATOM     22  C   UNL     1      -1.523  11.703  19.034  0.00  0.00    +0.000 A 
ATOM     23  C   UNL     1      -2.896  11.708  18.832  0.00  0.00    +0.000 A 
ATOM     24  N   UNL     1      -3.537  10.857  18.003  0.00  0.00    +0.000 NA
ATOM     25  C   UNL     1      -2.772   9.957  17.352  0.00  0.00    +0.000 A 
ATOM     26  C   UNL     1      -1.394   9.871  17.487  0.00  0.00    +0.000 A 
ENDBRANCH  20  21
ENDBRANCH  18  20
ENDBRANCH   1  17
TORSDOF 5
ENDMDL
MODEL 8
REMARK VINA RESULT:      -7.5      5.550      8.649
REMARK  Name = 
REMARK  5 active torsions:
REMARK  status: ('A' for Active; 'I' for Inactive)
REMARK    1  A    between atoms: C_2  and  C_11
REMARK    2  A    between atoms: N_3  and  C_4
REMARK    3  A    between atoms: C_4  and  C_5
REMARK    4  A    between atoms: C_11  and  C_13
REMARK    5  A    between atoms: C_19  and  N_20
REMARK                            x       y       z     vdW  Elec       q    Type
REMARK                         _______ _______ _______ _____ _____    ______ ____
ROOT
ATOM      1  C   UNL     1       2.182   8.403  18.181  0.00  0.00    +0.000 C 
ATOM      2  O   UNL     1       2.559   8.761  17.064  0.00  0.00    +0.000 OA
ENDROOT
BRANCH   1   3
ATOM      3  C   UNL     1       2.692   7.190  18.825  0.00  0.00    +0.000 A 
ATOM      4  C   UNL     1       2.211   6.637  19.999  0.00  0.00    +0.000 A 
ATOM      5  N   UNL     1       2.936   5.516  20.289  0.00  0.00    +0.000 N 
ATOM      6  C   UNL     1       3.890   5.305  19.323  0.00  0.00    +0.000 A 
ATOM      7  C   UNL     1       4.843   4.284  19.225  0.00  0.00    +0.000 A 
ATOM      8  C   UNL     1       5.717   4.314  18.136  0.00  0.00    +0.000 A 
ATOM      9  C   UNL     1       5.631   5.340  17.189  0.00  0.00    +0.000 A 
ATOM     10  C   UNL     1       4.664   6.357  17.295  0.00  0.00    +0.000 A 
ATOM     11  C   UNL     1       3.767   6.338  18.388  0.00  0.00    +0.000 A 
ATOM     12  H   UNL     1       2.797   4.927  21.100  0.00  0.00    +0.000 HD
BRANCH   9  13
ATOM     13  N   UNL     1       6.577   5.356  16.065  0.00  0.00    +0.000 N 
ATOM     14  O   UNL     1       7.632   4.715  16.188  0.00  0.00    +0.000 OA
ATOM     15  O   UNL     1       6.270   6.011  15.059  0.00  0.00    +0.000 OA
ENDBRANCH   9  13
ENDBRANCH   1   3
BRANCH   1  17
ATOM     16  O   UNL     1       1.181   9.496  20.103  0.00  0.00    +0.000 OA
ATOM     17  C   UNL     1       1.158   9.321  18.895  0.00  0.00    +0.000 C 
ATOM     18  N   UNL     1       0.264   9.941  18.045  0.00  0.00    +0.000 N 
ATOM     19  H   UNL     1       0.334   9.724  17.054  0.00  0.00    +0.000 HD
BRANCH  18  20
ATOM     20  C   UNL     1      -0.688  10.916  18.516  0.00  0.00    +0.000 C 
BRANCH  20  21
ATOM     21  C   UNL     1      -1.970  10.880  17.732  0.00  0.00    +0.000 A 
ATOM     22  C   UNL     1      -3.076  11.637  18.132  0.00  0.00    +0.000 A 
ATOM     23  C   UNL     1      -4.232  11.583  17.367  0.00  0.00    +0.000 A 
ATOM     24  N   UNL     1      -4.361  10.832  16.253  0.00  0.00    +0.000 NA
ATOM     25  C   UNL     1      -3.288  10.099  15.891  0.00  0.00    +0.000 A 
ATOM     26  C   UNL     1      -2.089  10.085  16.589  0.00  0.00    +0.000 A 
ENDBRANCH  20  21
ENDBRANCH  18  20
ENDBRANCH   1  17
TORSDOF 5
ENDMDL
MODEL 9
REMARK VINA RESULT:      -7.5      4.934      7.968
REMARK  Name = 
REMARK  5 active torsions:
REMARK  status: ('A' for Active; 'I' for Inactive)
REMARK    1  A    between atoms: C_2  and  C_11
REMARK    2  A    between atoms: N_3  and  C_4
REMARK    3  A    between atoms: C_4  and  C_5
REMARK    4  A    between atoms: C_11  and  C_13
REMARK    5  A    between atoms: C_19  and  N_20
REMARK                            x       y       z     vdW  Elec       q    Type
REMARK                         _______ _______ _______ _____ _____    ______ ____
ROOT
ATOM      1  C   UNL     1       2.198   7.316  19.284  0.00  0.00    +0.000 C 
ATOM      2  O   UNL     1       2.144   7.422  20.511  0.00  0.00    +0.000 OA
ENDROOT
BRANCH   1   3
ATOM      3  C   UNL     1       2.468   6.038  18.623  0.00  0.00    +0.000 A 
ATOM      4  C   UNL     1       1.630   4.936  18.624  0.00  0.00    +0.000 A 
ATOM      5  N   UNL     1       2.218   3.932  17.909  0.00  0.00    +0.000 N 
ATOM      6  C   UNL     1       3.434   4.346  17.422  0.00  0.00    +0.000 A 
ATOM      7  C   UNL     1       4.365   3.645  16.646  0.00  0.00    +0.000 A 
ATOM      8  C   UNL     1       5.546   4.302  16.297  0.00  0.00    +0.000 A 
ATOM      9  C   UNL     1       5.775   5.615  16.720  0.00  0.00    +0.000 A 
ATOM     10  C   UNL     1       4.829   6.312  17.495  0.00  0.00    +0.000 A 
ATOM     11  C   UNL     1       3.625   5.664  17.852  0.00  0.00    +0.000 A 
ATOM     12  H   UNL     1       1.822   3.013  17.762  0.00  0.00    +0.000 HD
BRANCH   9  13
ATOM     13  N   UNL     1       7.037   6.275  16.354  0.00  0.00    +0.000 N 
ATOM     14  O   UNL     1       7.365   7.289  16.988  0.00  0.00    +0.000 OA
ATOM     15  O   UNL     1       7.700   5.783  15.430  0.00  0.00    +0.000 OA
ENDBRANCH   9  13
ENDBRANCH   1   3
BRANCH   1  17
ATOM     16  O   UNL     1       2.348   8.741  17.325  0.00  0.00    +0.000 OA
ATOM     17  C   UNL     1       1.931   8.604  18.464  0.00  0.00    +0.000 C 
ATOM     18  N   UNL     1       1.157   9.542  19.119  0.00  0.00    +0.000 N 
ATOM     19  H   UNL     1       0.862   9.325  20.068  0.00  0.00    +0.000 HD
BRANCH  18  20
ATOM     20  C   UNL     1       0.713  10.751  18.472  0.00  0.00    +0.000 C 
BRANCH  20  21
ATOM     21  C   UNL     1      -0.781  10.793  18.314  0.00  0.00    +0.000 A 
ATOM     22  C   UNL     1      -1.439   9.885  17.477  0.00  0.00    +0.000 A 
ATOM     23  C   UNL     1      -2.820   9.953  17.377  0.00  0.00    +0.000 A 
ATOM     24  N   UNL     1      -3.579  10.853  18.037  0.00  0.00    +0.000 NA
ATOM     25  C   UNL     1      -2.925  11.728  18.830  0.00  0.00    +0.000 A 
ATOM     26  C   UNL     1      -1.548  11.742  18.995  0.00  0.00    +0.000 A 
ENDBRANCH  20  21
ENDBRANCH  18  20
ENDBRANCH   1  17
TORSDOF 5
ENDMDL
