MODEL 1
REMARK VINA RESULT:      -8.0      0.000      0.000
REMARK  Name = 
REMARK  4 active torsions:
REMARK  status: ('A' for Active; 'I' for Inactive)
REMARK    1  A    between atoms: C_1  and  C_2
REMARK    2  A    between atoms: C_7  and  C_8
REMARK    3  A    between atoms: C_8  and  N_10
REMARK    4  A    between atoms: C_18  and  N_19
REMARK                            x       y       z     vdW  Elec       q    Type
REMARK                         _______ _______ _______ _____ _____    ______ ____
ROOT
ATOM      1  C   UNL     1       1.667   3.916  17.487  0.00  0.00    +0.000 C 
ATOM      2  C   UNL     1       3.136   4.162  17.709  0.00  0.00    +0.000 A 
ATOM      3  C   UNL     1       4.006   4.148  16.596  0.00  0.00    +0.000 A 
ATOM      4  C   UNL     1       5.363   4.365  16.785  0.00  0.00    +0.000 A 
ATOM      5  C   UNL     1       5.860   4.466  18.093  0.00  0.00    +0.000 A 
ATOM      6  C   UNL     1       5.050   4.543  19.201  0.00  0.00    +0.000 A 
ATOM      7  C   UNL     1       3.662   4.458  19.000  0.00  0.00    +0.000 A 
ATOM      8  S   UNL     1       7.503   5.154  18.040  0.00  0.00    +0.000 S 
ATOM      9  O   UNL     1       7.608   6.158  19.058  0.00  0.00    +0.000 OA
ATOM     10  O   UNL     1       8.456   4.061  17.885  0.00  0.00    +0.000 OA
ATOM     11  C   UNL     1       7.113   5.926  16.434  0.00  0.00    +0.000 C 
ATOM     12  C   UNL     1       6.437   4.721  15.764  0.00  0.00    +0.000 C 
ENDROOT
BRANCH  12  13
ATOM     13  N   UNL     1       6.004   4.861  14.375  0.00  0.00    +0.000 NA
ATOM     14  H   UNL     1       6.719   4.547  13.729  0.00  0.00    +0.000 HD
ATOM     15  H   UNL     1       5.945   5.867  14.188  0.00  0.00    +0.000 HD
ENDBRANCH  12  13
BRANCH   7  16
ATOM     16  C   UNL     1       2.771   4.910  20.118  0.00  0.00    +0.000 C 
ATOM     17  O   UNL     1       2.299   6.043  20.094  0.00  0.00    +0.000 OA
BRANCH  16  18
ATOM     18  N   UNL     1       2.651   4.021  21.158  0.00  0.00    +0.000 NA
ATOM     19  C   UNL     1       1.590   3.303  21.260  0.00  0.00    +0.000 C 
ATOM     20  N   UNL     1       0.511   3.218  20.448  0.00  0.00    +0.000 N 
ATOM     21  N   UNL     1       1.445   2.457  22.304  0.00  0.00    +0.000 N 
ATOM     22  H   UNL     1       0.520   3.946  19.730  0.00  0.00    +0.000 HD
ATOM     23  H   UNL     1      -0.368   3.214  20.952  0.00  0.00    +0.000 HD
ATOM     24  H   UNL     1       2.318   2.359  22.814  0.00  0.00    +0.000 HD
ATOM     25  H   UNL     1       1.086   1.553  22.019  0.00  0.00    +0.000 HD
ENDBRANCH  16  18
ENDBRANCH   7  16
TORSDOF 3
ENDMDL
MODEL 2
REMARK VINA RESULT:      -7.7      3.173      5.698
REMARK  Name = 
REMARK  4 active torsions:
REMARK  status: ('A' for Active; 'I' for Inactive)
REMARK    1  A    between atoms: C_1  and  C_2
REMARK    2  A    between atoms: C_7  and  C_8
REMARK    3  A    between atoms: C_8  and  N_10
REMARK    4  A    between atoms: C_18  and  N_19
REMARK                            x       y       z     vdW  Elec       q    Type
REMARK                         _______ _______ _______ _____ _____    ______ ____
ROOT
ATOM      1  C   UNL     1       4.888   6.710  16.309  0.00  0.00    +0.000 C 
ATOM      2  C   UNL     1       4.686   5.692  17.400  0.00  0.00    +0.000 A 
ATOM      3  C   UNL     1       3.411   5.107  17.559  0.00  0.00    +0.000 A 
ATOM      4  C   UNL     1       3.207   4.173  18.564  0.00  0.00    +0.000 A 
ATOM      5  C   UNL     1       4.238   3.925  19.482  0.00  0.00    +0.000 A 
ATOM      6  C   UNL     1       5.511   4.425  19.335  0.00  0.00    +0.000 A 
ATOM      7  C   UNL     1       5.757   5.268  18.238  0.00  0.00    +0.000 A 
ATOM      8  S   UNL     1       3.881   2.422  20.369  0.00  0.00    +0.000 S 
ATOM      9  O   UNL     1       5.077   1.634  20.430  0.00  0.00    +0.000 OA
ATOM     10  O   UNL     1       3.076   2.757  21.539  0.00  0.00    +0.000 OA
ATOM     11  C   UNL     1       2.833   1.869  18.982  0.00  0.00    +0.000 C 
ATOM     12  C   UNL     1       2.067   3.178  18.743  0.00  0.00    +0.000 C 
ENDROOT
BRANCH  12  13
ATOM     13  N   UNL     1       1.020   3.184  17.722  0.00  0.00    +0.000 NA
ATOM     14  H   UNL     1       0.322   3.893  17.910  0.00  0.00    +0.000 HD
ATOM     15  H   UNL     1       0.501   2.308  17.832  0.00  0.00    +0.000 HD
ENDBRANCH  12  13
BRANCH   7  16
ATOM     16  C   UNL     1       7.187   5.507  17.856  0.00  0.00    +0.000 C 
ATOM     17  O   UNL     1       7.684   4.862  16.938  0.00  0.00    +0.000 OA
BRANCH  16  18
ATOM     18  N   UNL     1       7.865   6.381  18.671  0.00  0.00    +0.000 NA
ATOM     19  C   UNL     1       8.102   7.576  18.263  0.00  0.00    +0.000 C 
ATOM     20  N   UNL     1       7.739   8.195  17.116  0.00  0.00    +0.000 N 
ATOM     21  N   UNL     1       8.806   8.428  19.041  0.00  0.00    +0.000 N 
ATOM     22  H   UNL     1       7.333   7.541  16.445  0.00  0.00    +0.000 HD
ATOM     23  H   UNL     1       8.491   8.729  16.696  0.00  0.00    +0.000 HD
ATOM     24  H   UNL     1       8.917   8.054  19.979  0.00  0.00    +0.000 HD
ATOM     25  H   UNL     1       8.395   9.355  19.065  0.00  0.00    +0.000 HD
ENDBRANCH  16  18
ENDBRANCH   7  16
TORSDOF 3
ENDMDL
MODEL 3
REMARK VINA RESULT:      -7.6      2.387      3.039
REMARK  Name = 
REMARK  4 active torsions:
REMARK  status: ('A' for Active; 'I' for Inactive)
REMARK    1  A    between atoms: C_1  and  C_2
REMARK    2  A    between atoms: C_7  and  C_8
REMARK    3  A    between atoms: C_8  and  N_10
REMARK    4  A    between atoms: C_18  and  N_19
REMARK                            x       y       z     vdW  Elec       q    Type
REMARK                         _______ _______ _______ _____ _____    ______ ____
ROOT
ATOM      1  C   UNL     1       2.510   5.431  20.244  0.00  0.00    +0.000 C 
ATOM      2  C   UNL     1       3.557   5.336  19.166  0.00  0.00    +0.000 A 
ATOM      3  C   UNL     1       4.894   5.660  19.484  0.00  0.00    +0.000 A 
ATOM      4  C   UNL     1       5.869   5.584  18.499  0.00  0.00    +0.000 A 
ATOM      5  C   UNL     1       5.483   5.311  17.179  0.00  0.00    +0.000 A 
ATOM      6  C   UNL     1       4.207   4.932  16.832  0.00  0.00    +0.000 A 
ATOM      7  C   UNL     1       3.244   4.878  17.854  0.00  0.00    +0.000 A 
ATOM      8  S   UNL     1       6.923   4.855  16.233  0.00  0.00    +0.000 S 
ATOM      9  O   UNL     1       6.601   3.704  15.442  0.00  0.00    +0.000 OA
ATOM     10  O   UNL     1       7.517   6.069  15.686  0.00  0.00    +0.000 OA
ATOM     11  C   UNL     1       7.756   4.346  17.773  0.00  0.00    +0.000 C 
ATOM     12  C   UNL     1       7.386   5.558  18.641  0.00  0.00    +0.000 C 
ENDROOT
BRANCH  12  13
ATOM     13  N   UNL     1       7.923   5.619  19.999  0.00  0.00    +0.000 NA
ATOM     14  H   UNL     1       7.278   5.223  20.672  0.00  0.00    +0.000 HD
ATOM     15  H   UNL     1       7.950   6.610  20.257  0.00  0.00    +0.000 HD
ENDBRANCH  12  13
BRANCH   7  16
ATOM     16  C   UNL     1       1.980   4.122  17.573  0.00  0.00    +0.000 C 
ATOM     17  O   UNL     1       0.994   4.724  17.159  0.00  0.00    +0.000 OA
BRANCH  16  18
ATOM     18  N   UNL     1       2.011   2.794  17.924  0.00  0.00    +0.000 NA
ATOM     19  C   UNL     1       1.235   2.364  18.854  0.00  0.00    +0.000 C 
ATOM     20  N   UNL     1       0.290   3.013  19.572  0.00  0.00    +0.000 N 
ATOM     21  N   UNL     1       1.290   1.068  19.233  0.00  0.00    +0.000 N 
ATOM     22  H   UNL     1       0.322   4.023  19.414  0.00  0.00    +0.000 HD
ATOM     23  H   UNL     1       0.323   2.798  20.562  0.00  0.00    +0.000 HD
ATOM     24  H   UNL     1       1.845   0.523  18.580  0.00  0.00    +0.000 HD
ATOM     25  H   UNL     1       0.368   0.664  19.353  0.00  0.00    +0.000 HD
ENDBRANCH  16  18
ENDBRANCH   7  16
TORSDOF 3
ENDMDL
MODEL 4
REMARK VINA RESULT:      -7.5      2.053      2.543
REMARK  Name = 
REMARK  4 active torsions:
REMARK  status: ('A' for Active; 'I' for Inactive)
REMARK    1  A    between atoms: C_1  and  C_2
REMARK    2  A    between atoms: C_7  and  C_8
REMARK    3  A    between atoms: C_8  and  N_10
REMARK    4  A    between atoms: C_18  and  N_19
REMARK                            x       y       z     vdW  Elec       q    Type
REMARK                         _______ _______ _______ _____ _____    ______ ____
ROOT
ATOM      1  C   UNL     1       1.543   3.971  17.669  0.00  0.00    +0.000 C 
ATOM      2  C   UNL     1       3.005   4.286  17.842  0.00  0.00    +0.000 A 
ATOM      3  C   UNL     1       3.915   3.865  16.848  0.00  0.00    +0.000 A 
ATOM      4  C   UNL     1       5.267   4.141  16.996  0.00  0.00    +0.000 A 
ATOM      5  C   UNL     1       5.716   4.720  18.192  0.00  0.00    +0.000 A 
ATOM      6  C   UNL     1       4.865   5.199  19.160  0.00  0.00    +0.000 A 
ATOM      7  C   UNL     1       3.484   5.040  18.951  0.00  0.00    +0.000 A 
ATOM      8  S   UNL     1       7.367   5.345  17.953  0.00  0.00    +0.000 S 
ATOM      9  O   UNL     1       7.444   6.655  18.531  0.00  0.00    +0.000 OA
ATOM     10  O   UNL     1       8.312   4.275  18.251  0.00  0.00    +0.000 OA
ATOM     11  C   UNL     1       7.047   5.466  16.162  0.00  0.00    +0.000 C 
ATOM     12  C   UNL     1       6.382   4.097  15.959  0.00  0.00    +0.000 C 
ENDROOT
BRANCH  12  13
ATOM     13  N   UNL     1       6.004   3.711  14.601  0.00  0.00    +0.000 NA
ATOM     14  H   UNL     1       5.184   3.116  14.597  0.00  0.00    +0.000 HD
ATOM     15  H   UNL     1       6.745   3.092  14.257  0.00  0.00    +0.000 HD
ENDBRANCH  12  13
BRANCH   7  16
ATOM     16  C   UNL     1       2.558   5.871  19.786  0.00  0.00    +0.000 C 
ATOM     17  O   UNL     1       2.083   5.399  20.815  0.00  0.00    +0.000 OA
BRANCH  16  18
ATOM     18  N   UNL     1       2.228   7.091  19.246  0.00  0.00    +0.000 NA
ATOM     19  C   UNL     1       1.810   8.033  20.013  0.00  0.00    +0.000 C 
ATOM     20  N   UNL     1       1.669   8.067  21.358  0.00  0.00    +0.000 N 
ATOM     21  N   UNL     1       1.442   9.221  19.484  0.00  0.00    +0.000 N 
ATOM     22  H   UNL     1       1.798   7.143  21.776  0.00  0.00    +0.000 HD
ATOM     23  H   UNL     1       0.794   8.483  21.658  0.00  0.00    +0.000 HD
ATOM     24  H   UNL     1       1.723   9.286  18.510  0.00  0.00    +0.000 HD
ATOM     25  H   UNL     1       1.797  10.006  20.019  0.00  0.00    +0.000 HD
ENDBRANCH  16  18
ENDBRANCH   7  16
TORSDOF 3
ENDMDL
MODEL 5
REMARK VINA RESULT:      -7.4      2.520      5.837
REMARK  Name = 
REMARK  4 active torsions:
REMARK  status: ('A' for Active; 'I' for Inactive)
REMARK    1  A    between atoms: C_1  and  C_2
REMARK    2  A    between atoms: C_7  and  C_8
REMARK    3  A    between atoms: C_8  and  N_10
REMARK    4  A    between atoms: C_18  and  N_19
REMARK                            x       y       z     vdW  Elec       q    Type
REMARK                         _______ _______ _______ _____ _____    ______ ____
ROOT
ATOM      1  C   UNL     1       3.266   7.663  17.524  0.00  0.00    +0.000 C 
ATOM      2  C   UNL     1       3.522   6.297  18.102  0.00  0.00    +0.000 A 
ATOM      3  C   UNL     1       2.606   5.770  19.038  0.00  0.00    +0.000 A 
ATOM      4  C   UNL     1       2.832   4.515  19.585  0.00  0.00    +0.000 A 
ATOM      5  C   UNL     1       4.033   3.852  19.294  0.00  0.00    +0.000 A 
ATOM      6  C   UNL     1       4.926   4.296  18.347  0.00  0.00    +0.000 A 
ATOM      7  C   UNL     1       4.633   5.504  17.692  0.00  0.00    +0.000 A 
ATOM      8  S   UNL     1       3.879   2.138  19.756  0.00  0.00    +0.000 S 
ATOM      9  O   UNL     1       4.413   1.332  18.698  0.00  0.00    +0.000 OA
ATOM     10  O   UNL     1       4.276   2.001  21.153  0.00  0.00    +0.000 OA
ATOM     11  C   UNL     1       2.067   2.270  19.593  0.00  0.00    +0.000 C 
ATOM     12  C   UNL     1       1.872   3.600  20.335  0.00  0.00    +0.000 C 
ENDROOT
BRANCH  12  13
ATOM     13  N   UNL     1       0.506   4.088  20.521  0.00  0.00    +0.000 NA
ATOM     14  H   UNL     1       0.347   4.952  20.017  0.00  0.00    +0.000 HD
ATOM     15  H   UNL     1       0.429   4.372  21.503  0.00  0.00    +0.000 HD
ENDBRANCH  12  13
BRANCH   7  16
ATOM     16  C   UNL     1       5.376   5.801  16.424  0.00  0.00    +0.000 C 
ATOM     17  O   UNL     1       5.890   6.905  16.268  0.00  0.00    +0.000 OA
BRANCH  16  18
ATOM     18  N   UNL     1       5.317   4.811  15.473  0.00  0.00    +0.000 NA
ATOM     19  C   UNL     1       6.344   4.575  14.738  0.00  0.00    +0.000 C 
ATOM     20  N   UNL     1       7.579   5.127  14.759  0.00  0.00    +0.000 N 
ATOM     21  N   UNL     1       6.280   3.633  13.771  0.00  0.00    +0.000 N 
ATOM     22  H   UNL     1       7.619   5.940  15.377  0.00  0.00    +0.000 HD
ATOM     23  H   UNL     1       7.931   5.353  13.836  0.00  0.00    +0.000 HD
ATOM     24  H   UNL     1       5.437   3.074  13.866  0.00  0.00    +0.000 HD
ATOM     25  H   UNL     1       7.106   3.045  13.753  0.00  0.00    +0.000 HD
ENDBRANCH  16  18
ENDBRANCH   7  16
TORSDOF 3
ENDMDL
MODEL 6
REMARK VINA RESULT:      -7.3      3.137      5.608
REMARK  Name = 
REMARK  4 active torsions:
REMARK  status: ('A' for Active; 'I' for Inactive)
REMARK    1  A    between atoms: C_1  and  C_2
REMARK    2  A    between atoms: C_7  and  C_8
REMARK    3  A    between atoms: C_8  and  N_10
REMARK    4  A    between atoms: C_18  and  N_19
REMARK                            x       y       z     vdW  Elec       q    Type
REMARK                         _______ _______ _______ _____ _____    ______ ____
ROOT
ATOM      1  C   UNL     1       5.762   4.149  15.028  0.00  0.00    +0.000 C 
ATOM      2  C   UNL     1       4.816   4.172  16.198  0.00  0.00    +0.000 A 
ATOM      3  C   UNL     1       4.439   2.949  16.795  0.00  0.00    +0.000 A 
ATOM      4  C   UNL     1       3.562   2.954  17.870  0.00  0.00    +0.000 A 
ATOM      5  C   UNL     1       2.968   4.163  18.259  0.00  0.00    +0.000 A 
ATOM      6  C   UNL     1       3.345   5.383  17.748  0.00  0.00    +0.000 A 
ATOM      7  C   UNL     1       4.333   5.394  16.750  0.00  0.00    +0.000 A 
ATOM      8  S   UNL     1       2.250   3.967  19.878  0.00  0.00    +0.000 S 
ATOM      9  O   UNL     1       2.598   5.110  20.670  0.00  0.00    +0.000 OA
ATOM     10  O   UNL     1       0.884   3.480  19.720  0.00  0.00    +0.000 OA
ATOM     11  C   UNL     1       3.407   2.597  20.209  0.00  0.00    +0.000 C 
ATOM     12  C   UNL     1       3.259   1.850  18.876  0.00  0.00    +0.000 C 
ENDROOT
BRANCH  12  13
ATOM     13  N   UNL     1       3.983   0.590  18.710  0.00  0.00    +0.000 NA
ATOM     14  H   UNL     1       4.485   0.336  19.552  0.00  0.00    +0.000 HD
ATOM     15  H   UNL     1       4.732   0.771  18.035  0.00  0.00    +0.000 HD
ENDBRANCH  12  13
BRANCH   7  16
ATOM     16  C   UNL     1       5.012   6.699  16.462  0.00  0.00    +0.000 C 
ATOM     17  O   UNL     1       4.866   7.228  15.363  0.00  0.00    +0.000 OA
BRANCH  16  18
ATOM     18  N   UNL     1       5.853   7.146  17.452  0.00  0.00    +0.000 NA
ATOM     19  C   UNL     1       7.124   7.010  17.315  0.00  0.00    +0.000 C 
ATOM     20  N   UNL     1       7.843   6.517  16.281  0.00  0.00    +0.000 N 
ATOM     21  N   UNL     1       7.955   7.407  18.303  0.00  0.00    +0.000 N 
ATOM     22  H   UNL     1       7.244   6.075  15.579  0.00  0.00    +0.000 HD
ATOM     23  H   UNL     1       8.584   5.891  16.572  0.00  0.00    +0.000 HD
ATOM     24  H   UNL     1       7.456   7.955  18.998  0.00  0.00    +0.000 HD
ATOM     25  H   UNL     1       8.759   7.913  17.948  0.00  0.00    +0.000 HD
ENDBRANCH  16  18
ENDBRANCH   7  16
TORSDOF 3
ENDMDL
MODEL 7
REMARK VINA RESULT:      -7.2      4.080      5.858
REMARK  Name = 
REMARK  4 active torsions:
REMARK  status: ('A' for Active; 'I' for Inactive)
REMARK    1  A    between atoms: C_1  and  C_2
REMARK    2  A    between atoms: C_7  and  C_8
REMARK    3  A    between atoms: C_8  and  N_10
REMARK    4  A    between atoms: C_18  and  N_19
REMARK                            x       y       z     vdW  Elec       q    Type
REMARK                         _______ _______ _______ _____ _____    ______ ____
ROOT
ATOM      1  C   UNL     1       3.499   5.699  17.467  0.00  0.00    +0.000 C 
ATOM      2  C   UNL     1       2.762   6.481  18.523  0.00  0.00    +0.000 A 
ATOM      3  C   UNL     1       2.504   7.851  18.301  0.00  0.00    +0.000 A 
ATOM      4  C   UNL     1       1.832   8.586  19.267  0.00  0.00    +0.000 A 
ATOM      5  C   UNL     1       1.538   7.983  20.499  0.00  0.00    +0.000 A 
ATOM      6  C   UNL     1       1.716   6.641  20.739  0.00  0.00    +0.000 A 
ATOM      7  C   UNL     1       2.274   5.863  19.710  0.00  0.00    +0.000 A 
ATOM      8  S   UNL     1       0.331   8.972  21.359  0.00  0.00    +0.000 S 
ATOM      9  O   UNL     1      -0.671   8.101  21.897  0.00  0.00    +0.000 OA
ATOM     10  O   UNL     1       1.038   9.974  22.150  0.00  0.00    +0.000 OA
ATOM     11  C   UNL     1      -0.223   9.660  19.763  0.00  0.00    +0.000 C 
ATOM     12  C   UNL     1       1.156   9.946  19.151  0.00  0.00    +0.000 C 
ENDROOT
BRANCH  12  13
ATOM     13  N   UNL     1       1.204  10.597  17.842  0.00  0.00    +0.000 NA
ATOM     14  H   UNL     1       0.672  10.082  17.150  0.00  0.00    +0.000 HD
ATOM     15  H   UNL     1       2.168  10.509  17.509  0.00  0.00    +0.000 HD
ENDBRANCH  12  13
BRANCH   7  16
ATOM     16  C   UNL     1       2.127   4.375  19.810  0.00  0.00    +0.000 C 
ATOM     17  O   UNL     1       1.034   3.859  19.595  0.00  0.00    +0.000 OA
BRANCH  16  18
ATOM     18  N   UNL     1       3.244   3.711  20.257  0.00  0.00    +0.000 NA
ATOM     19  C   UNL     1       3.705   2.719  19.583  0.00  0.00    +0.000 C 
ATOM     20  N   UNL     1       3.295   2.198  18.404  0.00  0.00    +0.000 N 
ATOM     21  N   UNL     1       4.777   2.034  20.039  0.00  0.00    +0.000 N 
ATOM     22  H   UNL     1       2.402   2.596  18.104  0.00  0.00    +0.000 HD
ATOM     23  H   UNL     1       3.259   1.185  18.406  0.00  0.00    +0.000 HD
ATOM     24  H   UNL     1       5.218   2.524  20.811  0.00  0.00    +0.000 HD
ATOM     25  H   UNL     1       5.446   1.836  19.303  0.00  0.00    +0.000 HD
ENDBRANCH  16  18
ENDBRANCH   7  16
TORSDOF 3
ENDMDL
MODEL 8
REMARK VINA RESULT:      -7.1      2.580      5.857
REMARK  Name = 
REMARK  4 active torsions:
REMARK  status: ('A' for Active; 'I' for Inactive)
REMARK    1  A    between atoms: C_1  and  C_2
REMARK    2  A    between atoms: C_7  and  C_8
REMARK    3  A    between atoms: C_8  and  N_10
REMARK    4  A    between atoms: C_18  and  N_19
REMARK                            x       y       z     vdW  Elec       q    Type
REMARK                         _______ _______ _______ _____ _____    ______ ____
ROOT
ATOM      1  C   UNL     1       5.297   3.813  15.943  0.00  0.00    +0.000 C 
ATOM      2  C   UNL     1       4.430   4.048  17.151  0.00  0.00    +0.000 A 
ATOM      3  C   UNL     1       3.173   3.409  17.224  0.00  0.00    +0.000 A 
ATOM      4  C   UNL     1       2.360   3.622  18.328  0.00  0.00    +0.000 A 
ATOM      5  C   UNL     1       2.749   4.568  19.288  0.00  0.00    +0.000 A 
ATOM      6  C   UNL     1       3.985   5.170  19.291  0.00  0.00    +0.000 A 
ATOM      7  C   UNL     1       4.866   4.854  18.243  0.00  0.00    +0.000 A 
ATOM      8  S   UNL     1       1.778   4.334  20.763  0.00  0.00    +0.000 S 
ATOM      9  O   UNL     1       2.653   4.393  21.897  0.00  0.00    +0.000 OA
ATOM     10  O   UNL     1       0.560   5.128  20.643  0.00  0.00    +0.000 OA
ATOM     11  C   UNL     1       1.488   2.599  20.281  0.00  0.00    +0.000 C 
ATOM     12  C   UNL     1       1.147   2.831  18.802  0.00  0.00    +0.000 C 
ENDROOT
BRANCH  12  13
ATOM     13  N   UNL     1       0.760   1.673  17.998  0.00  0.00    +0.000 NA
ATOM     14  H   UNL     1       0.831   0.812  18.526  0.00  0.00    +0.000 HD
ATOM     15  H   UNL     1       1.479   1.565  17.276  0.00  0.00    +0.000 HD
ENDBRANCH  12  13
BRANCH   7  16
ATOM     16  C   UNL     1       6.314   5.194  18.429  0.00  0.00    +0.000 C 
ATOM     17  O   UNL     1       7.114   4.305  18.706  0.00  0.00    +0.000 OA
BRANCH  16  18
ATOM     18  N   UNL     1       6.605   6.536  18.379  0.00  0.00    +0.000 NA
ATOM     19  C   UNL     1       7.218   7.015  17.356  0.00  0.00    +0.000 C 
ATOM     20  N   UNL     1       7.617   6.410  16.215  0.00  0.00    +0.000 N 
ATOM     21  N   UNL     1       7.545   8.326  17.319  0.00  0.00    +0.000 N 
ATOM     22  H   UNL     1       7.516   5.394  16.270  0.00  0.00    +0.000 HD
ATOM     23  H   UNL     1       8.556   6.668  15.933  0.00  0.00    +0.000 HD
ATOM     24  H   UNL     1       7.086   8.835  18.069  0.00  0.00    +0.000 HD
ATOM     25  H   UNL     1       7.347   8.745  16.418  0.00  0.00    +0.000 HD
ENDBRANCH  16  18
ENDBRANCH   7  16
TORSDOF 3
ENDMDL
MODEL 9
REMARK VINA RESULT:      -7.1      3.021      5.590
REMARK  Name = 
REMARK  4 active torsions:
REMARK  status: ('A' for Active; 'I' for Inactive)
REMARK    1  A    between atoms: C_1  and  C_2
REMARK    2  A    between atoms: C_7  and  C_8
REMARK    3  A    between atoms: C_8  and  N_10
REMARK    4  A    between atoms: C_18  and  N_19
REMARK                            x       y       z     vdW  Elec       q    Type
REMARK                         _______ _______ _______ _____ _____    ______ ____
ROOT
ATOM      1  C   UNL     1       5.036   3.966  15.676  0.00  0.00    +0.000 C 
ATOM      2  C   UNL     1       4.218   4.228  16.913  0.00  0.00    +0.000 A 
ATOM      3  C   UNL     1       3.032   3.488  17.115  0.00  0.00    +0.000 A 
ATOM      4  C   UNL     1       2.263   3.723  18.246  0.00  0.00    +0.000 A 
ATOM      5  C   UNL     1       2.613   4.780  19.099  0.00  0.00    +0.000 A 
ATOM      6  C   UNL     1       3.786   5.488  18.976  0.00  0.00    +0.000 A 
ATOM      7  C   UNL     1       4.634   5.161  17.905  0.00  0.00    +0.000 A 
ATOM      8  S   UNL     1       1.749   4.591  20.646  0.00  0.00    +0.000 S 
ATOM      9  O   UNL     1       2.675   4.826  21.715  0.00  0.00    +0.000 OA
ATOM     10  O   UNL     1       0.457   5.260  20.536  0.00  0.00    +0.000 OA
ATOM     11  C   UNL     1       1.598   2.802  20.327  0.00  0.00    +0.000 C 
ATOM     12  C   UNL     1       1.157   2.872  18.858  0.00  0.00    +0.000 C 
ENDROOT
BRANCH  12  13
ATOM     13  N   UNL     1       0.837   1.618  18.177  0.00  0.00    +0.000 NA
ATOM     14  H   UNL     1      -0.122   1.338  18.344  0.00  0.00    +0.000 HD
ATOM     15  H   UNL     1       1.381   0.886  18.643  0.00  0.00    +0.000 HD
ENDBRANCH  12  13
BRANCH   7  16
ATOM     16  C   UNL     1       6.052   5.644  17.973  0.00  0.00    +0.000 C 
ATOM     17  O   UNL     1       6.482   6.385  17.094  0.00  0.00    +0.000 OA
BRANCH  16  18
ATOM     18  N   UNL     1       6.798   5.105  18.993  0.00  0.00    +0.000 NA
ATOM     19  C   UNL     1       7.831   5.735  19.426  0.00  0.00    +0.000 C 
ATOM     20  N   UNL     1       8.329   6.942  19.073  0.00  0.00    +0.000 N 
ATOM     21  N   UNL     1       8.595   5.190  20.399  0.00  0.00    +0.000 N 
ATOM     22  H   UNL     1       7.864   7.316  18.243  0.00  0.00    +0.000 HD
ATOM     23  H   UNL     1       9.335   6.940  18.956  0.00  0.00    +0.000 HD
ATOM     24  H   UNL     1       8.134   4.386  20.813  0.00  0.00    +0.000 HD
ATOM     25  H   UNL     1       8.853   5.867  21.108  0.00  0.00    +0.000 HD
ENDBRANCH  16  18
ENDBRANCH   7  16
TORSDOF 3
ENDMDL
