MODEL 1
REMARK VINA RESULT:      -8.1      0.000      0.000
REMARK  Name = 
REMARK  3 active torsions:
REMARK  status: ('A' for Active; 'I' for Inactive)
REMARK    1  A    between atoms: C_2  and  C_3
REMARK    2  A    between atoms: C_2  and  C_12
REMARK    3  A    between atoms: C_4  and  C_5
REMARK                            x       y       z     vdW  Elec       q    Type
REMARK                         _______ _______ _______ _____ _____    ______ ____
ROOT
ATOM      1  O   UNL     1       7.419   5.444  19.868  0.00  0.00    +0.000 OA
ATOM      2  C   UNL     1       6.605   5.055  19.026  0.00  0.00    +0.000 C 
ENDROOT
BRANCH   2   3
ATOM      3  C   UNL     1       5.266   4.638  19.384  0.00  0.00    +0.000 A 
ATOM      4  N   UNL     1       4.842   3.389  19.483  0.00  0.00    +0.000 NA
ATOM      5  C   UNL     1       3.519   3.481  19.852  0.00  0.00    +0.000 A 
ATOM      6  C   UNL     1       2.590   2.468  20.133  0.00  0.00    +0.000 A 
ATOM      7  C   UNL     1       1.279   2.834  20.469  0.00  0.00    +0.000 A 
ATOM      8  C   UNL     1       0.899   4.178  20.514  0.00  0.00    +0.000 A 
ATOM      9  C   UNL     1       1.817   5.202  20.254  0.00  0.00    +0.000 A 
ATOM     10  C   UNL     1       3.120   4.809  19.941  0.00  0.00    +0.000 A 
ATOM     11  N   UNL     1       4.255   5.521  19.673  0.00  0.00    +0.000 N 
ATOM     12  H   UNL     1       4.357   6.527  19.672  0.00  0.00    +0.000 HD
ENDBRANCH   2   3
BRANCH   2  13
ATOM     13  C   UNL     1       6.957   5.054  17.583  0.00  0.00    +0.000 C 
ATOM     14  C   UNL     1       6.070   4.679  16.648  0.00  0.00    +0.000 C 
BRANCH  14  15
ATOM     15  C   UNL     1       6.417   4.542  15.227  0.00  0.00    +0.000 A 
ATOM     16  C   UNL     1       5.668   3.720  14.369  0.00  0.00    +0.000 A 
ATOM     17  C   UNL     1       5.988   3.625  13.014  0.00  0.00    +0.000 A 
ATOM     18  C   UNL     1       7.048   4.364  12.512  0.00  0.00    +0.000 A 
ATOM     19  F   UNL     1       7.358   4.270  11.212  0.00  0.00    +0.000 F 
ATOM     20  C   UNL     1       7.789   5.204  13.336  0.00  0.00    +0.000 A 
ATOM     21  C   UNL     1       7.468   5.300  14.692  0.00  0.00    +0.000 A 
ENDBRANCH  14  15
ENDBRANCH   2  13
TORSDOF 3
ENDMDL
MODEL 2
REMARK VINA RESULT:      -8.1      0.316      1.335
REMARK  Name = 
REMARK  3 active torsions:
REMARK  status: ('A' for Active; 'I' for Inactive)
REMARK    1  A    between atoms: C_2  and  C_3
REMARK    2  A    between atoms: C_2  and  C_12
REMARK    3  A    between atoms: C_4  and  C_5
REMARK                            x       y       z     vdW  Elec       q    Type
REMARK                         _______ _______ _______ _____ _____    ______ ____
ROOT
ATOM      1  O   UNL     1       7.490   5.504  19.566  0.00  0.00    +0.000 OA
ATOM      2  C   UNL     1       6.694   4.986  18.778  0.00  0.00    +0.000 C 
ENDROOT
BRANCH   2   3
ATOM      3  C   UNL     1       5.348   4.627  19.167  0.00  0.00    +0.000 A 
ATOM      4  N   UNL     1       4.398   5.465  19.546  0.00  0.00    +0.000 NA
ATOM      5  C   UNL     1       3.299   4.679  19.808  0.00  0.00    +0.000 A 
ATOM      6  C   UNL     1       2.004   5.044  20.206  0.00  0.00    +0.000 A 
ATOM      7  C   UNL     1       1.061   4.033  20.432  0.00  0.00    +0.000 A 
ATOM      8  C   UNL     1       1.401   2.686  20.274  0.00  0.00    +0.000 A 
ATOM      9  C   UNL     1       2.682   2.305  19.859  0.00  0.00    +0.000 A 
ATOM     10  C   UNL     1       3.596   3.334  19.624  0.00  0.00    +0.000 A 
ATOM     11  N   UNL     1       4.890   3.332  19.185  0.00  0.00    +0.000 N 
ATOM     12  H   UNL     1       5.442   2.527  18.920  0.00  0.00    +0.000 HD
ENDBRANCH   2   3
BRANCH   2  13
ATOM     13  C   UNL     1       7.078   4.761  17.360  0.00  0.00    +0.000 C 
ATOM     14  C   UNL     1       6.234   5.042  16.355  0.00  0.00    +0.000 C 
BRANCH  14  15
ATOM     15  C   UNL     1       6.525   4.715  14.953  0.00  0.00    +0.000 A 
ATOM     16  C   UNL     1       5.711   3.832  14.225  0.00  0.00    +0.000 A 
ATOM     17  C   UNL     1       5.979   3.557  12.883  0.00  0.00    +0.000 A 
ATOM     18  C   UNL     1       7.053   4.177  12.263  0.00  0.00    +0.000 A 
ATOM     19  F   UNL     1       7.313   3.910  10.977  0.00  0.00    +0.000 F 
ATOM     20  C   UNL     1       7.858   5.074  12.955  0.00  0.00    +0.000 A 
ATOM     21  C   UNL     1       7.589   5.351  14.298  0.00  0.00    +0.000 A 
ENDBRANCH  14  15
ENDBRANCH   2  13
TORSDOF 3
ENDMDL
MODEL 3
REMARK VINA RESULT:      -8.1      3.325      7.399
REMARK  Name = 
REMARK  3 active torsions:
REMARK  status: ('A' for Active; 'I' for Inactive)
REMARK    1  A    between atoms: C_2  and  C_3
REMARK    2  A    between atoms: C_2  and  C_12
REMARK    3  A    between atoms: C_4  and  C_5
REMARK                            x       y       z     vdW  Elec       q    Type
REMARK                         _______ _______ _______ _____ _____    ______ ____
ROOT
ATOM      1  O   UNL     1       7.736   5.988  18.268  0.00  0.00    +0.000 OA
ATOM      2  C   UNL     1       6.903   5.248  17.736  0.00  0.00    +0.000 C 
ENDROOT
BRANCH   2   3
ATOM      3  C   UNL     1       6.907   4.981  16.314  0.00  0.00    +0.000 A 
ATOM      4  N   UNL     1       7.589   5.650  15.400  0.00  0.00    +0.000 NA
ATOM      5  C   UNL     1       7.292   5.039  14.203  0.00  0.00    +0.000 A 
ATOM      6  C   UNL     1       7.765   5.311  12.910  0.00  0.00    +0.000 A 
ATOM      7  C   UNL     1       7.279   4.544  11.842  0.00  0.00    +0.000 A 
ATOM      8  C   UNL     1       6.335   3.536  12.054  0.00  0.00    +0.000 A 
ATOM      9  C   UNL     1       5.866   3.239  13.339  0.00  0.00    +0.000 A 
ATOM     10  C   UNL     1       6.381   4.005  14.386  0.00  0.00    +0.000 A 
ATOM     11  N   UNL     1       6.180   3.969  15.738  0.00  0.00    +0.000 N 
ATOM     12  H   UNL     1       5.595   3.322  16.249  0.00  0.00    +0.000 HD
ENDBRANCH   2   3
BRANCH   2  13
ATOM     13  C   UNL     1       5.883   4.550  18.560  0.00  0.00    +0.000 C 
ATOM     14  C   UNL     1       4.645   5.049  18.708  0.00  0.00    +0.000 C 
BRANCH  14  15
ATOM     15  C   UNL     1       3.650   4.460  19.613  0.00  0.00    +0.000 A 
ATOM     16  C   UNL     1       2.554   5.206  20.077  0.00  0.00    +0.000 A 
ATOM     17  C   UNL     1       1.597   4.624  20.910  0.00  0.00    +0.000 A 
ATOM     18  C   UNL     1       1.727   3.291  21.267  0.00  0.00    +0.000 A 
ATOM     19  F   UNL     1       0.810   2.733  22.070  0.00  0.00    +0.000 F 
ATOM     20  C   UNL     1       2.788   2.525  20.800  0.00  0.00    +0.000 A 
ATOM     21  C   UNL     1       3.746   3.107  19.965  0.00  0.00    +0.000 A 
ENDBRANCH  14  15
ENDBRANCH   2  13
TORSDOF 3
ENDMDL
MODEL 4
REMARK VINA RESULT:      -8.0      3.361      7.384
REMARK  Name = 
REMARK  3 active torsions:
REMARK  status: ('A' for Active; 'I' for Inactive)
REMARK    1  A    between atoms: C_2  and  C_3
REMARK    2  A    between atoms: C_2  and  C_12
REMARK    3  A    between atoms: C_4  and  C_5
REMARK                            x       y       z     vdW  Elec       q    Type
REMARK                         _______ _______ _______ _____ _____    ______ ____
ROOT
ATOM      1  O   UNL     1       7.159   6.542  18.009  0.00  0.00    +0.000 OA
ATOM      2  C   UNL     1       6.473   5.609  17.584  0.00  0.00    +0.000 C 
ENDROOT
BRANCH   2   3
ATOM      3  C   UNL     1       6.528   5.178  16.204  0.00  0.00    +0.000 A 
ATOM      4  N   UNL     1       5.760   4.258  15.645  0.00  0.00    +0.000 NA
ATOM      5  C   UNL     1       6.165   4.193  14.331  0.00  0.00    +0.000 A 
ATOM      6  C   UNL     1       5.670   3.415  13.274  0.00  0.00    +0.000 A 
ATOM      7  C   UNL     1       6.284   3.519  12.018  0.00  0.00    +0.000 A 
ATOM      8  C   UNL     1       7.373   4.373  11.822  0.00  0.00    +0.000 A 
ATOM      9  C   UNL     1       7.868   5.170  12.861  0.00  0.00    +0.000 A 
ATOM     10  C   UNL     1       7.225   5.059  14.095  0.00  0.00    +0.000 A 
ATOM     11  N   UNL     1       7.413   5.695  15.290  0.00  0.00    +0.000 N 
ATOM     12  H   UNL     1       8.087   6.421  15.494  0.00  0.00    +0.000 HD
ENDBRANCH   2   3
BRANCH   2  13
ATOM     13  C   UNL     1       5.591   4.845  18.503  0.00  0.00    +0.000 C 
ATOM     14  C   UNL     1       4.263   5.044  18.523  0.00  0.00    +0.000 C 
BRANCH  14  15
ATOM     15  C   UNL     1       3.374   4.404  19.501  0.00  0.00    +0.000 A 
ATOM     16  C   UNL     1       2.123   4.957  19.821  0.00  0.00    +0.000 A 
ATOM     17  C   UNL     1       1.273   4.321  20.727  0.00  0.00    +0.000 A 
ATOM     18  C   UNL     1       1.667   3.123  21.303  0.00  0.00    +0.000 A 
ATOM     19  F   UNL     1       0.854   2.515  22.177  0.00  0.00    +0.000 F 
ATOM     20  C   UNL     1       2.889   2.544  20.984  0.00  0.00    +0.000 A 
ATOM     21  C   UNL     1       3.740   3.179  20.076  0.00  0.00    +0.000 A 
ENDBRANCH  14  15
ENDBRANCH   2  13
TORSDOF 3
ENDMDL
MODEL 5
REMARK VINA RESULT:      -8.0      3.378      7.433
REMARK  Name = 
REMARK  3 active torsions:
REMARK  status: ('A' for Active; 'I' for Inactive)
REMARK    1  A    between atoms: C_2  and  C_3
REMARK    2  A    between atoms: C_2  and  C_12
REMARK    3  A    between atoms: C_4  and  C_5
REMARK                            x       y       z     vdW  Elec       q    Type
REMARK                         _______ _______ _______ _____ _____    ______ ____
ROOT
ATOM      1  O   UNL     1       7.026   6.626  17.944  0.00  0.00    +0.000 OA
ATOM      2  C   UNL     1       6.400   5.667  17.485  0.00  0.00    +0.000 C 
ENDROOT
BRANCH   2   3
ATOM      3  C   UNL     1       6.526   5.253  16.105  0.00  0.00    +0.000 A 
ATOM      4  N   UNL     1       7.418   5.702  15.238  0.00  0.00    +0.000 NA
ATOM      5  C   UNL     1       7.164   5.024  14.067  0.00  0.00    +0.000 A 
ATOM      6  C   UNL     1       7.828   5.077  12.832  0.00  0.00    +0.000 A 
ATOM      7  C   UNL     1       7.348   4.290  11.777  0.00  0.00    +0.000 A 
ATOM      8  C   UNL     1       6.225   3.474  11.944  0.00  0.00    +0.000 A 
ATOM      9  C   UNL     1       5.561   3.396  13.174  0.00  0.00    +0.000 A 
ATOM     10  C   UNL     1       6.073   4.176  14.212  0.00  0.00    +0.000 A 
ATOM     11  N   UNL     1       5.709   4.316  15.522  0.00  0.00    +0.000 N 
ATOM     12  H   UNL     1       4.964   3.830  16.003  0.00  0.00    +0.000 HD
ENDBRANCH   2   3
BRANCH   2  13
ATOM     13  C   UNL     1       5.519   4.855  18.364  0.00  0.00    +0.000 C 
ATOM     14  C   UNL     1       4.202   5.102  18.450  0.00  0.00    +0.000 C 
BRANCH  14  15
ATOM     15  C   UNL     1       3.321   4.409  19.400  0.00  0.00    +0.000 A 
ATOM     16  C   UNL     1       3.731   3.234  20.053  0.00  0.00    +0.000 A 
ATOM     17  C   UNL     1       2.898   2.605  20.978  0.00  0.00    +0.000 A 
ATOM     18  C   UNL     1       1.658   3.157  21.263  0.00  0.00    +0.000 A 
ATOM     19  F   UNL     1       0.857   2.551  22.149  0.00  0.00    +0.000 F 
ATOM     20  C   UNL     1       1.240   4.332  20.650  0.00  0.00    +0.000 A 
ATOM     21  C   UNL     1       2.075   4.964  19.724  0.00  0.00    +0.000 A 
ENDBRANCH  14  15
ENDBRANCH   2  13
TORSDOF 3
ENDMDL
MODEL 6
REMARK VINA RESULT:      -8.0      0.162      1.092
REMARK  Name = 
REMARK  3 active torsions:
REMARK  status: ('A' for Active; 'I' for Inactive)
REMARK    1  A    between atoms: C_2  and  C_3
REMARK    2  A    between atoms: C_2  and  C_12
REMARK    3  A    between atoms: C_4  and  C_5
REMARK                            x       y       z     vdW  Elec       q    Type
REMARK                         _______ _______ _______ _____ _____    ______ ____
ROOT
ATOM      1  O   UNL     1       7.499   5.464  19.703  0.00  0.00    +0.000 OA
ATOM      2  C   UNL     1       6.677   5.056  18.879  0.00  0.00    +0.000 C 
ENDROOT
BRANCH   2   3
ATOM      3  C   UNL     1       5.342   4.648  19.259  0.00  0.00    +0.000 A 
ATOM      4  N   UNL     1       4.907   3.402  19.352  0.00  0.00    +0.000 NA
ATOM      5  C   UNL     1       3.593   3.503  19.749  0.00  0.00    +0.000 A 
ATOM      6  C   UNL     1       2.659   2.496  20.038  0.00  0.00    +0.000 A 
ATOM      7  C   UNL     1       1.360   2.870  20.404  0.00  0.00    +0.000 A 
ATOM      8  C   UNL     1       0.994   4.217  20.472  0.00  0.00    +0.000 A 
ATOM      9  C   UNL     1       1.917   5.235  20.205  0.00  0.00    +0.000 A 
ATOM     10  C   UNL     1       3.209   4.833  19.861  0.00  0.00    +0.000 A 
ATOM     11  N   UNL     1       4.346   5.537  19.578  0.00  0.00    +0.000 N 
ATOM     12  H   UNL     1       4.458   6.542  19.587  0.00  0.00    +0.000 HD
ENDBRANCH   2   3
BRANCH   2  13
ATOM     13  C   UNL     1       7.016   5.021  17.433  0.00  0.00    +0.000 C 
ATOM     14  C   UNL     1       6.072   4.825  16.499  0.00  0.00    +0.000 C 
BRANCH  14  15
ATOM     15  C   UNL     1       6.381   4.656  15.073  0.00  0.00    +0.000 A 
ATOM     16  C   UNL     1       7.478   5.306  14.483  0.00  0.00    +0.000 A 
ATOM     17  C   UNL     1       7.782   5.110  13.135  0.00  0.00    +0.000 A 
ATOM     18  C   UNL     1       6.997   4.253  12.379  0.00  0.00    +0.000 A 
ATOM     19  F   UNL     1       7.286   4.068  11.084  0.00  0.00    +0.000 F 
ATOM     20  C   UNL     1       5.922   3.579  12.946  0.00  0.00    +0.000 A 
ATOM     21  C   UNL     1       5.619   3.773  14.296  0.00  0.00    +0.000 A 
ENDBRANCH  14  15
ENDBRANCH   2  13
TORSDOF 3
ENDMDL
MODEL 7
REMARK VINA RESULT:      -7.7      3.381      7.360
REMARK  Name = 
REMARK  3 active torsions:
REMARK  status: ('A' for Active; 'I' for Inactive)
REMARK    1  A    between atoms: C_2  and  C_3
REMARK    2  A    between atoms: C_2  and  C_12
REMARK    3  A    between atoms: C_4  and  C_5
REMARK                            x       y       z     vdW  Elec       q    Type
REMARK                         _______ _______ _______ _____ _____    ______ ____
ROOT
ATOM      1  O   UNL     1       7.175   6.634  17.902  0.00  0.00    +0.000 OA
ATOM      2  C   UNL     1       6.493   5.687  17.502  0.00  0.00    +0.000 C 
ENDROOT
BRANCH   2   3
ATOM      3  C   UNL     1       6.541   5.229  16.131  0.00  0.00    +0.000 A 
ATOM      4  N   UNL     1       5.743   4.326  15.585  0.00  0.00    +0.000 NA
ATOM      5  C   UNL     1       6.152   4.221  14.274  0.00  0.00    +0.000 A 
ATOM      6  C   UNL     1       5.635   3.442  13.229  0.00  0.00    +0.000 A 
ATOM      7  C   UNL     1       6.259   3.501  11.975  0.00  0.00    +0.000 A 
ATOM      8  C   UNL     1       7.379   4.312  11.769  0.00  0.00    +0.000 A 
ATOM      9  C   UNL     1       7.897   5.110  12.796  0.00  0.00    +0.000 A 
ATOM     10  C   UNL     1       7.244   5.045  14.028  0.00  0.00    +0.000 A 
ATOM     11  N   UNL     1       7.448   5.697  15.212  0.00  0.00    +0.000 N 
ATOM     12  H   UNL     1       8.146   6.402  15.407  0.00  0.00    +0.000 HD
ENDBRANCH   2   3
BRANCH   2  13
ATOM     13  C   UNL     1       5.626   4.934  18.444  0.00  0.00    +0.000 C 
ATOM     14  C   UNL     1       4.287   4.991  18.358  0.00  0.00    +0.000 C 
BRANCH  14  15
ATOM     15  C   UNL     1       3.396   4.367  19.344  0.00  0.00    +0.000 A 
ATOM     16  C   UNL     1       3.399   2.979  19.556  0.00  0.00    +0.000 A 
ATOM     17  C   UNL     1       2.572   2.402  20.520  0.00  0.00    +0.000 A 
ATOM     18  C   UNL     1       1.751   3.216  21.286  0.00  0.00    +0.000 A 
ATOM     19  F   UNL     1       0.953   2.662  22.209  0.00  0.00    +0.000 F 
ATOM     20  C   UNL     1       1.747   4.595  21.113  0.00  0.00    +0.000 A 
ATOM     21  C   UNL     1       2.577   5.173  20.148  0.00  0.00    +0.000 A 
ENDBRANCH  14  15
ENDBRANCH   2  13
TORSDOF 3
ENDMDL
MODEL 8
REMARK VINA RESULT:      -7.7      4.408      5.574
REMARK  Name = 
REMARK  3 active torsions:
REMARK  status: ('A' for Active; 'I' for Inactive)
REMARK    1  A    between atoms: C_2  and  C_3
REMARK    2  A    between atoms: C_2  and  C_12
REMARK    3  A    between atoms: C_4  and  C_5
REMARK                            x       y       z     vdW  Elec       q    Type
REMARK                         _______ _______ _______ _____ _____    ______ ____
ROOT
ATOM      1  O   UNL     1       7.858   4.924  17.070  0.00  0.00    +0.000 OA
ATOM      2  C   UNL     1       7.253   5.557  17.940  0.00  0.00    +0.000 C 
ENDROOT
BRANCH   2   3
ATOM      3  C   UNL     1       6.039   5.060  18.550  0.00  0.00    +0.000 A 
ATOM      4  N   UNL     1       4.984   5.785  18.883  0.00  0.00    +0.000 NA
ATOM      5  C   UNL     1       4.082   4.893  19.416  0.00  0.00    +0.000 A 
ATOM      6  C   UNL     1       2.781   5.106  19.897  0.00  0.00    +0.000 A 
ATOM      7  C   UNL     1       2.071   4.016  20.418  0.00  0.00    +0.000 A 
ATOM      8  C   UNL     1       2.646   2.743  20.468  0.00  0.00    +0.000 A 
ATOM      9  C   UNL     1       3.935   2.509  19.976  0.00  0.00    +0.000 A 
ATOM     10  C   UNL     1       4.612   3.609  19.446  0.00  0.00    +0.000 A 
ATOM     11  N   UNL     1       5.840   3.738  18.860  0.00  0.00    +0.000 N 
ATOM     12  H   UNL     1       6.510   3.001  18.682  0.00  0.00    +0.000 HD
ENDBRANCH   2   3
BRANCH   2  13
ATOM     13  C   UNL     1       7.790   6.849  18.439  0.00  0.00    +0.000 C 
ATOM     14  C   UNL     1       7.685   7.974  17.715  0.00  0.00    +0.000 C 
BRANCH  14  15
ATOM     15  C   UNL     1       8.313   9.241  18.113  0.00  0.00    +0.000 A 
ATOM     16  C   UNL     1       8.072  10.430  17.404  0.00  0.00    +0.000 A 
ATOM     17  C   UNL     1       8.648  11.633  17.813  0.00  0.00    +0.000 A 
ATOM     18  C   UNL     1       9.453  11.653  18.942  0.00  0.00    +0.000 A 
ATOM     19  F   UNL     1      10.009  12.807  19.333  0.00  0.00    +0.000 F 
ATOM     20  C   UNL     1       9.686  10.495  19.675  0.00  0.00    +0.000 A 
ATOM     21  C   UNL     1       9.108   9.290  19.267  0.00  0.00    +0.000 A 
ENDBRANCH  14  15
ENDBRANCH   2  13
TORSDOF 3
ENDMDL
MODEL 9
REMARK VINA RESULT:      -7.6      3.766      7.302
REMARK  Name = 
REMARK  3 active torsions:
REMARK  status: ('A' for Active; 'I' for Inactive)
REMARK    1  A    between atoms: C_2  and  C_3
REMARK    2  A    between atoms: C_2  and  C_12
REMARK    3  A    between atoms: C_4  and  C_5
REMARK                            x       y       z     vdW  Elec       q    Type
REMARK                         _______ _______ _______ _____ _____    ______ ____
ROOT
ATOM      1  O   UNL     1       6.703   4.351  18.500  0.00  0.00    +0.000 OA
ATOM      2  C   UNL     1       6.166   5.056  17.641  0.00  0.00    +0.000 C 
ENDROOT
BRANCH   2   3
ATOM      3  C   UNL     1       6.312   4.792  16.227  0.00  0.00    +0.000 A 
ATOM      4  N   UNL     1       5.586   3.945  15.515  0.00  0.00    +0.000 NA
ATOM      5  C   UNL     1       6.074   4.035  14.231  0.00  0.00    +0.000 A 
ATOM      6  C   UNL     1       5.652   3.388  13.060  0.00  0.00    +0.000 A 
ATOM      7  C   UNL     1       6.344   3.640  11.867  0.00  0.00    +0.000 A 
ATOM      8  C   UNL     1       7.438   4.510  11.843  0.00  0.00    +0.000 A 
ATOM      9  C   UNL     1       7.861   5.177  12.998  0.00  0.00    +0.000 A 
ATOM     10  C   UNL     1       7.142   4.921  14.167  0.00  0.00    +0.000 A 
ATOM     11  N   UNL     1       7.249   5.412  15.438  0.00  0.00    +0.000 N 
ATOM     12  H   UNL     1       7.904   6.108  15.769  0.00  0.00    +0.000 HD
ENDBRANCH   2   3
BRANCH   2  13
ATOM     13  C   UNL     1       5.290   6.188  18.038  0.00  0.00    +0.000 C 
ATOM     14  C   UNL     1       3.992   6.000  18.321  0.00  0.00    +0.000 C 
BRANCH  14  15
ATOM     15  C   UNL     1       3.065   7.107  18.592  0.00  0.00    +0.000 A 
ATOM     16  C   UNL     1       2.803   8.092  17.626  0.00  0.00    +0.000 A 
ATOM     17  C   UNL     1       1.894   9.120  17.883  0.00  0.00    +0.000 A 
ATOM     18  C   UNL     1       1.234   9.154  19.102  0.00  0.00    +0.000 A 
ATOM     19  F   UNL     1       0.365  10.142  19.352  0.00  0.00    +0.000 F 
ATOM     20  C   UNL     1       1.457   8.176  20.065  0.00  0.00    +0.000 A 
ATOM     21  C   UNL     1       2.366   7.146  19.806  0.00  0.00    +0.000 A 
ENDBRANCH  14  15
ENDBRANCH   2  13
TORSDOF 3
ENDMDL
