MODEL 1
REMARK VINA RESULT:      -6.8      0.000      0.000
REMARK  Name = 
REMARK  6 active torsions:
REMARK  status: ('A' for Active; 'I' for Inactive)
REMARK    1  A    between atoms: C_1  and  O_2
REMARK    2  A    between atoms: O_2  and  C_3
REMARK    3  A    between atoms: C_8  and  N_9
REMARK    4  A    between atoms: N_12  and  C_13
REMARK    5  A    between atoms: C_13  and  C_14
REMARK    6  A    between atoms: C_14  and  N_15
REMARK                            x       y       z     vdW  Elec       q    Type
REMARK                         _______ _______ _______ _____ _____    ______ ____
ROOT
ATOM      1  N   UNL     1       6.794   7.610  16.949  0.00  0.00    +0.000 N 
ATOM      2  C   UNL     1       7.779   7.849  17.883  0.00  0.00    +0.000 C 
ATOM      3  O   UNL     1       8.265   7.010  18.637  0.00  0.00    +0.000 OA
ATOM      4  N   UNL     1       8.191   9.163  17.924  0.00  0.00    +0.000 N 
ATOM      5  H   UNL     1       6.785   8.187  16.117  0.00  0.00    +0.000 HD
ATOM      6  H   UNL     1       7.545   9.867  17.575  0.00  0.00    +0.000 HD
ENDROOT
BRANCH   1  12
ATOM      7  C   UNL     1       6.265   5.413  15.976  0.00  0.00    +0.000 A 
ATOM      8  C   UNL     1       5.414   4.297  15.906  0.00  0.00    +0.000 A 
ATOM      9  C   UNL     1       4.332   4.166  16.775  0.00  0.00    +0.000 A 
ATOM     10  C   UNL     1       4.075   5.157  17.711  0.00  0.00    +0.000 A 
ATOM     11  C   UNL     1       4.887   6.289  17.762  0.00  0.00    +0.000 A 
ATOM     12  C   UNL     1       5.991   6.436  16.907  0.00  0.00    +0.000 A 
BRANCH   7  14
ATOM     13  C   UNL     1       7.303   4.886  13.914  0.00  0.00    +0.000 C 
ATOM     14  O   UNL     1       7.378   5.556  15.176  0.00  0.00    +0.000 OA
ENDBRANCH   7  14
ENDBRANCH   1  12
BRANCH   4  15
ATOM     15  C   UNL     1       9.121   9.558  18.975  0.00  0.00    +0.000 C 
BRANCH  15  16
ATOM     16  C   UNL     1       8.971  10.997  19.473  0.00  0.00    +0.000 C 
BRANCH  16  17
ATOM     17  N   UNL     1       9.593  11.989  18.614  0.00  0.00    +0.000 N 
ATOM     18  C   UNL     1      10.767  12.753  18.988  0.00  0.00    +0.000 C 
ATOM     19  C   UNL     1      11.047  13.561  17.726  0.00  0.00    +0.000 C 
ATOM     20  N   UNL     1       9.761  13.616  17.086  0.00  0.00    +0.000 N 
ATOM     21  C   UNL     1       8.930  12.621  17.568  0.00  0.00    +0.000 C 
ATOM     22  O   UNL     1       7.806  12.370  17.161  0.00  0.00    +0.000 OA
ATOM     23  H   UNL     1       9.533  14.100  16.227  0.00  0.00    +0.000 HD
ENDBRANCH  16  17
ENDBRANCH  15  16
ENDBRANCH   4  15
TORSDOF 5
ENDMDL
MODEL 2
REMARK VINA RESULT:      -6.7      5.595      7.125
REMARK  Name = 
REMARK  6 active torsions:
REMARK  status: ('A' for Active; 'I' for Inactive)
REMARK    1  A    between atoms: C_1  and  O_2
REMARK    2  A    between atoms: O_2  and  C_3
REMARK    3  A    between atoms: C_8  and  N_9
REMARK    4  A    between atoms: N_12  and  C_13
REMARK    5  A    between atoms: C_13  and  C_14
REMARK    6  A    between atoms: C_14  and  N_15
REMARK                            x       y       z     vdW  Elec       q    Type
REMARK                         _______ _______ _______ _____ _____    ______ ____
ROOT
ATOM      1  N   UNL     1       4.874   4.638  19.304  0.00  0.00    +0.000 N 
ATOM      2  C   UNL     1       5.303   4.531  17.999  0.00  0.00    +0.000 C 
ATOM      3  O   UNL     1       4.574   4.414  17.017  0.00  0.00    +0.000 OA
ATOM      4  N   UNL     1       6.674   4.550  17.867  0.00  0.00    +0.000 N 
ATOM      5  H   UNL     1       5.454   5.163  19.947  0.00  0.00    +0.000 HD
ATOM      6  H   UNL     1       7.226   4.283  18.678  0.00  0.00    +0.000 HD
ENDROOT
BRANCH   1  12
ATOM      7  C   UNL     1       3.114   3.011  19.857  0.00  0.00    +0.000 A 
ATOM      8  C   UNL     1       1.782   2.751  20.225  0.00  0.00    +0.000 A 
ATOM      9  C   UNL     1       0.906   3.793  20.527  0.00  0.00    +0.000 A 
ATOM     10  C   UNL     1       1.343   5.107  20.445  0.00  0.00    +0.000 A 
ATOM     11  C   UNL     1       2.649   5.379  20.040  0.00  0.00    +0.000 A 
ATOM     12  C   UNL     1       3.553   4.346  19.746  0.00  0.00    +0.000 A 
BRANCH   7  14
ATOM     13  C   UNL     1       3.736   1.200  18.465  0.00  0.00    +0.000 C 
ATOM     14  O   UNL     1       4.028   2.012  19.606  0.00  0.00    +0.000 OA
ENDBRANCH   7  14
ENDBRANCH   1  12
BRANCH   4  15
ATOM     15  C   UNL     1       7.239   4.294  16.547  0.00  0.00    +0.000 C 
BRANCH  15  16
ATOM     16  C   UNL     1       6.932   5.357  15.489  0.00  0.00    +0.000 C 
BRANCH  16  17
ATOM     17  N   UNL     1       6.794   4.829  14.143  0.00  0.00    +0.000 N 
ATOM     18  C   UNL     1       6.017   3.649  13.818  0.00  0.00    +0.000 C 
ATOM     19  C   UNL     1       6.129   3.590  12.299  0.00  0.00    +0.000 C 
ATOM     20  N   UNL     1       7.349   4.306  12.038  0.00  0.00    +0.000 N 
ATOM     21  C   UNL     1       7.689   5.104  13.116  0.00  0.00    +0.000 C 
ATOM     22  O   UNL     1       8.628   5.883  13.158  0.00  0.00    +0.000 OA
ATOM     23  H   UNL     1       7.780   4.456  11.136  0.00  0.00    +0.000 HD
ENDBRANCH  16  17
ENDBRANCH  15  16
ENDBRANCH   4  15
TORSDOF 5
ENDMDL
MODEL 3
REMARK VINA RESULT:      -6.7      4.823      6.529
REMARK  Name = 
REMARK  6 active torsions:
REMARK  status: ('A' for Active; 'I' for Inactive)
REMARK    1  A    between atoms: C_1  and  O_2
REMARK    2  A    between atoms: O_2  and  C_3
REMARK    3  A    between atoms: C_8  and  N_9
REMARK    4  A    between atoms: N_12  and  C_13
REMARK    5  A    between atoms: C_13  and  C_14
REMARK    6  A    between atoms: C_14  and  N_15
REMARK                            x       y       z     vdW  Elec       q    Type
REMARK                         _______ _______ _______ _____ _____    ______ ____
ROOT
ATOM      1  N   UNL     1       4.919   3.237  19.372  0.00  0.00    +0.000 N 
ATOM      2  C   UNL     1       5.682   4.383  19.322  0.00  0.00    +0.000 C 
ATOM      3  O   UNL     1       5.406   5.447  19.871  0.00  0.00    +0.000 OA
ATOM      4  N   UNL     1       6.826   4.251  18.566  0.00  0.00    +0.000 N 
ATOM      5  H   UNL     1       5.401   2.349  19.303  0.00  0.00    +0.000 HD
ATOM      6  H   UNL     1       6.837   3.521  17.858  0.00  0.00    +0.000 HD
ENDROOT
BRANCH   1  12
ATOM      7  C   UNL     1       2.539   3.773  19.054  0.00  0.00    +0.000 A 
ATOM      8  C   UNL     1       1.225   3.773  19.552  0.00  0.00    +0.000 A 
ATOM      9  C   UNL     1       0.919   3.159  20.766  0.00  0.00    +0.000 A 
ATOM     10  C   UNL     1       1.924   2.557  21.507  0.00  0.00    +0.000 A 
ATOM     11  C   UNL     1       3.239   2.587  21.044  0.00  0.00    +0.000 A 
ATOM     12  C   UNL     1       3.569   3.186  19.818  0.00  0.00    +0.000 A 
BRANCH   7  14
ATOM     13  C   UNL     1       2.713   5.735  17.740  0.00  0.00    +0.000 C 
ATOM     14  O   UNL     1       2.876   4.318  17.834  0.00  0.00    +0.000 OA
ENDBRANCH   7  14
ENDBRANCH   1  12
BRANCH   4  15
ATOM     15  C   UNL     1       7.631   5.443  18.325  0.00  0.00    +0.000 C 
BRANCH  15  16
ATOM     16  C   UNL     1       7.241   6.252  17.085  0.00  0.00    +0.000 C 
BRANCH  16  17
ATOM     17  N   UNL     1       6.593   5.469  16.047  0.00  0.00    +0.000 N 
ATOM     18  C   UNL     1       7.211   4.331  15.396  0.00  0.00    +0.000 C 
ATOM     19  C   UNL     1       6.098   3.835  14.479  0.00  0.00    +0.000 C 
ATOM     20  N   UNL     1       5.294   5.011  14.283  0.00  0.00    +0.000 N 
ATOM     21  C   UNL     1       5.540   5.944  15.273  0.00  0.00    +0.000 C 
ATOM     22  O   UNL     1       4.954   7.006  15.414  0.00  0.00    +0.000 OA
ATOM     23  H   UNL     1       4.470   5.089  13.701  0.00  0.00    +0.000 HD
ENDBRANCH  16  17
ENDBRANCH  15  16
ENDBRANCH   4  15
TORSDOF 5
ENDMDL
MODEL 4
REMARK VINA RESULT:      -6.6      5.717      7.366
REMARK  Name = 
REMARK  6 active torsions:
REMARK  status: ('A' for Active; 'I' for Inactive)
REMARK    1  A    between atoms: C_1  and  O_2
REMARK    2  A    between atoms: O_2  and  C_3
REMARK    3  A    between atoms: C_8  and  N_9
REMARK    4  A    between atoms: N_12  and  C_13
REMARK    5  A    between atoms: C_13  and  C_14
REMARK    6  A    between atoms: C_14  and  N_15
REMARK                            x       y       z     vdW  Elec       q    Type
REMARK                         _______ _______ _______ _____ _____    ______ ____
ROOT
ATOM      1  N   UNL     1       4.306   2.742  18.457  0.00  0.00    +0.000 N 
ATOM      2  C   UNL     1       5.176   3.788  18.234  0.00  0.00    +0.000 C 
ATOM      3  O   UNL     1       5.338   4.751  18.979  0.00  0.00    +0.000 OA
ATOM      4  N   UNL     1       5.875   3.679  17.052  0.00  0.00    +0.000 N 
ATOM      5  H   UNL     1       4.553   1.837  18.076  0.00  0.00    +0.000 HD
ATOM      6  H   UNL     1       5.469   3.101  16.320  0.00  0.00    +0.000 HD
ENDROOT
BRANCH   1  12
ATOM      7  C   UNL     1       1.937   3.045  19.049  0.00  0.00    +0.000 A 
ATOM      8  C   UNL     1       0.940   3.121  20.036  0.00  0.00    +0.000 A 
ATOM      9  C   UNL     1       1.236   2.865  21.375  0.00  0.00    +0.000 A 
ATOM     10  C   UNL     1       2.535   2.551  21.746  0.00  0.00    +0.000 A 
ATOM     11  C   UNL     1       3.541   2.514  20.782  0.00  0.00    +0.000 A 
ATOM     12  C   UNL     1       3.265   2.753  19.426  0.00  0.00    +0.000 A 
BRANCH   7  14
ATOM     13  C   UNL     1       1.468   4.594  17.321  0.00  0.00    +0.000 C 
ATOM     14  O   UNL     1       1.679   3.234  17.709  0.00  0.00    +0.000 OA
ENDBRANCH   7  14
ENDBRANCH   1  12
BRANCH   4  15
ATOM     15  C   UNL     1       6.712   4.802  16.645  0.00  0.00    +0.000 C 
BRANCH  15  16
ATOM     16  C   UNL     1       6.189   5.606  15.452  0.00  0.00    +0.000 C 
BRANCH  16  17
ATOM     17  N   UNL     1       6.344   4.936  14.173  0.00  0.00    +0.000 N 
ATOM     18  C   UNL     1       5.601   3.752  13.791  0.00  0.00    +0.000 C 
ATOM     19  C   UNL     1       6.067   3.521  12.358  0.00  0.00    +0.000 C 
ATOM     20  N   UNL     1       7.352   4.165  12.329  0.00  0.00    +0.000 N 
ATOM     21  C   UNL     1       7.472   5.067  13.370  0.00  0.00    +0.000 C 
ATOM     22  O   UNL     1       8.417   5.817  13.559  0.00  0.00    +0.000 OA
ATOM     23  H   UNL     1       7.993   4.199  11.547  0.00  0.00    +0.000 HD
ENDBRANCH  16  17
ENDBRANCH  15  16
ENDBRANCH   4  15
TORSDOF 5
ENDMDL
MODEL 5
REMARK VINA RESULT:      -6.6      5.243      6.953
REMARK  Name = 
REMARK  6 active torsions:
REMARK  status: ('A' for Active; 'I' for Inactive)
REMARK    1  A    between atoms: C_1  and  O_2
REMARK    2  A    between atoms: O_2  and  C_3
REMARK    3  A    between atoms: C_8  and  N_9
REMARK    4  A    between atoms: N_12  and  C_13
REMARK    5  A    between atoms: C_13  and  C_14
REMARK    6  A    between atoms: C_14  and  N_15
REMARK                            x       y       z     vdW  Elec       q    Type
REMARK                         _______ _______ _______ _____ _____    ______ ____
ROOT
ATOM      1  N   UNL     1       4.850   3.096  19.220  0.00  0.00    +0.000 N 
ATOM      2  C   UNL     1       5.638   4.207  19.006  0.00  0.00    +0.000 C 
ATOM      3  O   UNL     1       5.487   5.301  19.543  0.00  0.00    +0.000 OA
ATOM      4  N   UNL     1       6.648   3.998  18.093  0.00  0.00    +0.000 N 
ATOM      5  H   UNL     1       5.284   2.187  19.118  0.00  0.00    +0.000 HD
ATOM      6  H   UNL     1       6.525   3.242  17.424  0.00  0.00    +0.000 HD
ENDROOT
BRANCH   1  12
ATOM      7  C   UNL     1       2.496   3.807  19.287  0.00  0.00    +0.000 A 
ATOM      8  C   UNL     1       1.275   3.875  19.980  0.00  0.00    +0.000 A 
ATOM      9  C   UNL     1       1.111   3.234  21.207  0.00  0.00    +0.000 A 
ATOM     10  C   UNL     1       2.169   2.534  21.766  0.00  0.00    +0.000 A 
ATOM     11  C   UNL     1       3.398   2.493  21.109  0.00  0.00    +0.000 A 
ATOM     12  C   UNL     1       3.583   3.119  19.866  0.00  0.00    +0.000 A 
BRANCH   7  14
ATOM     13  C   UNL     1       2.392   5.776  17.976  0.00  0.00    +0.000 C 
ATOM     14  O   UNL     1       2.685   4.377  18.047  0.00  0.00    +0.000 OA
ENDBRANCH   7  14
ENDBRANCH   1  12
BRANCH   4  15
ATOM     15  C   UNL     1       7.449   5.145  17.682  0.00  0.00    +0.000 C 
BRANCH  15  16
ATOM     16  C   UNL     1       6.909   5.918  16.476  0.00  0.00    +0.000 C 
BRANCH  16  17
ATOM     17  N   UNL     1       6.749   5.112  15.279  0.00  0.00    +0.000 N 
ATOM     18  C   UNL     1       7.497   5.332  14.056  0.00  0.00    +0.000 C 
ATOM     19  C   UNL     1       7.023   4.185  13.172  0.00  0.00    +0.000 C 
ATOM     20  N   UNL     1       5.734   3.864  13.722  0.00  0.00    +0.000 N 
ATOM     21  C   UNL     1       5.615   4.353  15.010  0.00  0.00    +0.000 C 
ATOM     22  O   UNL     1       4.667   4.172  15.758  0.00  0.00    +0.000 OA
ATOM     23  H   UNL     1       5.087   3.165  13.380  0.00  0.00    +0.000 HD
ENDBRANCH  16  17
ENDBRANCH  15  16
ENDBRANCH   4  15
TORSDOF 5
ENDMDL
MODEL 6
REMARK VINA RESULT:      -6.6      5.557      7.332
REMARK  Name = 
REMARK  6 active torsions:
REMARK  status: ('A' for Active; 'I' for Inactive)
REMARK    1  A    between atoms: C_1  and  O_2
REMARK    2  A    between atoms: O_2  and  C_3
REMARK    3  A    between atoms: C_8  and  N_9
REMARK    4  A    between atoms: N_12  and  C_13
REMARK    5  A    between atoms: C_13  and  C_14
REMARK    6  A    between atoms: C_14  and  N_15
REMARK                            x       y       z     vdW  Elec       q    Type
REMARK                         _______ _______ _______ _____ _____    ______ ____
ROOT
ATOM      1  N   UNL     1       4.684   4.734  19.199  0.00  0.00    +0.000 N 
ATOM      2  C   UNL     1       5.175   4.461  17.940  0.00  0.00    +0.000 C 
ATOM      3  O   UNL     1       4.526   3.992  17.009  0.00  0.00    +0.000 OA
ATOM      4  N   UNL     1       6.514   4.752  17.797  0.00  0.00    +0.000 N 
ATOM      5  H   UNL     1       5.113   5.491  19.716  0.00  0.00    +0.000 HD
ATOM      6  H   UNL     1       7.079   4.782  18.642  0.00  0.00    +0.000 HD
ENDROOT
BRANCH   1  12
ATOM      7  C   UNL     1       2.427   5.159  20.081  0.00  0.00    +0.000 A 
ATOM      8  C   UNL     1       1.237   4.663  20.641  0.00  0.00    +0.000 A 
ATOM      9  C   UNL     1       1.027   3.292  20.781  0.00  0.00    +0.000 A 
ATOM     10  C   UNL     1       2.012   2.400  20.382  0.00  0.00    +0.000 A 
ATOM     11  C   UNL     1       3.213   2.880  19.864  0.00  0.00    +0.000 A 
ATOM     12  C   UNL     1       3.442   4.256  19.700  0.00  0.00    +0.000 A 
BRANCH   7  14
ATOM     13  C   UNL     1       1.688   7.375  20.466  0.00  0.00    +0.000 C 
ATOM     14  O   UNL     1       2.653   6.502  19.872  0.00  0.00    +0.000 OA
ENDBRANCH   7  14
ENDBRANCH   1  12
BRANCH   4  15
ATOM     15  C   UNL     1       7.171   4.365  16.554  0.00  0.00    +0.000 C 
BRANCH  15  16
ATOM     16  C   UNL     1       7.115   5.407  15.435  0.00  0.00    +0.000 C 
BRANCH  16  17
ATOM     17  N   UNL     1       6.891   4.846  14.113  0.00  0.00    +0.000 N 
ATOM     18  C   UNL     1       6.089   3.664  13.868  0.00  0.00    +0.000 C 
ATOM     19  C   UNL     1       6.108   3.565  12.347  0.00  0.00    +0.000 C 
ATOM     20  N   UNL     1       7.314   4.265  11.994  0.00  0.00    +0.000 N 
ATOM     21  C   UNL     1       7.724   5.087  13.027  0.00  0.00    +0.000 C 
ATOM     22  O   UNL     1       8.669   5.860  12.991  0.00  0.00    +0.000 OA
ATOM     23  H   UNL     1       7.690   4.388  11.063  0.00  0.00    +0.000 HD
ENDBRANCH  16  17
ENDBRANCH  15  16
ENDBRANCH   4  15
TORSDOF 5
ENDMDL
MODEL 7
REMARK VINA RESULT:      -6.6      4.481      6.416
REMARK  Name = 
REMARK  6 active torsions:
REMARK  status: ('A' for Active; 'I' for Inactive)
REMARK    1  A    between atoms: C_1  and  O_2
REMARK    2  A    between atoms: O_2  and  C_3
REMARK    3  A    between atoms: C_8  and  N_9
REMARK    4  A    between atoms: N_12  and  C_13
REMARK    5  A    between atoms: C_13  and  C_14
REMARK    6  A    between atoms: C_14  and  N_15
REMARK                            x       y       z     vdW  Elec       q    Type
REMARK                         _______ _______ _______ _____ _____    ______ ____
ROOT
ATOM      1  N   UNL     1       2.929   4.341  17.066  0.00  0.00    +0.000 N 
ATOM      2  C   UNL     1       4.103   3.716  16.705  0.00  0.00    +0.000 C 
ATOM      3  O   UNL     1       4.644   2.803  17.324  0.00  0.00    +0.000 OA
ATOM      4  N   UNL     1       4.663   4.221  15.552  0.00  0.00    +0.000 N 
ATOM      5  H   UNL     1       2.351   4.718  16.325  0.00  0.00    +0.000 HD
ATOM      6  H   UNL     1       4.409   5.169  15.285  0.00  0.00    +0.000 HD
ENDROOT
BRANCH   1  12
ATOM      7  C   UNL     1       2.599   5.164  19.361  0.00  0.00    +0.000 A 
ATOM      8  C   UNL     1       2.038   4.989  20.638  0.00  0.00    +0.000 A 
ATOM      9  C   UNL     1       1.169   3.930  20.899  0.00  0.00    +0.000 A 
ATOM     10  C   UNL     1       0.867   3.022  19.895  0.00  0.00    +0.000 A 
ATOM     11  C   UNL     1       1.451   3.161  18.636  0.00  0.00    +0.000 A 
ATOM     12  C   UNL     1       2.316   4.228  18.345  0.00  0.00    +0.000 A 
BRANCH   7  14
ATOM     13  C   UNL     1       2.734   7.395  18.579  0.00  0.00    +0.000 C 
ATOM     14  O   UNL     1       3.417   6.227  19.043  0.00  0.00    +0.000 OA
ENDBRANCH   7  14
ENDBRANCH   1  12
BRANCH   4  15
ATOM     15  C   UNL     1       5.981   3.735  15.159  0.00  0.00    +0.000 C 
BRANCH  15  16
ATOM     16  C   UNL     1       7.123   4.738  15.332  0.00  0.00    +0.000 C 
BRANCH  16  17
ATOM     17  N   UNL     1       7.197   5.330  16.657  0.00  0.00    +0.000 N 
ATOM     18  C   UNL     1       7.685   4.624  17.826  0.00  0.00    +0.000 C 
ATOM     19  C   UNL     1       7.635   5.702  18.903  0.00  0.00    +0.000 C 
ATOM     20  N   UNL     1       6.636   6.609  18.406  0.00  0.00    +0.000 N 
ATOM     21  C   UNL     1       6.444   6.431  17.048  0.00  0.00    +0.000 C 
ATOM     22  O   UNL     1       5.717   7.106  16.336  0.00  0.00    +0.000 OA
ATOM     23  H   UNL     1       6.296   7.445  18.865  0.00  0.00    +0.000 HD
ENDBRANCH  16  17
ENDBRANCH  15  16
ENDBRANCH   4  15
TORSDOF 5
ENDMDL
MODEL 8
REMARK VINA RESULT:      -6.6      5.313      7.106
REMARK  Name = 
REMARK  6 active torsions:
REMARK  status: ('A' for Active; 'I' for Inactive)
REMARK    1  A    between atoms: C_1  and  O_2
REMARK    2  A    between atoms: O_2  and  C_3
REMARK    3  A    between atoms: C_8  and  N_9
REMARK    4  A    between atoms: N_12  and  C_13
REMARK    5  A    between atoms: C_13  and  C_14
REMARK    6  A    between atoms: C_14  and  N_15
REMARK                            x       y       z     vdW  Elec       q    Type
REMARK                         _______ _______ _______ _____ _____    ______ ____
ROOT
ATOM      1  N   UNL     1       3.184   4.523  17.486  0.00  0.00    +0.000 N 
ATOM      2  C   UNL     1       4.522   4.852  17.451  0.00  0.00    +0.000 C 
ATOM      3  O   UNL     1       5.343   4.586  18.325  0.00  0.00    +0.000 OA
ATOM      4  N   UNL     1       4.889   5.548  16.320  0.00  0.00    +0.000 N 
ATOM      5  H   UNL     1       2.716   4.368  16.601  0.00  0.00    +0.000 HD
ATOM      6  H   UNL     1       4.158   6.053  15.824  0.00  0.00    +0.000 HD
ENDROOT
BRANCH   1  12
ATOM      7  C   UNL     1       2.216   2.714  18.843  0.00  0.00    +0.000 A 
ATOM      8  C   UNL     1       1.468   2.313  19.963  0.00  0.00    +0.000 A 
ATOM      9  C   UNL     1       1.034   3.245  20.906  0.00  0.00    +0.000 A 
ATOM     10  C   UNL     1       1.326   4.589  20.731  0.00  0.00    +0.000 A 
ATOM     11  C   UNL     1       2.032   5.004  19.603  0.00  0.00    +0.000 A 
ATOM     12  C   UNL     1       2.491   4.083  18.648  0.00  0.00    +0.000 A 
BRANCH   7  14
ATOM     13  C   UNL     1       3.942   1.191  18.287  0.00  0.00    +0.000 C 
ATOM     14  O   UNL     1       2.713   1.822  17.918  0.00  0.00    +0.000 OA
ENDBRANCH   7  14
ENDBRANCH   1  12
BRANCH   4  15
ATOM     15  C   UNL     1       6.247   6.075  16.250  0.00  0.00    +0.000 C 
BRANCH  15  16
ATOM     16  C   UNL     1       7.281   5.131  15.633  0.00  0.00    +0.000 C 
BRANCH  16  17
ATOM     17  N   UNL     1       6.980   4.731  14.269  0.00  0.00    +0.000 N 
ATOM     18  C   UNL     1       6.171   3.577  13.931  0.00  0.00    +0.000 C 
ATOM     19  C   UNL     1       6.097   3.664  12.411  0.00  0.00    +0.000 C 
ATOM     20  N   UNL     1       7.275   4.417  12.073  0.00  0.00    +0.000 N 
ATOM     21  C   UNL     1       7.743   5.113  13.172  0.00  0.00    +0.000 C 
ATOM     22  O   UNL     1       8.680   5.897  13.174  0.00  0.00    +0.000 OA
ATOM     23  H   UNL     1       7.593   4.657  11.143  0.00  0.00    +0.000 HD
ENDBRANCH  16  17
ENDBRANCH  15  16
ENDBRANCH   4  15
TORSDOF 5
ENDMDL
MODEL 9
REMARK VINA RESULT:      -6.5      1.336      1.524
REMARK  Name = 
REMARK  6 active torsions:
REMARK  status: ('A' for Active; 'I' for Inactive)
REMARK    1  A    between atoms: C_1  and  O_2
REMARK    2  A    between atoms: O_2  and  C_3
REMARK    3  A    between atoms: C_8  and  N_9
REMARK    4  A    between atoms: N_12  and  C_13
REMARK    5  A    between atoms: C_13  and  C_14
REMARK    6  A    between atoms: C_14  and  N_15
REMARK                            x       y       z     vdW  Elec       q    Type
REMARK                         _______ _______ _______ _____ _____    ______ ____
ROOT
ATOM      1  N   UNL     1       6.861   7.632  16.934  0.00  0.00    +0.000 N 
ATOM      2  C   UNL     1       7.813   7.882  17.899  0.00  0.00    +0.000 C 
ATOM      3  O   UNL     1       8.247   7.059  18.701  0.00  0.00    +0.000 OA
ATOM      4  N   UNL     1       8.255   9.187  17.912  0.00  0.00    +0.000 N 
ATOM      5  H   UNL     1       6.901   8.179  16.083  0.00  0.00    +0.000 HD
ATOM      6  H   UNL     1       7.641   9.892  17.512  0.00  0.00    +0.000 HD
ENDROOT
BRANCH   1  12
ATOM      7  C   UNL     1       6.358   5.386  16.067  0.00  0.00    +0.000 A 
ATOM      8  C   UNL     1       5.485   4.287  15.996  0.00  0.00    +0.000 A 
ATOM      9  C   UNL     1       4.327   4.240  16.772  0.00  0.00    +0.000 A 
ATOM     10  C   UNL     1       4.018   5.299  17.611  0.00  0.00    +0.000 A 
ATOM     11  C   UNL     1       4.854   6.413  17.659  0.00  0.00    +0.000 A 
ATOM     12  C   UNL     1       6.033   6.477  16.899  0.00  0.00    +0.000 A 
BRANCH   7  14
ATOM     13  C   UNL     1       7.438   5.090  13.980  0.00  0.00    +0.000 C 
ATOM     14  O   UNL     1       7.540   5.448  15.361  0.00  0.00    +0.000 OA
ENDBRANCH   7  14
ENDBRANCH   1  12
BRANCH   4  15
ATOM     15  C   UNL     1       9.151   9.596  18.987  0.00  0.00    +0.000 C 
BRANCH  15  16
ATOM     16  C   UNL     1       9.048  11.067  19.397  0.00  0.00    +0.000 C 
BRANCH  16  17
ATOM     17  N   UNL     1      10.035  11.928  18.769  0.00  0.00    +0.000 N 
ATOM     18  C   UNL     1       9.948  12.383  17.395  0.00  0.00    +0.000 C 
ATOM     19  C   UNL     1      11.156  13.305  17.279  0.00  0.00    +0.000 C 
ATOM     20  N   UNL     1      12.037  12.813  18.303  0.00  0.00    +0.000 N 
ATOM     21  C   UNL     1      11.340  12.061  19.230  0.00  0.00    +0.000 C 
ATOM     22  O   UNL     1      11.804  11.579  20.252  0.00  0.00    +0.000 OA
ATOM     23  H   UNL     1      12.966  13.154  18.516  0.00  0.00    +0.000 HD
ENDBRANCH  16  17
ENDBRANCH  15  16
ENDBRANCH   4  15
TORSDOF 5
ENDMDL
