MODEL 1
REMARK VINA RESULT:      -7.9      0.000      0.000
REMARK  Name = 
REMARK  2 active torsions:
REMARK  status: ('A' for Active; 'I' for Inactive)
REMARK    1  A    between atoms: C_11  and  C_12
REMARK    2  A    between atoms: N_19  and  C_20
REMARK                            x       y       z     vdW  Elec       q    Type
REMARK                         _______ _______ _______ _____ _____    ______ ____
ROOT
ATOM      1  O   UNL     1       4.551   2.585  17.999  0.00  0.00    +0.000 OA
ATOM      2  C   UNL     1       4.052   3.615  18.488  0.00  0.00    +0.000 C 
ATOM      3  C   UNL     1       3.235   3.324  19.737  0.00  0.00    +0.000 A 
ATOM      4  C   UNL     1       3.554   2.108  20.395  0.00  0.00    +0.000 A 
ATOM      5  C   UNL     1       2.895   1.680  21.553  0.00  0.00    +0.000 A 
ATOM      6  C   UNL     1       1.901   2.464  22.115  0.00  0.00    +0.000 A 
ATOM      7  C   UNL     1       1.535   3.642  21.477  0.00  0.00    +0.000 A 
ATOM      8  C   UNL     1       2.156   4.043  20.274  0.00  0.00    +0.000 A 
ATOM      9  C   UNL     1       1.649   5.287  19.732  0.00  0.00    +0.000 C 
ATOM     10  C   UNL     1       1.694   5.496  18.408  0.00  0.00    +0.000 C 
ATOM     11  C   UNL     1       2.762   6.520  18.332  0.00  0.00    +0.000 C 
ATOM     12  N   UNL     1       4.017   6.192  18.209  0.00  0.00    +0.000 NA
ATOM     13  N   UNL     1       4.349   4.881  17.878  0.00  0.00    +0.000 N 
ENDROOT
BRANCH  13  14
ATOM     14  C   UNL     1       5.291   4.870  16.797  0.00  0.00    +0.000 A 
ATOM     15  C   UNL     1       4.841   4.572  15.497  0.00  0.00    +0.000 A 
ATOM     16  C   UNL     1       5.728   4.613  14.416  0.00  0.00    +0.000 A 
ATOM     17  C   UNL     1       7.070   4.929  14.623  0.00  0.00    +0.000 A 
ATOM     18  C   UNL     1       7.534   5.192  15.910  0.00  0.00    +0.000 A 
ATOM     19  C   UNL     1       6.652   5.159  16.996  0.00  0.00    +0.000 A 
ATOM     20 CL   UNL     1       7.329   5.363  18.577  0.00  0.00    +0.000 Cl
ENDBRANCH  13  14
BRANCH  11  21
ATOM     21  C   UNL     1       2.317   7.923  18.633  0.00  0.00    +0.000 A 
ATOM     22  C   UNL     1       1.801   8.223  19.895  0.00  0.00    +0.000 A 
ATOM     23  C   UNL     1       1.069   9.399  20.079  0.00  0.00    +0.000 A 
ATOM     24  C   UNL     1       0.862  10.276  19.015  0.00  0.00    +0.000 A 
ATOM     25  C   UNL     1       1.444  10.023  17.776  0.00  0.00    +0.000 A 
ATOM     26  C   UNL     1       2.191   8.865  17.590  0.00  0.00    +0.000 A 
ENDBRANCH  11  21
TORSDOF 2
ENDMDL
MODEL 2
REMARK VINA RESULT:      -7.4      5.204      9.200
REMARK  Name = 
REMARK  2 active torsions:
REMARK  status: ('A' for Active; 'I' for Inactive)
REMARK    1  A    between atoms: C_11  and  C_12
REMARK    2  A    between atoms: N_19  and  C_20
REMARK                            x       y       z     vdW  Elec       q    Type
REMARK                         _______ _______ _______ _____ _____    ______ ____
ROOT
ATOM      1  O   UNL     1       2.446  12.272  19.481  0.00  0.00    +0.000 OA
ATOM      2  C   UNL     1       1.271  12.483  19.132  0.00  0.00    +0.000 C 
ATOM      3  C   UNL     1       0.982  13.963  18.940  0.00  0.00    +0.000 A 
ATOM      4  C   UNL     1       2.124  14.773  18.706  0.00  0.00    +0.000 A 
ATOM      5  C   UNL     1       2.042  16.157  18.517  0.00  0.00    +0.000 A 
ATOM      6  C   UNL     1       0.809  16.788  18.532  0.00  0.00    +0.000 A 
ATOM      7  C   UNL     1      -0.326  16.033  18.796  0.00  0.00    +0.000 A 
ATOM      8  C   UNL     1      -0.238  14.647  19.050  0.00  0.00    +0.000 A 
ATOM      9  C   UNL     1      -1.512  14.013  19.321  0.00  0.00    +0.000 C 
ATOM     10  C   UNL     1      -1.553  12.923  20.102  0.00  0.00    +0.000 C 
ATOM     11  C   UNL     1      -1.854  11.880  19.095  0.00  0.00    +0.000 C 
ATOM     12  N   UNL     1      -0.908  11.249  18.459  0.00  0.00    +0.000 NA
ATOM     13  N   UNL     1       0.405  11.358  18.909  0.00  0.00    +0.000 N 
ENDROOT
BRANCH  13  14
ATOM     14  C   UNL     1       1.001  10.058  19.010  0.00  0.00    +0.000 A 
ATOM     15  C   UNL     1       1.635   9.503  17.882  0.00  0.00    +0.000 A 
ATOM     16  C   UNL     1       2.276   8.263  17.971  0.00  0.00    +0.000 A 
ATOM     17  C   UNL     1       2.272   7.557  19.174  0.00  0.00    +0.000 A 
ATOM     18  C   UNL     1       1.618   8.080  20.286  0.00  0.00    +0.000 A 
ATOM     19  C   UNL     1       0.980   9.324  20.209  0.00  0.00    +0.000 A 
ATOM     20 CL   UNL     1       0.076   9.842  21.592  0.00  0.00    +0.000 Cl
ENDBRANCH  13  14
BRANCH  11  21
ATOM     21  C   UNL     1      -3.302  11.771  18.709  0.00  0.00    +0.000 A 
ATOM     22  C   UNL     1      -3.636  11.433  17.396  0.00  0.00    +0.000 A 
ATOM     23  C   UNL     1      -4.934  11.668  16.932  0.00  0.00    +0.000 A 
ATOM     24  C   UNL     1      -5.894  12.227  17.775  0.00  0.00    +0.000 A 
ATOM     25  C   UNL     1      -5.588  12.489  19.108  0.00  0.00    +0.000 A 
ATOM     26  C   UNL     1      -4.305  12.238  19.582  0.00  0.00    +0.000 A 
ENDBRANCH  11  21
TORSDOF 2
ENDMDL
MODEL 3
REMARK VINA RESULT:      -7.3      5.314      9.325
REMARK  Name = 
REMARK  2 active torsions:
REMARK  status: ('A' for Active; 'I' for Inactive)
REMARK    1  A    between atoms: C_11  and  C_12
REMARK    2  A    between atoms: N_19  and  C_20
REMARK                            x       y       z     vdW  Elec       q    Type
REMARK                         _______ _______ _______ _____ _____    ______ ____
ROOT
ATOM      1  O   UNL     1       2.399  12.427  19.452  0.00  0.00    +0.000 OA
ATOM      2  C   UNL     1       1.211  12.662  19.165  0.00  0.00    +0.000 C 
ATOM      3  C   UNL     1       0.949  14.146  18.963  0.00  0.00    +0.000 A 
ATOM      4  C   UNL     1       2.094  14.924  18.654  0.00  0.00    +0.000 A 
ATOM      5  C   UNL     1       2.036  16.306  18.446  0.00  0.00    +0.000 A 
ATOM      6  C   UNL     1       0.822  16.968  18.518  0.00  0.00    +0.000 A 
ATOM      7  C   UNL     1      -0.315  16.246  18.857  0.00  0.00    +0.000 A 
ATOM      8  C   UNL     1      -0.247  14.862  19.129  0.00  0.00    +0.000 A 
ATOM      9  C   UNL     1      -1.519  14.264  19.480  0.00  0.00    +0.000 C 
ATOM     10  C   UNL     1      -1.542  13.188  20.281  0.00  0.00    +0.000 C 
ATOM     11  C   UNL     1      -1.924  12.137  19.310  0.00  0.00    +0.000 C 
ATOM     12  N   UNL     1      -1.030  11.473  18.633  0.00  0.00    +0.000 NA
ATOM     13  N   UNL     1       0.308  11.556  19.009  0.00  0.00    +0.000 N 
ENDROOT
BRANCH  13  14
ATOM     14  C   UNL     1       0.877  10.243  19.098  0.00  0.00    +0.000 A 
ATOM     15  C   UNL     1       1.436   9.657  17.947  0.00  0.00    +0.000 A 
ATOM     16  C   UNL     1       2.051   8.402  18.021  0.00  0.00    +0.000 A 
ATOM     17  C   UNL     1       2.095   7.714  19.234  0.00  0.00    +0.000 A 
ATOM     18  C   UNL     1       1.514   8.269  20.371  0.00  0.00    +0.000 A 
ATOM     19  C   UNL     1       0.903   9.527  20.308  0.00  0.00    +0.000 A 
ATOM     20 CL   UNL     1       0.087  10.088  21.729  0.00  0.00    +0.000 Cl
ENDBRANCH  13  14
BRANCH  11  21
ATOM     21  C   UNL     1      -3.393  12.058  19.005  0.00  0.00    +0.000 A 
ATOM     22  C   UNL     1      -4.317  12.405  19.994  0.00  0.00    +0.000 A 
ATOM     23  C   UNL     1      -5.651  12.010  19.860  0.00  0.00    +0.000 A 
ATOM     24  C   UNL     1      -6.063  11.284  18.743  0.00  0.00    +0.000 A 
ATOM     25  C   UNL     1      -5.165  11.007  17.717  0.00  0.00    +0.000 A 
ATOM     26  C   UNL     1      -3.840  11.414  17.833  0.00  0.00    +0.000 A 
ENDBRANCH  11  21
TORSDOF 2
ENDMDL
MODEL 4
REMARK VINA RESULT:      -7.1      9.356     10.900
REMARK  Name = 
REMARK  2 active torsions:
REMARK  status: ('A' for Active; 'I' for Inactive)
REMARK    1  A    between atoms: C_11  and  C_12
REMARK    2  A    between atoms: N_19  and  C_20
REMARK                            x       y       z     vdW  Elec       q    Type
REMARK                         _______ _______ _______ _____ _____    ______ ____
ROOT
ATOM      1  O   UNL     1       7.653  15.222  17.366  0.00  0.00    +0.000 OA
ATOM      2  C   UNL     1       7.430  14.735  18.489  0.00  0.00    +0.000 C 
ATOM      3  C   UNL     1       5.974  14.872  18.900  0.00  0.00    +0.000 A 
ATOM      4  C   UNL     1       5.061  15.056  17.828  0.00  0.00    +0.000 A 
ATOM      5  C   UNL     1       3.684  15.209  18.026  0.00  0.00    +0.000 A 
ATOM      6  C   UNL     1       3.158  15.163  19.307  0.00  0.00    +0.000 A 
ATOM      7  C   UNL     1       4.025  15.024  20.383  0.00  0.00    +0.000 A 
ATOM      8  C   UNL     1       5.420  14.933  20.188  0.00  0.00    +0.000 A 
ATOM      9  C   UNL     1       6.182  14.806  21.413  0.00  0.00    +0.000 C 
ATOM     10  C   UNL     1       7.440  15.268  21.459  0.00  0.00    +0.000 C 
ATOM     11  C   UNL     1       8.196  13.995  21.488  0.00  0.00    +0.000 C 
ATOM     12  N   UNL     1       8.574  13.398  20.393  0.00  0.00    +0.000 NA
ATOM     13  N   UNL     1       8.507  14.087  19.184  0.00  0.00    +0.000 N 
ENDROOT
BRANCH  13  14
ATOM     14  C   UNL     1       9.748  13.962  18.477  0.00  0.00    +0.000 A 
ATOM     15  C   UNL     1      10.047  12.751  17.823  0.00  0.00    +0.000 A 
ATOM     16  C   UNL     1      11.222  12.624  17.075  0.00  0.00    +0.000 A 
ATOM     17  C   UNL     1      12.118  13.690  16.991  0.00  0.00    +0.000 A 
ATOM     18  C   UNL     1      11.849  14.880  17.663  0.00  0.00    +0.000 A 
ATOM     19  C   UNL     1      10.672  15.019  18.407  0.00  0.00    +0.000 A 
ATOM     20 CL   UNL     1      10.476  16.477  19.322  0.00  0.00    +0.000 Cl
ENDBRANCH  13  14
BRANCH  11  21
ATOM     21  C   UNL     1       8.288  13.343  22.839  0.00  0.00    +0.000 A 
ATOM     22  C   UNL     1       7.891  12.012  22.986  0.00  0.00    +0.000 A 
ATOM     23  C   UNL     1       7.636  11.506  24.263  0.00  0.00    +0.000 A 
ATOM     24  C   UNL     1       7.786  12.318  25.387  0.00  0.00    +0.000 A 
ATOM     25  C   UNL     1       8.261  13.620  25.252  0.00  0.00    +0.000 A 
ATOM     26  C   UNL     1       8.537  14.124  23.986  0.00  0.00    +0.000 A 
ENDBRANCH  11  21
TORSDOF 2
ENDMDL
MODEL 5
REMARK VINA RESULT:      -7.1      9.251     10.797
REMARK  Name = 
REMARK  2 active torsions:
REMARK  status: ('A' for Active; 'I' for Inactive)
REMARK    1  A    between atoms: C_11  and  C_12
REMARK    2  A    between atoms: N_19  and  C_20
REMARK                            x       y       z     vdW  Elec       q    Type
REMARK                         _______ _______ _______ _____ _____    ______ ____
ROOT
ATOM      1  O   UNL     1       7.671  15.108  17.327  0.00  0.00    +0.000 OA
ATOM      2  C   UNL     1       7.464  14.677  18.476  0.00  0.00    +0.000 C 
ATOM      3  C   UNL     1       6.011  14.823  18.895  0.00  0.00    +0.000 A 
ATOM      4  C   UNL     1       5.085  14.945  17.826  0.00  0.00    +0.000 A 
ATOM      5  C   UNL     1       3.709  15.097  18.031  0.00  0.00    +0.000 A 
ATOM      6  C   UNL     1       3.197  15.112  19.318  0.00  0.00    +0.000 A 
ATOM      7  C   UNL     1       4.077  15.035  20.390  0.00  0.00    +0.000 A 
ATOM      8  C   UNL     1       5.470  14.945  20.185  0.00  0.00    +0.000 A 
ATOM      9  C   UNL     1       6.246  14.887  21.407  0.00  0.00    +0.000 C 
ATOM     10  C   UNL     1       7.501  15.361  21.414  0.00  0.00    +0.000 C 
ATOM     11  C   UNL     1       8.268  14.097  21.500  0.00  0.00    +0.000 C 
ATOM     12  N   UNL     1       8.640  13.449  20.433  0.00  0.00    +0.000 NA
ATOM     13  N   UNL     1       8.554  14.074  19.192  0.00  0.00    +0.000 N 
ENDROOT
BRANCH  13  14
ATOM     14  C   UNL     1       9.788  13.923  18.478  0.00  0.00    +0.000 A 
ATOM     15  C   UNL     1      10.656  15.026  18.366  0.00  0.00    +0.000 A 
ATOM     16  C   UNL     1      11.893  14.890  17.727  0.00  0.00    +0.000 A 
ATOM     17  C   UNL     1      12.266  13.663  17.177  0.00  0.00    +0.000 A 
ATOM     18  C   UNL     1      11.400  12.575  17.251  0.00  0.00    +0.000 A 
ATOM     19  C   UNL     1      10.163  12.701  17.894  0.00  0.00    +0.000 A 
ATOM     20 CL   UNL     1       9.089  11.344  17.827  0.00  0.00    +0.000 Cl
ENDBRANCH  13  14
BRANCH  11  21
ATOM     21  C   UNL     1       8.380  13.516  22.881  0.00  0.00    +0.000 A 
ATOM     22  C   UNL     1       8.045  12.176  23.090  0.00  0.00    +0.000 A 
ATOM     23  C   UNL     1       7.804  11.720  24.389  0.00  0.00    +0.000 A 
ATOM     24  C   UNL     1       7.907  12.591  25.473  0.00  0.00    +0.000 A 
ATOM     25  C   UNL     1       8.321  13.906  25.279  0.00  0.00    +0.000 A 
ATOM     26  C   UNL     1       8.583  14.362  23.991  0.00  0.00    +0.000 A 
ENDBRANCH  11  21
TORSDOF 2
ENDMDL
MODEL 6
REMARK VINA RESULT:      -7.0      8.395     12.720
REMARK  Name = 
REMARK  2 active torsions:
REMARK  status: ('A' for Active; 'I' for Inactive)
REMARK    1  A    between atoms: C_11  and  C_12
REMARK    2  A    between atoms: N_19  and  C_20
REMARK                            x       y       z     vdW  Elec       q    Type
REMARK                         _______ _______ _______ _____ _____    ______ ____
ROOT
ATOM      1  O   UNL     1      -5.227  15.378  22.421  0.00  0.00    +0.000 OA
ATOM      2  C   UNL     1      -4.233  14.687  22.706  0.00  0.00    +0.000 C 
ATOM      3  C   UNL     1      -3.311  15.380  23.696  0.00  0.00    +0.000 A 
ATOM      4  C   UNL     1      -3.920  16.400  24.472  0.00  0.00    +0.000 A 
ATOM      5  C   UNL     1      -3.217  17.147  25.424  0.00  0.00    +0.000 A 
ATOM      6  C   UNL     1      -1.876  16.889  25.656  0.00  0.00    +0.000 A 
ATOM      7  C   UNL     1      -1.237  15.925  24.888  0.00  0.00    +0.000 A 
ATOM      8  C   UNL     1      -1.930  15.215  23.883  0.00  0.00    +0.000 A 
ATOM      9  C   UNL     1      -1.115  14.256  23.165  0.00  0.00    +0.000 C 
ATOM     10  C   UNL     1      -1.421  13.950  21.896  0.00  0.00    +0.000 C 
ATOM     11  C   UNL     1      -1.940  12.574  22.067  0.00  0.00    +0.000 C 
ATOM     12  N   UNL     1      -3.200  12.342  22.307  0.00  0.00    +0.000 NA
ATOM     13  N   UNL     1      -4.125  13.370  22.141  0.00  0.00    +0.000 N 
ENDROOT
BRANCH  13  14
ATOM     14  C   UNL     1      -5.236  12.911  21.361  0.00  0.00    +0.000 A 
ATOM     15  C   UNL     1      -5.141  12.922  19.956  0.00  0.00    +0.000 A 
ATOM     16  C   UNL     1      -6.187  12.423  19.173  0.00  0.00    +0.000 A 
ATOM     17  C   UNL     1      -7.343  11.931  19.780  0.00  0.00    +0.000 A 
ATOM     18  C   UNL     1      -7.462  11.947  21.167  0.00  0.00    +0.000 A 
ATOM     19  C   UNL     1      -6.417  12.438  21.959  0.00  0.00    +0.000 A 
ATOM     20 CL   UNL     1      -6.696  12.550  23.665  0.00  0.00    +0.000 Cl
ENDBRANCH  13  14
BRANCH  11  21
ATOM     21  C   UNL     1      -0.887  11.507  22.168  0.00  0.00    +0.000 A 
ATOM     22  C   UNL     1       0.030  11.349  21.127  0.00  0.00    +0.000 A 
ATOM     23  C   UNL     1       0.771  10.168  21.035  0.00  0.00    +0.000 A 
ATOM     24  C   UNL     1       0.608   9.156  21.980  0.00  0.00    +0.000 A 
ATOM     25  C   UNL     1      -0.244   9.343  23.066  0.00  0.00    +0.000 A 
ATOM     26  C   UNL     1      -0.970  10.524  23.175  0.00  0.00    +0.000 A 
ENDBRANCH  11  21
TORSDOF 2
ENDMDL
MODEL 7
REMARK VINA RESULT:      -7.0      7.550     11.611
REMARK  Name = 
REMARK  2 active torsions:
REMARK  status: ('A' for Active; 'I' for Inactive)
REMARK    1  A    between atoms: C_11  and  C_12
REMARK    2  A    between atoms: N_19  and  C_20
REMARK                            x       y       z     vdW  Elec       q    Type
REMARK                         _______ _______ _______ _____ _____    ______ ____
ROOT
ATOM      1  O   UNL     1       0.510  13.629  22.242  0.00  0.00    +0.000 OA
ATOM      2  C   UNL     1      -0.717  13.826  22.173  0.00  0.00    +0.000 C 
ATOM      3  C   UNL     1      -1.064  15.306  22.162  0.00  0.00    +0.000 A 
ATOM      4  C   UNL     1      -0.014  16.168  21.751  0.00  0.00    +0.000 A 
ATOM      5  C   UNL     1      -0.156  17.558  21.691  0.00  0.00    +0.000 A 
ATOM      6  C   UNL     1      -1.366  18.146  22.020  0.00  0.00    +0.000 A 
ATOM      7  C   UNL     1      -2.405  17.338  22.464  0.00  0.00    +0.000 A 
ATOM      8  C   UNL     1      -2.242  15.941  22.585  0.00  0.00    +0.000 A 
ATOM      9  C   UNL     1      -3.415  15.248  23.075  0.00  0.00    +0.000 C 
ATOM     10  C   UNL     1      -3.268  14.104  23.760  0.00  0.00    +0.000 C 
ATOM     11  C   UNL     1      -3.764  13.126  22.765  0.00  0.00    +0.000 C 
ATOM     12  N   UNL     1      -2.969  12.574  21.893  0.00  0.00    +0.000 NA
ATOM     13  N   UNL     1      -1.591  12.693  22.056  0.00  0.00    +0.000 N 
ENDROOT
BRANCH  13  14
ATOM     14  C   UNL     1      -0.967  11.409  21.925  0.00  0.00    +0.000 A 
ATOM     15  C   UNL     1      -0.779  10.617  23.074  0.00  0.00    +0.000 A 
ATOM     16  C   UNL     1      -0.228   9.335  22.966  0.00  0.00    +0.000 A 
ATOM     17  C   UNL     1       0.159   8.842  21.720  0.00  0.00    +0.000 A 
ATOM     18  C   UNL     1       0.010   9.630  20.582  0.00  0.00    +0.000 A 
ATOM     19  C   UNL     1      -0.547  10.911  20.680  0.00  0.00    +0.000 A 
ATOM     20 CL   UNL     1      -0.574  11.879  19.244  0.00  0.00    +0.000 Cl
ENDBRANCH  13  14
BRANCH  11  21
ATOM     21  C   UNL     1      -5.259  12.998  22.693  0.00  0.00    +0.000 A 
ATOM     22  C   UNL     1      -6.002  12.969  23.875  0.00  0.00    +0.000 A 
ATOM     23  C   UNL     1      -7.320  12.504  23.850  0.00  0.00    +0.000 A 
ATOM     24  C   UNL     1      -7.897  12.081  22.653  0.00  0.00    +0.000 A 
ATOM     25  C   UNL     1      -7.189  12.186  21.459  0.00  0.00    +0.000 A 
ATOM     26  C   UNL     1      -5.884  12.667  21.473  0.00  0.00    +0.000 A 
ENDBRANCH  11  21
TORSDOF 2
ENDMDL
MODEL 8
REMARK VINA RESULT:      -6.9      8.405     10.198
REMARK  Name = 
REMARK  2 active torsions:
REMARK  status: ('A' for Active; 'I' for Inactive)
REMARK    1  A    between atoms: C_11  and  C_12
REMARK    2  A    between atoms: N_19  and  C_20
REMARK                            x       y       z     vdW  Elec       q    Type
REMARK                         _______ _______ _______ _____ _____    ______ ____
ROOT
ATOM      1  O   UNL     1       1.131  15.071  22.038  0.00  0.00    +0.000 OA
ATOM      2  C   UNL     1       0.204  14.404  21.544  0.00  0.00    +0.000 C 
ATOM      3  C   UNL     1      -0.927  14.166  22.531  0.00  0.00    +0.000 A 
ATOM      4  C   UNL     1      -0.989  15.088  23.609  0.00  0.00    +0.000 A 
ATOM      5  C   UNL     1      -1.959  15.012  24.614  0.00  0.00    +0.000 A 
ATOM      6  C   UNL     1      -2.925  14.020  24.572  0.00  0.00    +0.000 A 
ATOM      7  C   UNL     1      -2.873  13.077  23.554  0.00  0.00    +0.000 A 
ATOM      8  C   UNL     1      -1.857  13.115  22.575  0.00  0.00    +0.000 A 
ATOM      9  C   UNL     1      -1.938  12.053  21.594  0.00  0.00    +0.000 C 
ATOM     10  C   UNL     1      -0.817  11.618  20.999  0.00  0.00    +0.000 C 
ATOM     11  C   UNL     1      -1.006  12.163  19.635  0.00  0.00    +0.000 C 
ATOM     12  N   UNL     1      -0.582  13.351  19.309  0.00  0.00    +0.000 NA
ATOM     13  N   UNL     1       0.291  14.021  20.162  0.00  0.00    +0.000 N 
ENDROOT
BRANCH  13  14
ATOM     14  C   UNL     1       1.409  14.530  19.423  0.00  0.00    +0.000 A 
ATOM     15  C   UNL     1       2.573  13.746  19.312  0.00  0.00    +0.000 A 
ATOM     16  C   UNL     1       3.655  14.192  18.546  0.00  0.00    +0.000 A 
ATOM     17  C   UNL     1       3.596  15.429  17.904  0.00  0.00    +0.000 A 
ATOM     18  C   UNL     1       2.463  16.228  18.035  0.00  0.00    +0.000 A 
ATOM     19  C   UNL     1       1.373  15.786  18.794  0.00  0.00    +0.000 A 
ATOM     20 CL   UNL     1       0.060  16.893  19.020  0.00  0.00    +0.000 Cl
ENDBRANCH  13  14
BRANCH  11  21
ATOM     21  C   UNL     1      -1.904  11.351  18.745  0.00  0.00    +0.000 A 
ATOM     22  C   UNL     1      -1.355  10.333  17.964  0.00  0.00    +0.000 A 
ATOM     23  C   UNL     1      -2.087   9.815  16.892  0.00  0.00    +0.000 A 
ATOM     24  C   UNL     1      -3.363  10.302  16.608  0.00  0.00    +0.000 A 
ATOM     25  C   UNL     1      -3.947  11.259  17.434  0.00  0.00    +0.000 A 
ATOM     26  C   UNL     1      -3.232  11.764  18.515  0.00  0.00    +0.000 A 
ENDBRANCH  11  21
TORSDOF 2
ENDMDL
MODEL 9
REMARK VINA RESULT:      -6.9      9.291     10.863
REMARK  Name = 
REMARK  2 active torsions:
REMARK  status: ('A' for Active; 'I' for Inactive)
REMARK    1  A    between atoms: C_11  and  C_12
REMARK    2  A    between atoms: N_19  and  C_20
REMARK                            x       y       z     vdW  Elec       q    Type
REMARK                         _______ _______ _______ _____ _____    ______ ____
ROOT
ATOM      1  O   UNL     1       7.614  15.243  17.426  0.00  0.00    +0.000 OA
ATOM      2  C   UNL     1       7.286  14.821  18.550  0.00  0.00    +0.000 C 
ATOM      3  C   UNL     1       5.802  15.004  18.826  0.00  0.00    +0.000 A 
ATOM      4  C   UNL     1       4.988  15.145  17.671  0.00  0.00    +0.000 A 
ATOM      5  C   UNL     1       3.604  15.332  17.741  0.00  0.00    +0.000 A 
ATOM      6  C   UNL     1       2.969  15.364  18.972  0.00  0.00    +0.000 A 
ATOM      7  C   UNL     1       3.738  15.268  20.124  0.00  0.00    +0.000 A 
ATOM      8  C   UNL     1       5.142  15.143  20.057  0.00  0.00    +0.000 A 
ATOM      9  C   UNL     1       5.794  15.069  21.348  0.00  0.00    +0.000 C 
ATOM     10  C   UNL     1       7.053  15.513  21.478  0.00  0.00    +0.000 C 
ATOM     11  C   UNL     1       7.776  14.230  21.639  0.00  0.00    +0.000 C 
ATOM     12  N   UNL     1       8.234  13.570  20.613  0.00  0.00    +0.000 NA
ATOM     13  N   UNL     1       8.285  14.193  19.369  0.00  0.00    +0.000 N 
ENDROOT
BRANCH  13  14
ATOM     14  C   UNL     1       9.579  14.009  18.779  0.00  0.00    +0.000 A 
ATOM     15  C   UNL     1      10.533  15.040  18.881  0.00  0.00    +0.000 A 
ATOM     16  C   UNL     1      11.822  14.863  18.367  0.00  0.00    +0.000 A 
ATOM     17  C   UNL     1      12.163  13.670  17.730  0.00  0.00    +0.000 A 
ATOM     18  C   UNL     1      11.218  12.658  17.592  0.00  0.00    +0.000 A 
ATOM     19  C   UNL     1       9.927  12.824  18.110  0.00  0.00    +0.000 A 
ATOM     20 CL   UNL     1       8.771  11.577  17.781  0.00  0.00    +0.000 Cl
ENDBRANCH  13  14
BRANCH  11  21
ATOM     21  C   UNL     1       7.739  13.651  23.025  0.00  0.00    +0.000 A 
ATOM     22  C   UNL     1       8.175  14.424  24.102  0.00  0.00    +0.000 A 
ATOM     23  C   UNL     1       8.479  13.805  25.317  0.00  0.00    +0.000 A 
ATOM     24  C   UNL     1       8.339  12.425  25.460  0.00  0.00    +0.000 A 
ATOM     25  C   UNL     1       7.827  11.660  24.415  0.00  0.00    +0.000 A 
ATOM     26  C   UNL     1       7.502  12.273  23.210  0.00  0.00    +0.000 A 
ENDBRANCH  11  21
TORSDOF 2
ENDMDL
