MODEL 1
REMARK VINA RESULT:      -6.7      0.000      0.000
REMARK  Name = 
REMARK  4 active torsions:
REMARK  status: ('A' for Active; 'I' for Inactive)
REMARK    1  A    between atoms: C_2  and  C_3
REMARK    2  A    between atoms: C_20  and  C_21
REMARK    3  A    between atoms: C_21  and  O_22
REMARK    4  A    between atoms: C_24  and  C_26
REMARK                            x       y       z     vdW  Elec       q    Type
REMARK                         _______ _______ _______ _____ _____    ______ ____
ROOT
ATOM      1  O   UNL     1      -3.626  17.374  22.992  0.00  0.00    +0.000 OA
ATOM      2  C   UNL     1      -2.641  16.633  22.960  0.00  0.00    +0.000 C 
ATOM      3  N   UNL     1      -2.452  15.650  21.929  0.00  0.00    +0.000 N 
ATOM      4  C   UNL     1      -3.596  15.449  20.996  0.00  0.00    +0.000 C 
ATOM      5  C   UNL     1      -4.748  14.830  21.786  0.00  0.00    +0.000 C 
ATOM      6  C   UNL     1      -4.312  14.259  23.266  0.00  0.00    +0.000 C 
ATOM      7  C   UNL     1      -2.813  13.557  23.017  0.00  0.00    +0.000 A 
ATOM      8  C   UNL     1      -2.363  12.254  23.219  0.00  0.00    +0.000 A 
ATOM      9  C   UNL     1      -1.136  11.820  22.654  0.00  0.00    +0.000 A 
ATOM     10  C   UNL     1      -0.340  12.671  21.879  0.00  0.00    +0.000 A 
ATOM     11  C   UNL     1      -0.729  13.976  21.693  0.00  0.00    +0.000 A 
ATOM     12  C   UNL     1      -1.928  14.391  22.288  0.00  0.00    +0.000 A 
ATOM     13  C   UNL     1      -5.748  13.691  23.142  0.00  0.00    +0.000 C 
ATOM     14  N   UNL     1      -5.334  13.455  21.740  0.00  0.00    +0.000 N 
ATOM     15  C   UNL     1      -5.692  12.430  20.902  0.00  0.00    +0.000 C 
ATOM     16  O   UNL     1      -6.584  11.641  21.223  0.00  0.00    +0.000 OA
ENDROOT
BRANCH   2  17
ATOM     17  C   UNL     1      -1.700  16.693  24.120  0.00  0.00    +0.000 A 
ATOM     18  C   UNL     1      -0.373  17.121  23.923  0.00  0.00    +0.000 A 
ATOM     19  C   UNL     1       0.523  17.166  25.001  0.00  0.00    +0.000 A 
ATOM     20  C   UNL     1       0.111  16.774  26.272  0.00  0.00    +0.000 A 
ATOM     21  C   UNL     1      -1.197  16.332  26.467  0.00  0.00    +0.000 A 
ATOM     22  C   UNL     1      -2.089  16.287  25.392  0.00  0.00    +0.000 A 
ATOM     23  F   UNL     1      -3.316  15.798  25.609  0.00  0.00    +0.000 F 
ENDBRANCH   2  17
BRANCH  15  24
ATOM     24  C   UNL     1      -4.980  12.162  19.625  0.00  0.00    +0.000 A 
ATOM     25  C   UNL     1      -5.726  11.759  18.504  0.00  0.00    +0.000 A 
ATOM     26  C   UNL     1      -5.083  11.382  17.318  0.00  0.00    +0.000 A 
ATOM     27  C   UNL     1      -3.696  11.390  17.260  0.00  0.00    +0.000 A 
ATOM     28  F   UNL     1      -3.079  11.020  16.130  0.00  0.00    +0.000 F 
ATOM     29  C   UNL     1      -2.940  11.737  18.371  0.00  0.00    +0.000 A 
ATOM     30  C   UNL     1      -3.586  12.102  19.556  0.00  0.00    +0.000 A 
ENDBRANCH  15  24
BRANCH  13  31
ATOM     31  C   UNL     1      -6.431  12.696  24.047  0.00  0.00    +0.000 C 
BRANCH  31  32
ATOM     32  O   UNL     1      -7.518  13.330  24.723  0.00  0.00    +0.000 OA
ATOM     33  H   UNL     1      -8.114  12.610  25.023  0.00  0.00    +0.000 HD
ENDBRANCH  31  32
ENDBRANCH  13  31
TORSDOF 4
ENDMDL
MODEL 2
REMARK VINA RESULT:      -6.3      0.970      1.546
REMARK  Name = 
REMARK  4 active torsions:
REMARK  status: ('A' for Active; 'I' for Inactive)
REMARK    1  A    between atoms: C_2  and  C_3
REMARK    2  A    between atoms: C_20  and  C_21
REMARK    3  A    between atoms: C_21  and  O_22
REMARK    4  A    between atoms: C_24  and  C_26
REMARK                            x       y       z     vdW  Elec       q    Type
REMARK                         _______ _______ _______ _____ _____    ______ ____
ROOT
ATOM      1  O   UNL     1      -3.456  17.348  22.866  0.00  0.00    +0.000 OA
ATOM      2  C   UNL     1      -2.519  16.547  22.889  0.00  0.00    +0.000 C 
ATOM      3  N   UNL     1      -2.381  15.497  21.917  0.00  0.00    +0.000 N 
ATOM      4  C   UNL     1      -3.525  15.315  20.981  0.00  0.00    +0.000 C 
ATOM      5  C   UNL     1      -4.722  14.815  21.788  0.00  0.00    +0.000 C 
ATOM      6  C   UNL     1      -4.338  14.302  23.303  0.00  0.00    +0.000 C 
ATOM      7  C   UNL     1      -2.883  13.496  23.115  0.00  0.00    +0.000 A 
ATOM      8  C   UNL     1      -2.518  12.181  23.395  0.00  0.00    +0.000 A 
ATOM      9  C   UNL     1      -1.314  11.640  22.873  0.00  0.00    +0.000 A 
ATOM     10  C   UNL     1      -0.458  12.396  22.062  0.00  0.00    +0.000 A 
ATOM     11  C   UNL     1      -0.763  13.710  21.799  0.00  0.00    +0.000 A 
ATOM     12  C   UNL     1      -1.941  14.231  22.353  0.00  0.00    +0.000 A 
ATOM     13  C   UNL     1      -5.806  13.817  23.190  0.00  0.00    +0.000 C 
ATOM     14  N   UNL     1      -5.392  13.478  21.810  0.00  0.00    +0.000 N 
ATOM     15  C   UNL     1      -5.805  12.432  21.025  0.00  0.00    +0.000 C 
ATOM     16  O   UNL     1      -6.748  11.718  21.377  0.00  0.00    +0.000 OA
ENDROOT
BRANCH   2  17
ATOM     17  C   UNL     1      -1.589  16.614  24.058  0.00  0.00    +0.000 A 
ATOM     18  C   UNL     1      -2.041  16.230  25.336  0.00  0.00    +0.000 A 
ATOM     19  C   UNL     1      -1.183  16.304  26.442  0.00  0.00    +0.000 A 
ATOM     20  C   UNL     1       0.120  16.771  26.287  0.00  0.00    +0.000 A 
ATOM     21  C   UNL     1       0.566  17.169  25.027  0.00  0.00    +0.000 A 
ATOM     22  C   UNL     1      -0.291  17.095  23.926  0.00  0.00    +0.000 A 
ATOM     23  F   UNL     1       0.155  17.546  22.747  0.00  0.00    +0.000 F 
ENDBRANCH   2  17
BRANCH  15  24
ATOM     24  C   UNL     1      -5.097  12.049  19.775  0.00  0.00    +0.000 A 
ATOM     25  C   UNL     1      -3.692  12.037  19.767  0.00  0.00    +0.000 A 
ATOM     26  C   UNL     1      -2.987  11.799  18.580  0.00  0.00    +0.000 A 
ATOM     27  C   UNL     1      -3.688  11.591  17.399  0.00  0.00    +0.000 A 
ATOM     28  F   UNL     1      -3.016  11.374  16.262  0.00  0.00    +0.000 F 
ATOM     29  C   UNL     1      -5.074  11.648  17.376  0.00  0.00    +0.000 A 
ATOM     30  C   UNL     1      -5.774  11.897  18.562  0.00  0.00    +0.000 A 
ENDBRANCH  15  24
BRANCH  13  31
ATOM     31  C   UNL     1      -6.559  12.919  24.139  0.00  0.00    +0.000 C 
BRANCH  31  32
ATOM     32  O   UNL     1      -5.747  11.795  24.482  0.00  0.00    +0.000 OA
ATOM     33  H   UNL     1      -6.329  11.006  24.420  0.00  0.00    +0.000 HD
ENDBRANCH  31  32
ENDBRANCH  13  31
TORSDOF 4
ENDMDL
MODEL 3
REMARK VINA RESULT:      -6.2      3.571      4.801
REMARK  Name = 
REMARK  4 active torsions:
REMARK  status: ('A' for Active; 'I' for Inactive)
REMARK    1  A    between atoms: C_2  and  C_3
REMARK    2  A    between atoms: C_20  and  C_21
REMARK    3  A    between atoms: C_21  and  O_22
REMARK    4  A    between atoms: C_24  and  C_26
REMARK                            x       y       z     vdW  Elec       q    Type
REMARK                         _______ _______ _______ _____ _____    ______ ____
ROOT
ATOM      1  O   UNL     1       1.141  16.483  20.110  0.00  0.00    +0.000 OA
ATOM      2  C   UNL     1       1.657  15.400  19.825  0.00  0.00    +0.000 C 
ATOM      3  N   UNL     1       0.958  14.386  19.085  0.00  0.00    +0.000 N 
ATOM      4  C   UNL     1      -0.488  14.638  18.830  0.00  0.00    +0.000 C 
ATOM      5  C   UNL     1      -1.221  14.585  20.169  0.00  0.00    +0.000 C 
ATOM      6  C   UNL     1      -0.329  13.945  21.394  0.00  0.00    +0.000 C 
ATOM      7  C   UNL     1       0.502  12.676  20.686  0.00  0.00    +0.000 A 
ATOM      8  C   UNL     1       0.518  11.313  20.974  0.00  0.00    +0.000 A 
ATOM      9  C   UNL     1       1.066  10.387  20.049  0.00  0.00    +0.000 A 
ATOM     10  C   UNL     1       1.602  10.800  18.823  0.00  0.00    +0.000 A 
ATOM     11  C   UNL     1       1.643  12.141  18.522  0.00  0.00    +0.000 A 
ATOM     12  C   UNL     1       1.126  13.039  19.466  0.00  0.00    +0.000 A 
ATOM     13  C   UNL     1      -1.729  14.017  22.055  0.00  0.00    +0.000 C 
ATOM     14  N   UNL     1      -2.179  13.575  20.716  0.00  0.00    +0.000 N 
ATOM     15  C   UNL     1      -3.232  12.757  20.393  0.00  0.00    +0.000 C 
ATOM     16  O   UNL     1      -4.050  12.421  21.253  0.00  0.00    +0.000 OA
ENDROOT
BRANCH   2  17
ATOM     17  C   UNL     1       3.007  15.112  20.401  0.00  0.00    +0.000 A 
ATOM     18  C   UNL     1       3.150  14.926  21.790  0.00  0.00    +0.000 A 
ATOM     19  C   UNL     1       4.413  14.672  22.343  0.00  0.00    +0.000 A 
ATOM     20  C   UNL     1       5.538  14.615  21.524  0.00  0.00    +0.000 A 
ATOM     21  C   UNL     1       5.403  14.817  20.151  0.00  0.00    +0.000 A 
ATOM     22  C   UNL     1       4.143  15.071  19.601  0.00  0.00    +0.000 A 
ATOM     23  F   UNL     1       4.066  15.321  18.288  0.00  0.00    +0.000 F 
ENDBRANCH   2  17
BRANCH  15  24
ATOM     24  C   UNL     1      -3.393  12.167  19.039  0.00  0.00    +0.000 A 
ATOM     25  C   UNL     1      -4.689  12.023  18.511  0.00  0.00    +0.000 A 
ATOM     26  C   UNL     1      -4.893  11.364  17.292  0.00  0.00    +0.000 A 
ATOM     27  C   UNL     1      -3.806  10.833  16.611  0.00  0.00    +0.000 A 
ATOM     28  F   UNL     1      -4.000  10.194  15.451  0.00  0.00    +0.000 F 
ATOM     29  C   UNL     1      -2.525  10.920  17.139  0.00  0.00    +0.000 A 
ATOM     30  C   UNL     1      -2.327  11.570  18.362  0.00  0.00    +0.000 A 
ENDBRANCH  15  24
BRANCH  13  31
ATOM     31  C   UNL     1      -2.159  13.432  23.377  0.00  0.00    +0.000 C 
BRANCH  31  32
ATOM     32  O   UNL     1      -3.415  13.993  23.763  0.00  0.00    +0.000 OA
ATOM     33  H   UNL     1      -3.299  14.323  24.680  0.00  0.00    +0.000 HD
ENDBRANCH  31  32
ENDBRANCH  13  31
TORSDOF 4
ENDMDL
MODEL 4
REMARK VINA RESULT:      -6.1      3.252      5.848
REMARK  Name = 
REMARK  4 active torsions:
REMARK  status: ('A' for Active; 'I' for Inactive)
REMARK    1  A    between atoms: C_2  and  C_3
REMARK    2  A    between atoms: C_20  and  C_21
REMARK    3  A    between atoms: C_21  and  O_22
REMARK    4  A    between atoms: C_24  and  C_26
REMARK                            x       y       z     vdW  Elec       q    Type
REMARK                         _______ _______ _______ _____ _____    ______ ____
ROOT
ATOM      1  O   UNL     1      -4.998  12.286  20.364  0.00  0.00    +0.000 OA
ATOM      2  C   UNL     1      -4.759  13.319  20.993  0.00  0.00    +0.000 C 
ATOM      3  N   UNL     1      -3.568  14.093  20.779  0.00  0.00    +0.000 N 
ATOM      4  C   UNL     1      -2.546  13.488  19.880  0.00  0.00    +0.000 C 
ATOM      5  C   UNL     1      -1.975  12.254  20.575  0.00  0.00    +0.000 C 
ATOM      6  C   UNL     1      -2.359  12.149  22.172  0.00  0.00    +0.000 C 
ATOM      7  C   UNL     1      -2.248  13.723  22.732  0.00  0.00    +0.000 A 
ATOM      8  C   UNL     1      -1.464  14.289  23.734  0.00  0.00    +0.000 A 
ATOM      9  C   UNL     1      -1.320  15.698  23.829  0.00  0.00    +0.000 A 
ATOM     10  C   UNL     1      -1.950  16.564  22.927  0.00  0.00    +0.000 A 
ATOM     11  C   UNL     1      -2.767  16.046  21.951  0.00  0.00    +0.000 A 
ATOM     12  C   UNL     1      -2.919  14.653  21.898  0.00  0.00    +0.000 A 
ATOM     13  C   UNL     1      -1.301  11.024  22.048  0.00  0.00    +0.000 C 
ATOM     14  N   UNL     1      -0.626  12.009  21.174  0.00  0.00    +0.000 N 
ATOM     15  C   UNL     1       0.718  12.223  21.003  0.00  0.00    +0.000 C 
ATOM     16  O   UNL     1       1.543  11.444  21.488  0.00  0.00    +0.000 OA
ENDROOT
BRANCH   2  17
ATOM     17  C   UNL     1      -5.696  13.677  22.103  0.00  0.00    +0.000 A 
ATOM     18  C   UNL     1      -5.912  12.766  23.157  0.00  0.00    +0.000 A 
ATOM     19  C   UNL     1      -6.801  13.084  24.194  0.00  0.00    +0.000 A 
ATOM     20  C   UNL     1      -7.487  14.296  24.183  0.00  0.00    +0.000 A 
ATOM     21  C   UNL     1      -7.290  15.191  23.132  0.00  0.00    +0.000 A 
ATOM     22  C   UNL     1      -6.404  14.873  22.099  0.00  0.00    +0.000 A 
ATOM     23  F   UNL     1      -6.291  15.732  21.078  0.00  0.00    +0.000 F 
ENDBRANCH   2  17
BRANCH  15  24
ATOM     24  C   UNL     1       1.249  13.430  20.317  0.00  0.00    +0.000 A 
ATOM     25  C   UNL     1       0.833  14.699  20.755  0.00  0.00    +0.000 A 
ATOM     26  C   UNL     1       1.215  15.854  20.062  0.00  0.00    +0.000 A 
ATOM     27  C   UNL     1       1.997  15.739  18.921  0.00  0.00    +0.000 A 
ATOM     28  F   UNL     1       2.355  16.841  18.250  0.00  0.00    +0.000 F 
ATOM     29  C   UNL     1       2.378  14.493  18.443  0.00  0.00    +0.000 A 
ATOM     30  C   UNL     1       1.985  13.341  19.132  0.00  0.00    +0.000 A 
ENDBRANCH  15  24
BRANCH  13  31
ATOM     31  C   UNL     1      -0.658  10.233  23.160  0.00  0.00    +0.000 C 
BRANCH  31  32
ATOM     32  O   UNL     1      -0.804   8.835  22.901  0.00  0.00    +0.000 OA
ATOM     33  H   UNL     1      -1.761   8.684  22.740  0.00  0.00    +0.000 HD
ENDBRANCH  31  32
ENDBRANCH  13  31
TORSDOF 4
ENDMDL
MODEL 5
REMARK VINA RESULT:      -6.1      2.820      5.866
REMARK  Name = 
REMARK  4 active torsions:
REMARK  status: ('A' for Active; 'I' for Inactive)
REMARK    1  A    between atoms: C_2  and  C_3
REMARK    2  A    between atoms: C_20  and  C_21
REMARK    3  A    between atoms: C_21  and  O_22
REMARK    4  A    between atoms: C_24  and  C_26
REMARK                            x       y       z     vdW  Elec       q    Type
REMARK                         _______ _______ _______ _____ _____    ______ ____
ROOT
ATOM      1  O   UNL     1       1.067  13.240  21.577  0.00  0.00    +0.000 OA
ATOM      2  C   UNL     1       0.044  12.686  21.169  0.00  0.00    +0.000 C 
ATOM      3  N   UNL     1      -1.060  13.420  20.617  0.00  0.00    +0.000 N 
ATOM      4  C   UNL     1      -0.981  14.904  20.723  0.00  0.00    +0.000 C 
ATOM      5  C   UNL     1      -1.086  15.279  22.199  0.00  0.00    +0.000 C 
ATOM      6  C   UNL     1      -1.591  14.047  23.167  0.00  0.00    +0.000 C 
ATOM      7  C   UNL     1      -2.773  13.271  22.271  0.00  0.00    +0.000 A 
ATOM      8  C   UNL     1      -4.118  13.027  22.539  0.00  0.00    +0.000 A 
ATOM      9  C   UNL     1      -4.997  12.617  21.503  0.00  0.00    +0.000 A 
ATOM     10  C   UNL     1      -4.554  12.446  20.187  0.00  0.00    +0.000 A 
ATOM     11  C   UNL     1      -3.225  12.635  19.891  0.00  0.00    +0.000 A 
ATOM     12  C   UNL     1      -2.370  13.009  20.938  0.00  0.00    +0.000 A 
ATOM     13  C   UNL     1      -1.664  15.244  24.149  0.00  0.00    +0.000 C 
ATOM     14  N   UNL     1      -2.186  15.951  22.958  0.00  0.00    +0.000 N 
ATOM     15  C   UNL     1      -3.126  16.948  22.898  0.00  0.00    +0.000 C 
ATOM     16  O   UNL     1      -3.533  17.488  23.929  0.00  0.00    +0.000 OA
ENDROOT
BRANCH   2  17
ATOM     17  C   UNL     1      -0.075  11.212  21.397  0.00  0.00    +0.000 A 
ATOM     18  C   UNL     1      -0.393  10.726  22.680  0.00  0.00    +0.000 A 
ATOM     19  C   UNL     1      -0.490   9.346  22.909  0.00  0.00    +0.000 A 
ATOM     20  C   UNL     1      -0.259   8.445  21.872  0.00  0.00    +0.000 A 
ATOM     21  C   UNL     1       0.075   8.923  20.606  0.00  0.00    +0.000 A 
ATOM     22  C   UNL     1       0.172  10.298  20.379  0.00  0.00    +0.000 A 
ATOM     23  F   UNL     1       0.556  10.713  19.165  0.00  0.00    +0.000 F 
ENDBRANCH   2  17
BRANCH  15  24
ATOM     24  C   UNL     1      -3.762  17.364  21.621  0.00  0.00    +0.000 A 
ATOM     25  C   UNL     1      -4.853  16.622  21.132  0.00  0.00    +0.000 A 
ATOM     26  C   UNL     1      -5.404  16.907  19.876  0.00  0.00    +0.000 A 
ATOM     27  C   UNL     1      -4.853  17.920  19.102  0.00  0.00    +0.000 A 
ATOM     28  F   UNL     1      -5.371  18.186  17.897  0.00  0.00    +0.000 F 
ATOM     29  C   UNL     1      -3.746  18.630  19.544  0.00  0.00    +0.000 A 
ATOM     30  C   UNL     1      -3.192  18.335  20.794  0.00  0.00    +0.000 A 
ENDBRANCH  15  24
BRANCH  13  31
ATOM     31  C   UNL     1      -2.264  15.270  25.533  0.00  0.00    +0.000 C 
BRANCH  31  32
ATOM     32  O   UNL     1      -3.608  14.788  25.482  0.00  0.00    +0.000 OA
ATOM     33  H   UNL     1      -4.154  15.532  25.145  0.00  0.00    +0.000 HD
ENDBRANCH  31  32
ENDBRANCH  13  31
TORSDOF 4
ENDMDL
MODEL 6
REMARK VINA RESULT:      -6.0      3.727      5.257
REMARK  Name = 
REMARK  4 active torsions:
REMARK  status: ('A' for Active; 'I' for Inactive)
REMARK    1  A    between atoms: C_2  and  C_3
REMARK    2  A    between atoms: C_20  and  C_21
REMARK    3  A    between atoms: C_21  and  O_22
REMARK    4  A    between atoms: C_24  and  C_26
REMARK                            x       y       z     vdW  Elec       q    Type
REMARK                         _______ _______ _______ _____ _____    ______ ____
ROOT
ATOM      1  O   UNL     1       1.195  16.864  19.646  0.00  0.00    +0.000 OA
ATOM      2  C   UNL     1       1.626  15.750  19.337  0.00  0.00    +0.000 C 
ATOM      3  N   UNL     1       0.769  14.695  18.872  0.00  0.00    +0.000 N 
ATOM      4  C   UNL     1      -0.695  14.957  18.948  0.00  0.00    +0.000 C 
ATOM      5  C   UNL     1      -1.087  15.027  20.422  0.00  0.00    +0.000 C 
ATOM      6  C   UNL     1       0.071  14.469  21.449  0.00  0.00    +0.000 C 
ATOM      7  C   UNL     1       0.707  13.130  20.671  0.00  0.00    +0.000 A 
ATOM      8  C   UNL     1       0.789  11.794  21.059  0.00  0.00    +0.000 A 
ATOM      9  C   UNL     1       1.098  10.785  20.110  0.00  0.00    +0.000 A 
ATOM     10  C   UNL     1       1.327  11.088  18.762  0.00  0.00    +0.000 A 
ATOM     11  C   UNL     1       1.297  12.398  18.350  0.00  0.00    +0.000 A 
ATOM     12  C   UNL     1       1.022  13.380  19.312  0.00  0.00    +0.000 A 
ATOM     13  C   UNL     1      -1.130  14.624  22.415  0.00  0.00    +0.000 C 
ATOM     14  N   UNL     1      -1.888  14.085  21.264  0.00  0.00    +0.000 N 
ATOM     15  C   UNL     1      -2.988  13.267  21.270  0.00  0.00    +0.000 C 
ATOM     16  O   UNL     1      -3.578  13.018  22.325  0.00  0.00    +0.000 OA
ENDROOT
BRANCH   2  17
ATOM     17  C   UNL     1       3.074  15.481  19.597  0.00  0.00    +0.000 A 
ATOM     18  C   UNL     1       3.568  15.519  20.916  0.00  0.00    +0.000 A 
ATOM     19  C   UNL     1       4.927  15.284  21.169  0.00  0.00    +0.000 A 
ATOM     20  C   UNL     1       5.801  15.025  20.117  0.00  0.00    +0.000 A 
ATOM     21  C   UNL     1       5.320  15.006  18.809  0.00  0.00    +0.000 A 
ATOM     22  C   UNL     1       3.966  15.241  18.557  0.00  0.00    +0.000 A 
ATOM     23  F   UNL     1       3.556  15.275  17.283  0.00  0.00    +0.000 F 
ENDBRANCH   2  17
BRANCH  15  24
ATOM     24  C   UNL     1      -3.470  12.573  20.047  0.00  0.00    +0.000 A 
ATOM     25  C   UNL     1      -2.530  11.967  19.195  0.00  0.00    +0.000 A 
ATOM     26  C   UNL     1      -2.930  11.408  17.975  0.00  0.00    +0.000 A 
ATOM     27  C   UNL     1      -4.264  11.472  17.598  0.00  0.00    +0.000 A 
ATOM     28  F   UNL     1      -4.647  10.948  16.427  0.00  0.00    +0.000 F 
ATOM     29  C   UNL     1      -5.200  12.109  18.401  0.00  0.00    +0.000 A 
ATOM     30  C   UNL     1      -4.795  12.676  19.614  0.00  0.00    +0.000 A 
ENDBRANCH  15  24
BRANCH  13  31
ATOM     31  C   UNL     1      -1.233  14.156  23.846  0.00  0.00    +0.000 C 
BRANCH  31  32
ATOM     32  O   UNL     1      -0.741  15.173  24.720  0.00  0.00    +0.000 OA
ATOM     33  H   UNL     1      -0.935  16.030  24.282  0.00  0.00    +0.000 HD
ENDBRANCH  31  32
ENDBRANCH  13  31
TORSDOF 4
ENDMDL
MODEL 7
REMARK VINA RESULT:      -6.0      2.964      5.596
REMARK  Name = 
REMARK  4 active torsions:
REMARK  status: ('A' for Active; 'I' for Inactive)
REMARK    1  A    between atoms: C_2  and  C_3
REMARK    2  A    between atoms: C_20  and  C_21
REMARK    3  A    between atoms: C_21  and  O_22
REMARK    4  A    between atoms: C_24  and  C_26
REMARK                            x       y       z     vdW  Elec       q    Type
REMARK                         _______ _______ _______ _____ _____    ______ ____
ROOT
ATOM      1  O   UNL     1       0.313  13.780  21.483  0.00  0.00    +0.000 OA
ATOM      2  C   UNL     1      -0.577  13.043  21.049  0.00  0.00    +0.000 C 
ATOM      3  N   UNL     1      -1.689  13.545  20.292  0.00  0.00    +0.000 N 
ATOM      4  C   UNL     1      -1.810  15.027  20.206  0.00  0.00    +0.000 C 
ATOM      5  C   UNL     1      -2.139  15.557  21.600  0.00  0.00    +0.000 C 
ATOM      6  C   UNL     1      -2.598  14.391  22.666  0.00  0.00    +0.000 C 
ATOM      7  C   UNL     1      -3.557  13.356  21.765  0.00  0.00    +0.000 A 
ATOM      8  C   UNL     1      -4.883  12.960  21.923  0.00  0.00    +0.000 A 
ATOM      9  C   UNL     1      -5.572  12.310  20.866  0.00  0.00    +0.000 A 
ATOM     10  C   UNL     1      -4.955  12.047  19.637  0.00  0.00    +0.000 A 
ATOM     11  C   UNL     1      -3.635  12.385  19.458  0.00  0.00    +0.000 A 
ATOM     12  C   UNL     1      -2.966  12.996  20.528  0.00  0.00    +0.000 A 
ATOM     13  C   UNL     1      -2.939  15.673  23.467  0.00  0.00    +0.000 C 
ATOM     14  N   UNL     1      -3.398  16.153  22.145  0.00  0.00    +0.000 N 
ATOM     15  C   UNL     1      -4.442  16.995  21.854  0.00  0.00    +0.000 C 
ATOM     16  O   UNL     1      -5.035  17.592  22.756  0.00  0.00    +0.000 OA
ENDROOT
BRANCH   2  17
ATOM     17  C   UNL     1      -0.535  11.606  21.459  0.00  0.00    +0.000 A 
ATOM     18  C   UNL     1      -0.747  11.256  22.807  0.00  0.00    +0.000 A 
ATOM     19  C   UNL     1      -0.694   9.912  23.205  0.00  0.00    +0.000 A 
ATOM     20  C   UNL     1      -0.419   8.915  22.273  0.00  0.00    +0.000 A 
ATOM     21  C   UNL     1      -0.190   9.260  20.941  0.00  0.00    +0.000 A 
ATOM     22  C   UNL     1      -0.242  10.599  20.546  0.00  0.00    +0.000 A 
ATOM     23  F   UNL     1       0.045  10.893  19.271  0.00  0.00    +0.000 F 
ENDBRANCH   2  17
BRANCH  15  24
ATOM     24  C   UNL     1      -4.967  17.163  20.474  0.00  0.00    +0.000 A 
ATOM     25  C   UNL     1      -4.769  18.390  19.817  0.00  0.00    +0.000 A 
ATOM     26  C   UNL     1      -5.349  18.631  18.565  0.00  0.00    +0.000 A 
ATOM     27  C   UNL     1      -6.142  17.653  17.980  0.00  0.00    +0.000 A 
ATOM     28  F   UNL     1      -6.707  17.885  16.788  0.00  0.00    +0.000 F 
ATOM     29  C   UNL     1      -6.391  16.454  18.634  0.00  0.00    +0.000 A 
ATOM     30  C   UNL     1      -5.818  16.222  19.889  0.00  0.00    +0.000 A 
ENDBRANCH  15  24
BRANCH  13  31
ATOM     31  C   UNL     1      -3.699  15.779  24.766  0.00  0.00    +0.000 C 
BRANCH  31  32
ATOM     32  O   UNL     1      -3.486  17.069  25.342  0.00  0.00    +0.000 OA
ATOM     33  H   UNL     1      -3.423  16.930  26.312  0.00  0.00    +0.000 HD
ENDBRANCH  31  32
ENDBRANCH  13  31
TORSDOF 4
ENDMDL
MODEL 8
REMARK VINA RESULT:      -5.9      3.468      4.567
REMARK  Name = 
REMARK  4 active torsions:
REMARK  status: ('A' for Active; 'I' for Inactive)
REMARK    1  A    between atoms: C_2  and  C_3
REMARK    2  A    between atoms: C_20  and  C_21
REMARK    3  A    between atoms: C_21  and  O_22
REMARK    4  A    between atoms: C_24  and  C_26
REMARK                            x       y       z     vdW  Elec       q    Type
REMARK                         _______ _______ _______ _____ _____    ______ ____
ROOT
ATOM      1  O   UNL     1       1.092  16.615  20.102  0.00  0.00    +0.000 OA
ATOM      2  C   UNL     1       1.627  15.554  19.773  0.00  0.00    +0.000 C 
ATOM      3  N   UNL     1       0.929  14.537  19.035  0.00  0.00    +0.000 N 
ATOM      4  C   UNL     1      -0.531  14.755  18.839  0.00  0.00    +0.000 C 
ATOM      5  C   UNL     1      -1.213  14.651  20.202  0.00  0.00    +0.000 C 
ATOM      6  C   UNL     1      -0.258  14.008  21.378  0.00  0.00    +0.000 C 
ATOM      7  C   UNL     1       0.580  12.780  20.610  0.00  0.00    +0.000 A 
ATOM      8  C   UNL     1       0.644  11.412  20.865  0.00  0.00    +0.000 A 
ATOM      9  C   UNL     1       1.182  10.522  19.899  0.00  0.00    +0.000 A 
ATOM     10  C   UNL     1       1.661  10.979  18.665  0.00  0.00    +0.000 A 
ATOM     11  C   UNL     1       1.654  12.326  18.394  0.00  0.00    +0.000 A 
ATOM     12  C   UNL     1       1.148  13.187  19.378  0.00  0.00    +0.000 A 
ATOM     13  C   UNL     1      -1.635  14.026  22.091  0.00  0.00    +0.000 C 
ATOM     14  N   UNL     1      -2.122  13.602  20.759  0.00  0.00    +0.000 N 
ATOM     15  C   UNL     1      -3.163  12.762  20.456  0.00  0.00    +0.000 C 
ATOM     16  O   UNL     1      -3.940  12.384  21.337  0.00  0.00    +0.000 OA
ENDROOT
BRANCH   2  17
ATOM     17  C   UNL     1       3.005  15.291  20.292  0.00  0.00    +0.000 A 
ATOM     18  C   UNL     1       4.069  15.104  19.388  0.00  0.00    +0.000 A 
ATOM     19  C   UNL     1       5.362  14.841  19.863  0.00  0.00    +0.000 A 
ATOM     20  C   UNL     1       5.601  14.749  21.232  0.00  0.00    +0.000 A 
ATOM     21  C   UNL     1       4.546  14.914  22.129  0.00  0.00    +0.000 A 
ATOM     22  C   UNL     1       3.258  15.176  21.654  0.00  0.00    +0.000 A 
ATOM     23  F   UNL     1       2.262  15.266  22.546  0.00  0.00    +0.000 F 
ENDBRANCH   2  17
BRANCH  15  24
ATOM     24  C   UNL     1      -3.359  12.199  19.095  0.00  0.00    +0.000 A 
ATOM     25  C   UNL     1      -4.666  12.087  18.588  0.00  0.00    +0.000 A 
ATOM     26  C   UNL     1      -4.903  11.453  17.361  0.00  0.00    +0.000 A 
ATOM     27  C   UNL     1      -3.837  10.915  16.653  0.00  0.00    +0.000 A 
ATOM     28  F   UNL     1      -4.063  10.299  15.486  0.00  0.00    +0.000 F 
ATOM     29  C   UNL     1      -2.546  10.970  17.159  0.00  0.00    +0.000 A 
ATOM     30  C   UNL     1      -2.315  11.595  18.389  0.00  0.00    +0.000 A 
ENDBRANCH  15  24
BRANCH  13  31
ATOM     31  C   UNL     1      -2.000  13.399  23.414  0.00  0.00    +0.000 C 
BRANCH  31  32
ATOM     32  O   UNL     1      -3.226  13.959  23.887  0.00  0.00    +0.000 OA
ATOM     33  H   UNL     1      -3.144  14.015  24.864  0.00  0.00    +0.000 HD
ENDBRANCH  31  32
ENDBRANCH  13  31
TORSDOF 4
ENDMDL
MODEL 9
REMARK VINA RESULT:      -5.8      2.848      5.354
REMARK  Name = 
REMARK  4 active torsions:
REMARK  status: ('A' for Active; 'I' for Inactive)
REMARK    1  A    between atoms: C_2  and  C_3
REMARK    2  A    between atoms: C_20  and  C_21
REMARK    3  A    between atoms: C_21  and  O_22
REMARK    4  A    between atoms: C_24  and  C_26
REMARK                            x       y       z     vdW  Elec       q    Type
REMARK                         _______ _______ _______ _____ _____    ______ ____
ROOT
ATOM      1  O   UNL     1       0.287  13.936  21.343  0.00  0.00    +0.000 OA
ATOM      2  C   UNL     1      -0.628  13.197  20.973  0.00  0.00    +0.000 C 
ATOM      3  N   UNL     1      -1.800  13.697  20.310  0.00  0.00    +0.000 N 
ATOM      4  C   UNL     1      -1.937  15.179  20.249  0.00  0.00    +0.000 C 
ATOM      5  C   UNL     1      -2.160  15.693  21.669  0.00  0.00    +0.000 C 
ATOM      6  C   UNL     1      -2.527  14.513  22.757  0.00  0.00    +0.000 C 
ATOM      7  C   UNL     1      -3.545  13.479  21.923  0.00  0.00    +0.000 A 
ATOM      8  C   UNL     1      -4.852  13.071  22.179  0.00  0.00    +0.000 A 
ATOM      9  C   UNL     1      -5.617  12.426  21.173  0.00  0.00    +0.000 A 
ATOM     10  C   UNL     1      -5.096  12.179  19.897  0.00  0.00    +0.000 A 
ATOM     11  C   UNL     1      -3.797  12.529  19.619  0.00  0.00    +0.000 A 
ATOM     12  C   UNL     1      -3.051  13.135  20.640  0.00  0.00    +0.000 A 
ATOM     13  C   UNL     1      -2.812  15.786  23.594  0.00  0.00    +0.000 C 
ATOM     14  N   UNL     1      -3.377  16.274  22.316  0.00  0.00    +0.000 N 
ATOM     15  C   UNL     1      -4.446  17.110  22.116  0.00  0.00    +0.000 C 
ATOM     16  O   UNL     1      -4.971  17.695  23.067  0.00  0.00    +0.000 OA
ENDROOT
BRANCH   2  17
ATOM     17  C   UNL     1      -0.545  11.755  21.364  0.00  0.00    +0.000 A 
ATOM     18  C   UNL     1      -0.290  10.778  20.382  0.00  0.00    +0.000 A 
ATOM     19  C   UNL     1      -0.226   9.422  20.734  0.00  0.00    +0.000 A 
ATOM     20  C   UNL     1      -0.427   9.031  22.055  0.00  0.00    +0.000 A 
ATOM     21  C   UNL     1      -0.698   9.994  23.026  0.00  0.00    +0.000 A 
ATOM     22  C   UNL     1      -0.762  11.345  22.674  0.00  0.00    +0.000 A 
ATOM     23  F   UNL     1      -1.086  12.230  23.625  0.00  0.00    +0.000 F 
ENDBRANCH   2  17
BRANCH  15  24
ATOM     24  C   UNL     1      -5.078  17.287  20.783  0.00  0.00    +0.000 A 
ATOM     25  C   UNL     1      -5.810  16.220  20.232  0.00  0.00    +0.000 A 
ATOM     26  C   UNL     1      -6.320  16.303  18.930  0.00  0.00    +0.000 A 
ATOM     27  C   UNL     1      -6.082  17.442  18.173  0.00  0.00    +0.000 A 
ATOM     28  F   UNL     1      -6.559  17.518  16.925  0.00  0.00    +0.000 F 
ATOM     29  C   UNL     1      -5.320  18.485  18.680  0.00  0.00    +0.000 A 
ATOM     30  C   UNL     1      -4.803  18.395  19.976  0.00  0.00    +0.000 A 
ENDBRANCH  15  24
BRANCH  13  31
ATOM     31  C   UNL     1      -3.470  15.874  24.949  0.00  0.00    +0.000 C 
BRANCH  31  32
ATOM     32  O   UNL     1      -3.279  17.182  25.490  0.00  0.00    +0.000 OA
ATOM     33  H   UNL     1      -4.062  17.363  26.055  0.00  0.00    +0.000 HD
ENDBRANCH  31  32
ENDBRANCH  13  31
TORSDOF 4
ENDMDL
