MODEL 1
REMARK VINA RESULT:      -7.9      0.000      0.000
REMARK  Name = 
REMARK  6 active torsions:
REMARK  status: ('A' for Active; 'I' for Inactive)
REMARK    1  A    between atoms: C_1  and  C_2
REMARK    2  A    between atoms: C_4  and  C_5
REMARK    3  A    between atoms: C_8  and  S_9
REMARK    4  A    between atoms: S_9  and  N_12
REMARK    5  A    between atoms: N_12  and  C_13
REMARK    6  A    between atoms: C_13  and  C_14
REMARK                            x       y       z     vdW  Elec       q    Type
REMARK                         _______ _______ _______ _____ _____    ______ ____
ROOT
ATOM      1  S   UNL     1       1.968   3.486  20.377  0.00  0.00    +0.000 S 
ATOM      2  O   UNL     1       1.008   2.495  19.941  0.00  0.00    +0.000 OA
ATOM      3  O   UNL     1       2.743   3.322  21.585  0.00  0.00    +0.000 OA
ENDROOT
BRANCH   1   7
ATOM      4  C   UNL     1       4.892   4.187  16.908  0.00  0.00    +0.000 A 
ATOM      5  C   UNL     1       3.538   3.914  16.666  0.00  0.00    +0.000 A 
ATOM      6  C   UNL     1       2.658   3.681  17.727  0.00  0.00    +0.000 A 
ATOM      7  C   UNL     1       3.124   3.728  19.043  0.00  0.00    +0.000 A 
ATOM      8  C   UNL     1       4.468   4.019  19.298  0.00  0.00    +0.000 A 
ATOM      9  C   UNL     1       5.348   4.237  18.232  0.00  0.00    +0.000 A 
BRANCH   4  13
ATOM     10  C   UNL     1       7.098   4.233  12.483  0.00  0.00    +0.000 C 
ATOM     11  C   UNL     1       6.702   4.427  13.891  0.00  0.00    +0.000 A 
ATOM     12  N   UNL     1       5.635   3.987  14.529  0.00  0.00    +0.000 NA
ATOM     13  C   UNL     1       5.811   4.448  15.815  0.00  0.00    +0.000 A 
ATOM     14  C   UNL     1       6.972   5.179  15.886  0.00  0.00    +0.000 A 
ATOM     15  O   UNL     1       7.557   5.171  14.657  0.00  0.00    +0.000 OA
ENDBRANCH   4  13
ENDBRANCH   1   7
BRANCH   1  16
ATOM     16  N   UNL     1       1.196   4.991  20.517  0.00  0.00    +0.000 NA
ATOM     17  H   UNL     1       0.421   4.948  21.179  0.00  0.00    +0.000 HD
BRANCH  16  18
ATOM     18  C   UNL     1       2.107   6.127  20.772  0.00  0.00    +0.000 C 
BRANCH  18  19
ATOM     19  C   UNL     1       1.913   7.309  19.848  0.00  0.00    +0.000 A 
ATOM     20  C   UNL     1       2.438   7.296  18.544  0.00  0.00    +0.000 A 
ATOM     21  C   UNL     1       2.336   8.423  17.721  0.00  0.00    +0.000 A 
ATOM     22  C   UNL     1       1.720   9.580  18.191  0.00  0.00    +0.000 A 
ATOM     23  C   UNL     1       1.208   9.613  19.483  0.00  0.00    +0.000 A 
ATOM     24  C   UNL     1       1.307   8.493  20.310  0.00  0.00    +0.000 A 
ATOM     25 CL   UNL     1       0.678   8.640  21.915  0.00  0.00    +0.000 Cl
ENDBRANCH  18  19
ENDBRANCH  16  18
ENDBRANCH   1  16
TORSDOF 5
ENDMDL
MODEL 2
REMARK VINA RESULT:      -7.8      0.176      1.001
REMARK  Name = 
REMARK  6 active torsions:
REMARK  status: ('A' for Active; 'I' for Inactive)
REMARK    1  A    between atoms: C_1  and  C_2
REMARK    2  A    between atoms: C_4  and  C_5
REMARK    3  A    between atoms: C_8  and  S_9
REMARK    4  A    between atoms: S_9  and  N_12
REMARK    5  A    between atoms: N_12  and  C_13
REMARK    6  A    between atoms: C_13  and  C_14
REMARK                            x       y       z     vdW  Elec       q    Type
REMARK                         _______ _______ _______ _____ _____    ______ ____
ROOT
ATOM      1  S   UNL     1       1.807   3.538  20.358  0.00  0.00    +0.000 S 
ATOM      2  O   UNL     1       0.769   2.667  19.851  0.00  0.00    +0.000 OA
ATOM      3  O   UNL     1       2.588   3.199  21.526  0.00  0.00    +0.000 OA
ENDROOT
BRANCH   1   7
ATOM      4  C   UNL     1       4.821   4.202  16.959  0.00  0.00    +0.000 A 
ATOM      5  C   UNL     1       5.235   4.190  18.299  0.00  0.00    +0.000 A 
ATOM      6  C   UNL     1       4.309   4.008  19.329  0.00  0.00    +0.000 A 
ATOM      7  C   UNL     1       2.956   3.826  19.028  0.00  0.00    +0.000 A 
ATOM      8  C   UNL     1       2.533   3.817  17.695  0.00  0.00    +0.000 A 
ATOM      9  C   UNL     1       3.463   4.014  16.667  0.00  0.00    +0.000 A 
BRANCH   4  13
ATOM     10  C   UNL     1       7.006   4.203  12.524  0.00  0.00    +0.000 C 
ATOM     11  C   UNL     1       6.652   4.346  13.949  0.00  0.00    +0.000 A 
ATOM     12  N   UNL     1       5.517   4.072  14.561  0.00  0.00    +0.000 NA
ATOM     13  C   UNL     1       5.777   4.372  15.880  0.00  0.00    +0.000 A 
ATOM     14  C   UNL     1       7.059   4.849  15.998  0.00  0.00    +0.000 A 
ATOM     15  O   UNL     1       7.635   4.834  14.765  0.00  0.00    +0.000 OA
ENDBRANCH   4  13
ENDBRANCH   1   7
BRANCH   1  16
ATOM     16  N   UNL     1       1.153   5.074  20.662  0.00  0.00    +0.000 NA
ATOM     17  H   UNL     1       0.506   5.050  21.451  0.00  0.00    +0.000 HD
BRANCH  16  18
ATOM     18  C   UNL     1       2.153   6.158  20.773  0.00  0.00    +0.000 C 
BRANCH  18  19
ATOM     19  C   UNL     1       1.929   7.318  19.828  0.00  0.00    +0.000 A 
ATOM     20  C   UNL     1       2.515   7.328  18.551  0.00  0.00    +0.000 A 
ATOM     21  C   UNL     1       2.383   8.440  17.711  0.00  0.00    +0.000 A 
ATOM     22  C   UNL     1       1.675   9.560  18.141  0.00  0.00    +0.000 A 
ATOM     23  C   UNL     1       1.102   9.571  19.406  0.00  0.00    +0.000 A 
ATOM     24  C   UNL     1       1.231   8.465  20.249  0.00  0.00    +0.000 A 
ATOM     25 CL   UNL     1       0.519   8.586  21.821  0.00  0.00    +0.000 Cl
ENDBRANCH  18  19
ENDBRANCH  16  18
ENDBRANCH   1  16
TORSDOF 5
ENDMDL
MODEL 3
REMARK VINA RESULT:      -7.7      3.457      7.092
REMARK  Name = 
REMARK  6 active torsions:
REMARK  status: ('A' for Active; 'I' for Inactive)
REMARK    1  A    between atoms: C_1  and  C_2
REMARK    2  A    between atoms: C_4  and  C_5
REMARK    3  A    between atoms: C_8  and  S_9
REMARK    4  A    between atoms: S_9  and  N_12
REMARK    5  A    between atoms: N_12  and  C_13
REMARK    6  A    between atoms: C_13  and  C_14
REMARK                            x       y       z     vdW  Elec       q    Type
REMARK                         _______ _______ _______ _____ _____    ______ ____
ROOT
ATOM      1  S   UNL     1       4.925   4.817  17.510  0.00  0.00    +0.000 S 
ATOM      2  O   UNL     1       5.524   5.509  16.390  0.00  0.00    +0.000 OA
ATOM      3  O   UNL     1       5.722   4.216  18.555  0.00  0.00    +0.000 OA
ENDROOT
BRANCH   1   7
ATOM      4  C   UNL     1       2.098   7.761  19.612  0.00  0.00    +0.000 A 
ATOM      5  C   UNL     1       2.565   6.614  20.270  0.00  0.00    +0.000 A 
ATOM      6  C   UNL     1       3.408   5.711  19.616  0.00  0.00    +0.000 A 
ATOM      7  C   UNL     1       3.802   5.954  18.298  0.00  0.00    +0.000 A 
ATOM      8  C   UNL     1       3.360   7.104  17.637  0.00  0.00    +0.000 A 
ATOM      9  C   UNL     1       2.503   7.997  18.291  0.00  0.00    +0.000 A 
BRANCH   4  13
ATOM     10  C   UNL     1      -0.681  10.071  22.987  0.00  0.00    +0.000 C 
ATOM     11  C   UNL     1       0.063   9.653  21.783  0.00  0.00    +0.000 A 
ATOM     12  N   UNL     1       0.849   8.610  21.605  0.00  0.00    +0.000 NA
ATOM     13  C   UNL     1       1.236   8.714  20.287  0.00  0.00    +0.000 A 
ATOM     14  C   UNL     1       0.684   9.844  19.734  0.00  0.00    +0.000 A 
ATOM     15  O   UNL     1      -0.076  10.455  20.684  0.00  0.00    +0.000 OA
ENDBRANCH   4  13
ENDBRANCH   1   7
BRANCH   1  16
ATOM     16  N   UNL     1       3.909   3.587  16.931  0.00  0.00    +0.000 NA
ATOM     17  H   UNL     1       4.135   3.344  15.966  0.00  0.00    +0.000 HD
BRANCH  16  18
ATOM     18  C   UNL     1       3.811   2.404  17.813  0.00  0.00    +0.000 C 
BRANCH  18  19
ATOM     19  C   UNL     1       2.827   2.548  18.952  0.00  0.00    +0.000 A 
ATOM     20  C   UNL     1       1.510   2.978  18.714  0.00  0.00    +0.000 A 
ATOM     21  C   UNL     1       0.626   3.198  19.777  0.00  0.00    +0.000 A 
ATOM     22  C   UNL     1       1.048   3.003  21.090  0.00  0.00    +0.000 A 
ATOM     23  C   UNL     1       2.351   2.591  21.342  0.00  0.00    +0.000 A 
ATOM     24  C   UNL     1       3.239   2.371  20.287  0.00  0.00    +0.000 A 
ATOM     25 CL   UNL     1       4.851   1.899  20.699  0.00  0.00    +0.000 Cl
ENDBRANCH  18  19
ENDBRANCH  16  18
ENDBRANCH   1  16
TORSDOF 5
ENDMDL
MODEL 4
REMARK VINA RESULT:      -7.7      3.478      7.094
REMARK  Name = 
REMARK  6 active torsions:
REMARK  status: ('A' for Active; 'I' for Inactive)
REMARK    1  A    between atoms: C_1  and  C_2
REMARK    2  A    between atoms: C_4  and  C_5
REMARK    3  A    between atoms: C_8  and  S_9
REMARK    4  A    between atoms: S_9  and  N_12
REMARK    5  A    between atoms: N_12  and  C_13
REMARK    6  A    between atoms: C_13  and  C_14
REMARK                            x       y       z     vdW  Elec       q    Type
REMARK                         _______ _______ _______ _____ _____    ______ ____
ROOT
ATOM      1  S   UNL     1       4.849   5.022  17.482  0.00  0.00    +0.000 S 
ATOM      2  O   UNL     1       5.492   5.652  16.350  0.00  0.00    +0.000 OA
ATOM      3  O   UNL     1       5.605   4.417  18.555  0.00  0.00    +0.000 OA
ENDROOT
BRANCH   1   7
ATOM      4  C   UNL     1       2.002   8.124  19.312  0.00  0.00    +0.000 A 
ATOM      5  C   UNL     1       2.518   8.292  18.019  0.00  0.00    +0.000 A 
ATOM      6  C   UNL     1       3.401   7.354  17.477  0.00  0.00    +0.000 A 
ATOM      7  C   UNL     1       3.769   6.230  18.221  0.00  0.00    +0.000 A 
ATOM      8  C   UNL     1       3.245   6.041  19.504  0.00  0.00    +0.000 A 
ATOM      9  C   UNL     1       2.374   6.990  20.048  0.00  0.00    +0.000 A 
BRANCH   4  13
ATOM     10  C   UNL     1      -0.749  10.762  22.462  0.00  0.00    +0.000 C 
ATOM     11  C   UNL     1      -0.078  10.178  21.285  0.00  0.00    +0.000 A 
ATOM     12  N   UNL     1       0.847   9.240  21.229  0.00  0.00    +0.000 NA
ATOM     13  C   UNL     1       1.071   9.082  19.878  0.00  0.00    +0.000 A 
ATOM     14  C   UNL     1       0.285   9.964  19.177  0.00  0.00    +0.000 A 
ATOM     15  O   UNL     1      -0.462  10.672  20.069  0.00  0.00    +0.000 OA
ENDBRANCH   4  13
ENDBRANCH   1   7
BRANCH   1  16
ATOM     16  N   UNL     1       3.785   3.821  16.927  0.00  0.00    +0.000 NA
ATOM     17  H   UNL     1       3.941   3.618  15.939  0.00  0.00    +0.000 HD
BRANCH  16  18
ATOM     18  C   UNL     1       3.741   2.603  17.764  0.00  0.00    +0.000 C 
BRANCH  18  19
ATOM     19  C   UNL     1       2.814   2.692  18.955  0.00  0.00    +0.000 A 
ATOM     20  C   UNL     1       1.506   3.185  18.812  0.00  0.00    +0.000 A 
ATOM     21  C   UNL     1       0.678   3.351  19.929  0.00  0.00    +0.000 A 
ATOM     22  C   UNL     1       1.149   3.039  21.201  0.00  0.00    +0.000 A 
ATOM     23  C   UNL     1       2.445   2.563  21.361  0.00  0.00    +0.000 A 
ATOM     24  C   UNL     1       3.276   2.396  20.251  0.00  0.00    +0.000 A 
ATOM     25 CL   UNL     1       4.885   1.837  20.550  0.00  0.00    +0.000 Cl
ENDBRANCH  18  19
ENDBRANCH  16  18
ENDBRANCH   1  16
TORSDOF 5
ENDMDL
MODEL 5
REMARK VINA RESULT:      -7.6      3.544      7.537
REMARK  Name = 
REMARK  6 active torsions:
REMARK  status: ('A' for Active; 'I' for Inactive)
REMARK    1  A    between atoms: C_1  and  C_2
REMARK    2  A    between atoms: C_4  and  C_5
REMARK    3  A    between atoms: C_8  and  S_9
REMARK    4  A    between atoms: S_9  and  N_12
REMARK    5  A    between atoms: N_12  and  C_13
REMARK    6  A    between atoms: C_13  and  C_14
REMARK                            x       y       z     vdW  Elec       q    Type
REMARK                         _______ _______ _______ _____ _____    ______ ____
ROOT
ATOM      1  S   UNL     1       4.291   5.877  17.518  0.00  0.00    +0.000 S 
ATOM      2  O   UNL     1       4.804   6.516  16.326  0.00  0.00    +0.000 OA
ATOM      3  O   UNL     1       5.163   5.398  18.566  0.00  0.00    +0.000 OA
ENDROOT
BRANCH   1   7
ATOM      4  C   UNL     1       1.385   8.800  19.539  0.00  0.00    +0.000 A 
ATOM      5  C   UNL     1       1.818   7.641  20.199  0.00  0.00    +0.000 A 
ATOM      6  C   UNL     1       2.686   6.745  19.569  0.00  0.00    +0.000 A 
ATOM      7  C   UNL     1       3.138   7.006  18.273  0.00  0.00    +0.000 A 
ATOM      8  C   UNL     1       2.730   8.169  17.612  0.00  0.00    +0.000 A 
ATOM      9  C   UNL     1       1.849   9.055  18.241  0.00  0.00    +0.000 A 
BRANCH   4  13
ATOM     10  C   UNL     1      -1.182  11.326  22.927  0.00  0.00    +0.000 C 
ATOM     11  C   UNL     1      -0.571  10.790  21.696  0.00  0.00    +0.000 A 
ATOM     12  N   UNL     1       0.331   9.839  21.555  0.00  0.00    +0.000 NA
ATOM     13  C   UNL     1       0.498   9.746  20.190  0.00  0.00    +0.000 A 
ATOM     14  C   UNL     1      -0.296  10.679  19.567  0.00  0.00    +0.000 A 
ATOM     15  O   UNL     1      -0.991  11.354  20.523  0.00  0.00    +0.000 OA
ENDBRANCH   4  13
ENDBRANCH   1   7
BRANCH   1  16
ATOM     16  N   UNL     1       3.324   4.555  17.075  0.00  0.00    +0.000 NA
ATOM     17  H   UNL     1       3.327   4.417  16.064  0.00  0.00    +0.000 HD
BRANCH  16  18
ATOM     18  C   UNL     1       3.601   3.311  17.824  0.00  0.00    +0.000 C 
BRANCH  18  19
ATOM     19  C   UNL     1       2.747   3.117  19.058  0.00  0.00    +0.000 A 
ATOM     20  C   UNL     1       1.414   3.560  19.086  0.00  0.00    +0.000 A 
ATOM     21  C   UNL     1       0.652   3.462  20.257  0.00  0.00    +0.000 A 
ATOM     22  C   UNL     1       1.214   2.931  21.415  0.00  0.00    +0.000 A 
ATOM     23  C   UNL     1       2.535   2.500  21.406  0.00  0.00    +0.000 A 
ATOM     24  C   UNL     1       3.301   2.597  20.243  0.00  0.00    +0.000 A 
ATOM     25 CL   UNL     1       4.947   2.073  20.338  0.00  0.00    +0.000 Cl
ENDBRANCH  18  19
ENDBRANCH  16  18
ENDBRANCH   1  16
TORSDOF 5
ENDMDL
MODEL 6
REMARK VINA RESULT:      -7.6      3.077      6.910
REMARK  Name = 
REMARK  6 active torsions:
REMARK  status: ('A' for Active; 'I' for Inactive)
REMARK    1  A    between atoms: C_1  and  C_2
REMARK    2  A    between atoms: C_4  and  C_5
REMARK    3  A    between atoms: C_8  and  S_9
REMARK    4  A    between atoms: S_9  and  N_12
REMARK    5  A    between atoms: N_12  and  C_13
REMARK    6  A    between atoms: C_13  and  C_14
REMARK                            x       y       z     vdW  Elec       q    Type
REMARK                         _______ _______ _______ _____ _____    ______ ____
ROOT
ATOM      1  S   UNL     1       3.345   3.563  18.135  0.00  0.00    +0.000 S 
ATOM      2  O   UNL     1       4.366   3.042  19.018  0.00  0.00    +0.000 OA
ATOM      3  O   UNL     1       2.194   2.779  17.749  0.00  0.00    +0.000 OA
ENDROOT
BRANCH   1   7
ATOM      4  C   UNL     1       1.821   7.428  20.088  0.00  0.00    +0.000 A 
ATOM      5  C   UNL     1       1.688   6.191  20.735  0.00  0.00    +0.000 A 
ATOM      6  C   UNL     1       2.135   5.016  20.125  0.00  0.00    +0.000 A 
ATOM      7  C   UNL     1       2.731   5.069  18.862  0.00  0.00    +0.000 A 
ATOM      8  C   UNL     1       2.888   6.298  18.215  0.00  0.00    +0.000 A 
ATOM      9  C   UNL     1       2.424   7.470  18.823  0.00  0.00    +0.000 A 
BRANCH   4  13
ATOM     10  C   UNL     1       0.192  12.031  20.870  0.00  0.00    +0.000 C 
ATOM     11  C   UNL     1       0.672  10.640  20.982  0.00  0.00    +0.000 A 
ATOM     12  N   UNL     1       0.942   9.769  20.031  0.00  0.00    +0.000 NA
ATOM     13  C   UNL     1       1.376   8.657  20.719  0.00  0.00    +0.000 A 
ATOM     14  C   UNL     1       1.316   8.901  22.070  0.00  0.00    +0.000 A 
ATOM     15  O   UNL     1       0.869  10.174  22.253  0.00  0.00    +0.000 OA
ENDBRANCH   4  13
ENDBRANCH   1   7
BRANCH   1  16
ATOM     16  N   UNL     1       4.065   4.081  16.688  0.00  0.00    +0.000 NA
ATOM     17  H   UNL     1       3.804   5.043  16.470  0.00  0.00    +0.000 HD
BRANCH  16  18
ATOM     18  C   UNL     1       5.523   3.848  16.608  0.00  0.00    +0.000 C 
BRANCH  18  19
ATOM     19  C   UNL     1       6.370   4.972  17.160  0.00  0.00    +0.000 A 
ATOM     20  C   UNL     1       7.219   4.759  18.260  0.00  0.00    +0.000 A 
ATOM     21  C   UNL     1       7.935   5.819  18.828  0.00  0.00    +0.000 A 
ATOM     22  C   UNL     1       7.804   7.106  18.313  0.00  0.00    +0.000 A 
ATOM     23  C   UNL     1       6.959   7.336  17.234  0.00  0.00    +0.000 A 
ATOM     24  C   UNL     1       6.241   6.283  16.664  0.00  0.00    +0.000 A 
ATOM     25 CL   UNL     1       5.184   6.671  15.351  0.00  0.00    +0.000 Cl
ENDBRANCH  18  19
ENDBRANCH  16  18
ENDBRANCH   1  16
TORSDOF 5
ENDMDL
MODEL 7
REMARK VINA RESULT:      -7.6      1.110      1.519
REMARK  Name = 
REMARK  6 active torsions:
REMARK  status: ('A' for Active; 'I' for Inactive)
REMARK    1  A    between atoms: C_1  and  C_2
REMARK    2  A    between atoms: C_4  and  C_5
REMARK    3  A    between atoms: C_8  and  S_9
REMARK    4  A    between atoms: S_9  and  N_12
REMARK    5  A    between atoms: N_12  and  C_13
REMARK    6  A    between atoms: C_13  and  C_14
REMARK                            x       y       z     vdW  Elec       q    Type
REMARK                         _______ _______ _______ _____ _____    ______ ____
ROOT
ATOM      1  S   UNL     1       1.796   3.461  20.359  0.00  0.00    +0.000 S 
ATOM      2  O   UNL     1       0.725   2.647  19.828  0.00  0.00    +0.000 OA
ATOM      3  O   UNL     1       2.524   3.087  21.551  0.00  0.00    +0.000 OA
ENDROOT
BRANCH   1   7
ATOM      4  C   UNL     1       4.834   4.083  16.973  0.00  0.00    +0.000 A 
ATOM      5  C   UNL     1       3.495   3.771  16.694  0.00  0.00    +0.000 A 
ATOM      6  C   UNL     1       2.581   3.562  17.730  0.00  0.00    +0.000 A 
ATOM      7  C   UNL     1       2.996   3.674  19.060  0.00  0.00    +0.000 A 
ATOM      8  C   UNL     1       4.323   4.004  19.351  0.00  0.00    +0.000 A 
ATOM      9  C   UNL     1       5.238   4.197  18.310  0.00  0.00    +0.000 A 
BRANCH   4  13
ATOM     10  C   UNL     1       7.053   4.253  12.558  0.00  0.00    +0.000 C 
ATOM     11  C   UNL     1       6.679   4.362  13.981  0.00  0.00    +0.000 A 
ATOM     12  N   UNL     1       5.557   4.015  14.581  0.00  0.00    +0.000 NA
ATOM     13  C   UNL     1       5.787   4.319  15.905  0.00  0.00    +0.000 A 
ATOM     14  C   UNL     1       7.038   4.871  16.039  0.00  0.00    +0.000 A 
ATOM     15  O   UNL     1       7.624   4.901  14.811  0.00  0.00    +0.000 OA
ENDBRANCH   4  13
ENDBRANCH   1   7
BRANCH   1  16
ATOM     16  N   UNL     1       1.223   5.034  20.636  0.00  0.00    +0.000 NA
ATOM     17  H   UNL     1       0.616   5.067  21.456  0.00  0.00    +0.000 HD
BRANCH  16  18
ATOM     18  C   UNL     1       2.271   6.077  20.654  0.00  0.00    +0.000 C 
BRANCH  18  19
ATOM     19  C   UNL     1       1.784   7.463  20.296  0.00  0.00    +0.000 A 
ATOM     20  C   UNL     1       0.953   8.182  21.172  0.00  0.00    +0.000 A 
ATOM     21  C   UNL     1       0.430   9.426  20.803  0.00  0.00    +0.000 A 
ATOM     22  C   UNL     1       0.720   9.964  19.552  0.00  0.00    +0.000 A 
ATOM     23  C   UNL     1       1.530   9.260  18.669  0.00  0.00    +0.000 A 
ATOM     24  C   UNL     1       2.054   8.017  19.031  0.00  0.00    +0.000 A 
ATOM     25 CL   UNL     1       3.018   7.196  17.852  0.00  0.00    +0.000 Cl
ENDBRANCH  18  19
ENDBRANCH  16  18
ENDBRANCH   1  16
TORSDOF 5
ENDMDL
MODEL 8
REMARK VINA RESULT:      -7.6      1.356      1.922
REMARK  Name = 
REMARK  6 active torsions:
REMARK  status: ('A' for Active; 'I' for Inactive)
REMARK    1  A    between atoms: C_1  and  C_2
REMARK    2  A    between atoms: C_4  and  C_5
REMARK    3  A    between atoms: C_8  and  S_9
REMARK    4  A    between atoms: S_9  and  N_12
REMARK    5  A    between atoms: N_12  and  C_13
REMARK    6  A    between atoms: C_13  and  C_14
REMARK                            x       y       z     vdW  Elec       q    Type
REMARK                         _______ _______ _______ _____ _____    ______ ____
ROOT
ATOM      1  S   UNL     1       1.934   4.501  20.707  0.00  0.00    +0.000 S 
ATOM      2  O   UNL     1       0.621   4.195  20.183  0.00  0.00    +0.000 OA
ATOM      3  O   UNL     1       2.529   3.737  21.780  0.00  0.00    +0.000 OA
ENDROOT
BRANCH   1   7
ATOM      4  C   UNL     1       4.815   4.444  17.133  0.00  0.00    +0.000 A 
ATOM      5  C   UNL     1       3.490   4.005  16.999  0.00  0.00    +0.000 A 
ATOM      6  C   UNL     1       2.625   4.005  18.097  0.00  0.00    +0.000 A 
ATOM      7  C   UNL     1       3.076   4.456  19.340  0.00  0.00    +0.000 A 
ATOM      8  C   UNL     1       4.389   4.915  19.482  0.00  0.00    +0.000 A 
ATOM      9  C   UNL     1       5.256   4.898  18.384  0.00  0.00    +0.000 A 
BRANCH   4  13
ATOM     10  C   UNL     1       6.732   3.972  12.600  0.00  0.00    +0.000 C 
ATOM     11  C   UNL     1       6.473   4.239  14.028  0.00  0.00    +0.000 A 
ATOM     12  N   UNL     1       5.359   4.097  14.717  0.00  0.00    +0.000 NA
ATOM     13  C   UNL     1       5.717   4.464  15.996  0.00  0.00    +0.000 A 
ATOM     14  C   UNL     1       7.037   4.844  16.011  0.00  0.00    +0.000 A 
ATOM     15  O   UNL     1       7.537   4.700  14.754  0.00  0.00    +0.000 OA
ENDBRANCH   4  13
ENDBRANCH   1   7
BRANCH   1  16
ATOM     16  N   UNL     1       1.975   6.122  21.210  0.00  0.00    +0.000 NA
ATOM     17  H   UNL     1       2.746   6.288  21.857  0.00  0.00    +0.000 HD
BRANCH  16  18
ATOM     18  C   UNL     1       1.925   7.108  20.109  0.00  0.00    +0.000 C 
BRANCH  18  19
ATOM     19  C   UNL     1       1.323   8.443  20.489  0.00  0.00    +0.000 A 
ATOM     20  C   UNL     1       0.873   8.682  21.798  0.00  0.00    +0.000 A 
ATOM     21  C   UNL     1       0.235   9.884  22.127  0.00  0.00    +0.000 A 
ATOM     22  C   UNL     1       0.028  10.856  21.152  0.00  0.00    +0.000 A 
ATOM     23  C   UNL     1       0.455  10.629  19.849  0.00  0.00    +0.000 A 
ATOM     24  C   UNL     1       1.092   9.432  19.514  0.00  0.00    +0.000 A 
ATOM     25 CL   UNL     1       1.552   9.221  17.860  0.00  0.00    +0.000 Cl
ENDBRANCH  18  19
ENDBRANCH  16  18
ENDBRANCH   1  16
TORSDOF 5
ENDMDL
MODEL 9
REMARK VINA RESULT:      -7.5      3.099      6.771
REMARK  Name = 
REMARK  6 active torsions:
REMARK  status: ('A' for Active; 'I' for Inactive)
REMARK    1  A    between atoms: C_1  and  C_2
REMARK    2  A    between atoms: C_4  and  C_5
REMARK    3  A    between atoms: C_8  and  S_9
REMARK    4  A    between atoms: S_9  and  N_12
REMARK    5  A    between atoms: N_12  and  C_13
REMARK    6  A    between atoms: C_13  and  C_14
REMARK                            x       y       z     vdW  Elec       q    Type
REMARK                         _______ _______ _______ _____ _____    ______ ____
ROOT
ATOM      1  S   UNL     1       2.531   3.009  18.462  0.00  0.00    +0.000 S 
ATOM      2  O   UNL     1       2.095   2.032  19.434  0.00  0.00    +0.000 OA
ATOM      3  O   UNL     1       2.017   3.029  17.111  0.00  0.00    +0.000 OA
ENDROOT
BRANCH   1   7
ATOM      4  C   UNL     1       1.694   7.183  20.181  0.00  0.00    +0.000 A 
ATOM      5  C   UNL     1       2.190   7.025  18.879  0.00  0.00    +0.000 A 
ATOM      6  C   UNL     1       2.462   5.752  18.370  0.00  0.00    +0.000 A 
ATOM      7  C   UNL     1       2.231   4.622  19.158  0.00  0.00    +0.000 A 
ATOM      8  C   UNL     1       1.718   4.765  20.450  0.00  0.00    +0.000 A 
ATOM      9  C   UNL     1       1.461   6.042  20.961  0.00  0.00    +0.000 A 
BRANCH   4  13
ATOM     10  C   UNL     1       0.545  11.974  20.596  0.00  0.00    +0.000 C 
ATOM     11  C   UNL     1       0.891  10.557  20.818  0.00  0.00    +0.000 A 
ATOM     12  N   UNL     1       1.045   9.586  19.940  0.00  0.00    +0.000 NA
ATOM     13  C   UNL     1       1.391   8.499  20.713  0.00  0.00    +0.000 A 
ATOM     14  C   UNL     1       1.399   8.862  22.038  0.00  0.00    +0.000 A 
ATOM     15  O   UNL     1       1.083  10.183  22.120  0.00  0.00    +0.000 OA
ENDBRANCH   4  13
ENDBRANCH   1   7
BRANCH   1  16
ATOM     16  N   UNL     1       4.221   2.943  18.318  0.00  0.00    +0.000 NA
ATOM     17  H   UNL     1       4.556   1.980  18.336  0.00  0.00    +0.000 HD
BRANCH  16  18
ATOM     18  C   UNL     1       4.773   3.722  17.189  0.00  0.00    +0.000 C 
BRANCH  18  19
ATOM     19  C   UNL     1       5.855   4.707  17.574  0.00  0.00    +0.000 A 
ATOM     20  C   UNL     1       6.343   4.759  18.891  0.00  0.00    +0.000 A 
ATOM     21  C   UNL     1       7.279   5.729  19.269  0.00  0.00    +0.000 A 
ATOM     22  C   UNL     1       7.730   6.665  18.342  0.00  0.00    +0.000 A 
ATOM     23  C   UNL     1       7.246   6.635  17.039  0.00  0.00    +0.000 A 
ATOM     24  C   UNL     1       6.312   5.671  16.656  0.00  0.00    +0.000 A 
ATOM     25 CL   UNL     1       5.737   5.736  15.026  0.00  0.00    +0.000 Cl
ENDBRANCH  18  19
ENDBRANCH  16  18
ENDBRANCH   1  16
TORSDOF 5
ENDMDL
