MODEL 1
REMARK VINA RESULT:      -8.8      0.000      0.000
REMARK  Name = 
REMARK  7 active torsions:
REMARK  status: ('A' for Active; 'I' for Inactive)
REMARK    1  A    between atoms: C_1  and  C_2
REMARK    2  A    between atoms: C_2  and  N_3
REMARK    3  A    between atoms: N_3  and  C_26
REMARK    4  A    between atoms: C_4  and  C_6
REMARK    5  A    between atoms: N_10  and  S_11
REMARK    6  A    between atoms: S_11  and  C_14
REMARK    7  A    between atoms: C_30  and  C_31
REMARK                            x       y       z     vdW  Elec       q    Type
REMARK                         _______ _______ _______ _____ _____    ______ ____
ROOT
ATOM      1  C   UNL     1       2.359   6.523  18.705  0.00  0.00    +0.000 C 
ATOM      2  C   UNL     1       2.552   6.224  20.195  0.00  0.00    +0.000 C 
ATOM      3  C   UNL     1       1.407   6.816  21.034  0.00  0.00    +0.000 C 
ATOM      4  C   UNL     1       1.305   8.324  20.869  0.00  0.00    +0.000 C 
ATOM      5  N   UNL     1       1.076   8.658  19.440  0.00  0.00    +0.000 NA
ATOM      6  C   UNL     1       2.120   8.063  18.542  0.00  0.00    +0.000 C 
ENDROOT
BRANCH   1   8
ATOM      7  N   UNL     1       3.926   4.916  17.314  0.00  0.00    +0.000 N 
ATOM      8  C   UNL     1       3.524   6.203  17.702  0.00  0.00    +0.000 C 
ATOM      9  O   UNL     1       4.023   7.199  17.152  0.00  0.00    +0.000 OA
BRANCH   7  10
ATOM     10  C   UNL     1       5.050   4.810  16.375  0.00  0.00    +0.000 A 
ATOM     11  C   UNL     1       6.348   5.170  16.774  0.00  0.00    +0.000 A 
ATOM     12  C   UNL     1       7.435   5.109  15.897  0.00  0.00    +0.000 A 
ATOM     13  C   UNL     1       7.258   4.639  14.602  0.00  0.00    +0.000 A 
ATOM     14  C   UNL     1       5.994   4.231  14.175  0.00  0.00    +0.000 A 
ATOM     15  C   UNL     1       5.810   3.682  12.789  0.00  0.00    +0.000 C 
ATOM     16  C   UNL     1       4.898   4.338  15.056  0.00  0.00    +0.000 A 
ENDBRANCH   7  10
BRANCH   7  18
ATOM     17  C   UNL     1       3.872   2.741  18.596  0.00  0.00    +0.000 C 
ATOM     18  C   UNL     1       3.183   3.670  17.587  0.00  0.00    +0.000 C 
ENDBRANCH   7  18
ENDBRANCH   1   8
BRANCH   5  19
ATOM     19  S   UNL     1       0.920  10.374  19.170  0.00  0.00    +0.000 S 
ATOM     20  O   UNL     1       0.984  11.043  20.454  0.00  0.00    +0.000 OA
ATOM     21  O   UNL     1       1.787  10.763  18.078  0.00  0.00    +0.000 OA
BRANCH  19  22
ATOM     22  C   UNL     1      -0.739  10.541  18.551  0.00  0.00    +0.000 A 
ATOM     23  C   UNL     1      -1.078   9.849  17.384  0.00  0.00    +0.000 A 
ATOM     24  C   UNL     1      -2.345  10.013  16.827  0.00  0.00    +0.000 A 
ATOM     25  C   UNL     1      -3.264  10.871  17.428  0.00  0.00    +0.000 A 
ATOM     26  C   UNL     1      -2.918  11.564  18.595  0.00  0.00    +0.000 A 
ATOM     27  C   UNL     1      -1.647  11.416  19.156  0.00  0.00    +0.000 A 
ATOM     28  N   UNL     1      -3.865  12.370  19.230  0.00  0.00    +0.000 N 
ATOM     29  C   UNL     1      -5.113  12.561  18.700  0.00  0.00    +0.000 C 
ATOM     30  O   UNL     1      -5.983  13.179  19.307  0.00  0.00    +0.000 OA
ATOM     31  C   UNL     1      -5.295  12.030  17.279  0.00  0.00    +0.000 C 
ATOM     32  O   UNL     1      -4.499  10.938  16.845  0.00  0.00    +0.000 OA
ATOM     33  H   UNL     1      -3.682  12.788  20.132  0.00  0.00    +0.000 HD
ENDBRANCH  19  22
ENDBRANCH   5  19
TORSDOF 5
ENDMDL
MODEL 2
REMARK VINA RESULT:      -8.5      1.163      1.833
REMARK  Name = 
REMARK  7 active torsions:
REMARK  status: ('A' for Active; 'I' for Inactive)
REMARK    1  A    between atoms: C_1  and  C_2
REMARK    2  A    between atoms: C_2  and  N_3
REMARK    3  A    between atoms: N_3  and  C_26
REMARK    4  A    between atoms: C_4  and  C_6
REMARK    5  A    between atoms: N_10  and  S_11
REMARK    6  A    between atoms: S_11  and  C_14
REMARK    7  A    between atoms: C_30  and  C_31
REMARK                            x       y       z     vdW  Elec       q    Type
REMARK                         _______ _______ _______ _____ _____    ______ ____
ROOT
ATOM      1  C   UNL     1       2.185   6.590  18.937  0.00  0.00    +0.000 C 
ATOM      2  C   UNL     1       2.224   6.129  20.399  0.00  0.00    +0.000 C 
ATOM      3  C   UNL     1       1.089   6.771  21.213  0.00  0.00    +0.000 C 
ATOM      4  C   UNL     1       1.168   8.290  21.199  0.00  0.00    +0.000 C 
ATOM      5  N   UNL     1       1.093   8.782  19.800  0.00  0.00    +0.000 NA
ATOM      6  C   UNL     1       2.134   8.156  18.918  0.00  0.00    +0.000 C 
ENDROOT
BRANCH   1   8
ATOM      7  N   UNL     1       3.832   4.929  17.710  0.00  0.00    +0.000 N 
ATOM      8  C   UNL     1       3.384   6.230  17.989  0.00  0.00    +0.000 C 
ATOM      9  O   UNL     1       3.868   7.196  17.377  0.00  0.00    +0.000 OA
BRANCH   7  10
ATOM     10  C   UNL     1       4.981   4.787  16.808  0.00  0.00    +0.000 A 
ATOM     11  C   UNL     1       6.287   5.019  17.274  0.00  0.00    +0.000 A 
ATOM     12  C   UNL     1       7.400   4.921  16.436  0.00  0.00    +0.000 A 
ATOM     13  C   UNL     1       7.241   4.539  15.110  0.00  0.00    +0.000 A 
ATOM     14  C   UNL     1       5.967   4.258  14.613  0.00  0.00    +0.000 A 
ATOM     15  C   UNL     1       5.798   3.804  13.192  0.00  0.00    +0.000 C 
ATOM     16  C   UNL     1       4.847   4.403  15.458  0.00  0.00    +0.000 A 
ENDBRANCH   7  10
BRANCH   7  18
ATOM     17  C   UNL     1       3.766   2.895  19.204  0.00  0.00    +0.000 C 
ATOM     18  C   UNL     1       3.117   3.686  18.060  0.00  0.00    +0.000 C 
ENDBRANCH   7  18
ENDBRANCH   1   8
BRANCH   5  19
ATOM     19  S   UNL     1       1.151  10.523  19.698  0.00  0.00    +0.000 S 
ATOM     20  O   UNL     1       1.170  11.056  21.045  0.00  0.00    +0.000 OA
ATOM     21  O   UNL     1       2.153  10.907  18.726  0.00  0.00    +0.000 OA
BRANCH  19  22
ATOM     22  C   UNL     1      -0.415  10.942  18.968  0.00  0.00    +0.000 A 
ATOM     23  C   UNL     1      -1.310  11.707  19.724  0.00  0.00    +0.000 A 
ATOM     24  C   UNL     1      -2.576  11.992  19.215  0.00  0.00    +0.000 A 
ATOM     25  C   UNL     1      -2.949  11.506  17.963  0.00  0.00    +0.000 A 
ATOM     26  C   UNL     1      -2.050  10.737  17.212  0.00  0.00    +0.000 A 
ATOM     27  C   UNL     1      -0.783  10.436  17.716  0.00  0.00    +0.000 A 
ATOM     28  N   UNL     1      -2.405  10.311  15.931  0.00  0.00    +0.000 N 
ATOM     29  C   UNL     1      -3.645  10.564  15.410  0.00  0.00    +0.000 C 
ATOM     30  O   UNL     1      -3.924  10.287  14.247  0.00  0.00    +0.000 OA
ATOM     31  C   UNL     1      -4.659  11.123  16.407  0.00  0.00    +0.000 C 
ATOM     32  O   UNL     1      -4.189  11.871  17.519  0.00  0.00    +0.000 OA
ATOM     33  H   UNL     1      -1.737   9.856  15.323  0.00  0.00    +0.000 HD
ENDBRANCH  19  22
ENDBRANCH   5  19
TORSDOF 5
ENDMDL
MODEL 3
REMARK VINA RESULT:      -8.4      2.058      2.986
REMARK  Name = 
REMARK  7 active torsions:
REMARK  status: ('A' for Active; 'I' for Inactive)
REMARK    1  A    between atoms: C_1  and  C_2
REMARK    2  A    between atoms: C_2  and  N_3
REMARK    3  A    between atoms: N_3  and  C_26
REMARK    4  A    between atoms: C_4  and  C_6
REMARK    5  A    between atoms: N_10  and  S_11
REMARK    6  A    between atoms: S_11  and  C_14
REMARK    7  A    between atoms: C_30  and  C_31
REMARK                            x       y       z     vdW  Elec       q    Type
REMARK                         _______ _______ _______ _____ _____    ______ ____
ROOT
ATOM      1  C   UNL     1       0.988   8.170  20.734  0.00  0.00    +0.000 C 
ATOM      2  C   UNL     1       1.402   8.628  22.136  0.00  0.00    +0.000 C 
ATOM      3  C   UNL     1       0.349   9.568  22.747  0.00  0.00    +0.000 C 
ATOM      4  C   UNL     1       0.132  10.808  21.894  0.00  0.00    +0.000 C 
ATOM      5  N   UNL     1      -0.310  10.410  20.533  0.00  0.00    +0.000 NA
ATOM      6  C   UNL     1       0.635   9.440  19.887  0.00  0.00    +0.000 C 
ENDROOT
BRANCH   1   8
ATOM      7  N   UNL     1       2.276   6.010  19.926  0.00  0.00    +0.000 N 
ATOM      8  C   UNL     1       2.022   7.388  19.847  0.00  0.00    +0.000 C 
ATOM      9  O   UNL     1       2.549   8.064  18.948  0.00  0.00    +0.000 OA
BRANCH   7  10
ATOM     10  C   UNL     1       3.293   5.455  19.024  0.00  0.00    +0.000 A 
ATOM     11  C   UNL     1       2.914   4.737  17.878  0.00  0.00    +0.000 A 
ATOM     12  C   UNL     1       3.855   4.171  17.014  0.00  0.00    +0.000 A 
ATOM     13  C   UNL     1       5.212   4.351  17.250  0.00  0.00    +0.000 A 
ATOM     14  C   UNL     1       5.635   5.094  18.354  0.00  0.00    +0.000 A 
ATOM     15  C   UNL     1       7.100   5.326  18.586  0.00  0.00    +0.000 C 
ATOM     16  C   UNL     1       4.676   5.623  19.241  0.00  0.00    +0.000 A 
ENDBRANCH   7  10
BRANCH   7  18
ATOM     17  C   UNL     1       2.282   3.975  21.420  0.00  0.00    +0.000 C 
ATOM     18  C   UNL     1       1.459   5.033  20.672  0.00  0.00    +0.000 C 
ENDBRANCH   7  18
ENDBRANCH   1   8
BRANCH   5  19
ATOM     19  S   UNL     1      -0.607  11.781  19.497  0.00  0.00    +0.000 S 
ATOM     20  O   UNL     1      -0.486  12.986  20.293  0.00  0.00    +0.000 OA
ATOM     21  O   UNL     1       0.139  11.617  18.268  0.00  0.00    +0.000 OA
BRANCH  19  22
ATOM     22  C   UNL     1      -2.318  11.593  19.052  0.00  0.00    +0.000 A 
ATOM     23  C   UNL     1      -2.633  10.720  18.005  0.00  0.00    +0.000 A 
ATOM     24  C   UNL     1      -3.955  10.603  17.578  0.00  0.00    +0.000 A 
ATOM     25  C   UNL     1      -4.954  11.361  18.186  0.00  0.00    +0.000 A 
ATOM     26  C   UNL     1      -4.632  12.236  19.231  0.00  0.00    +0.000 A 
ATOM     27  C   UNL     1      -3.310  12.371  19.661  0.00  0.00    +0.000 A 
ATOM     28  N   UNL     1      -5.646  12.943  19.881  0.00  0.00    +0.000 N 
ATOM     29  C   UNL     1      -6.950  12.857  19.476  0.00  0.00    +0.000 C 
ATOM     30  O   UNL     1      -7.858  13.390  20.109  0.00  0.00    +0.000 OA
ATOM     31  C   UNL     1      -7.164  12.138  18.145  0.00  0.00    +0.000 C 
ATOM     32  O   UNL     1      -6.228  11.150  17.739  0.00  0.00    +0.000 OA
ATOM     33  H   UNL     1      -5.459  13.490  20.711  0.00  0.00    +0.000 HD
ENDBRANCH  19  22
ENDBRANCH   5  19
TORSDOF 5
ENDMDL
MODEL 4
REMARK VINA RESULT:      -8.2      2.692     10.154
REMARK  Name = 
REMARK  7 active torsions:
REMARK  status: ('A' for Active; 'I' for Inactive)
REMARK    1  A    between atoms: C_1  and  C_2
REMARK    2  A    between atoms: C_2  and  N_3
REMARK    3  A    between atoms: N_3  and  C_26
REMARK    4  A    between atoms: C_4  and  C_6
REMARK    5  A    between atoms: N_10  and  S_11
REMARK    6  A    between atoms: S_11  and  C_14
REMARK    7  A    between atoms: C_30  and  C_31
REMARK                            x       y       z     vdW  Elec       q    Type
REMARK                         _______ _______ _______ _____ _____    ______ ____
ROOT
ATOM      1  C   UNL     1      -1.130  11.871  18.712  0.00  0.00    +0.000 C 
ATOM      2  C   UNL     1      -0.219  13.062  19.029  0.00  0.00    +0.000 C 
ATOM      3  C   UNL     1       1.254  12.627  19.113  0.00  0.00    +0.000 C 
ATOM      4  C   UNL     1       1.474  11.572  20.186  0.00  0.00    +0.000 C 
ATOM      5  N   UNL     1       0.638  10.380  19.895  0.00  0.00    +0.000 NA
ATOM      6  C   UNL     1      -0.814  10.726  19.735  0.00  0.00    +0.000 C 
ENDROOT
BRANCH   1   8
ATOM      7  N   UNL     1      -3.624  11.425  17.965  0.00  0.00    +0.000 N 
ATOM      8  C   UNL     1      -2.687  12.052  18.802  0.00  0.00    +0.000 C 
ATOM      9  O   UNL     1      -3.075  12.722  19.774  0.00  0.00    +0.000 OA
BRANCH   7  10
ATOM     10  C   UNL     1      -5.042  11.728  18.189  0.00  0.00    +0.000 A 
ATOM     11  C   UNL     1      -5.738  12.574  17.310  0.00  0.00    +0.000 A 
ATOM     12  C   UNL     1      -7.081  12.906  17.510  0.00  0.00    +0.000 A 
ATOM     13  C   UNL     1      -7.781  12.359  18.577  0.00  0.00    +0.000 A 
ATOM     14  C   UNL     1      -7.142  11.480  19.453  0.00  0.00    +0.000 A 
ATOM     15  C   UNL     1      -7.909  10.854  20.582  0.00  0.00    +0.000 C 
ATOM     16  C   UNL     1      -5.775  11.187  19.265  0.00  0.00    +0.000 A 
ENDBRANCH   7  10
BRANCH   7  18
ATOM     17  C   UNL     1      -3.153  10.770  15.573  0.00  0.00    +0.000 C 
ATOM     18  C   UNL     1      -3.329  10.322  17.030  0.00  0.00    +0.000 C 
ENDBRANCH   7  18
ENDBRANCH   1   8
BRANCH   5  19
ATOM     19  S   UNL     1       0.853   9.108  21.068  0.00  0.00    +0.000 S 
ATOM     20  O   UNL     1       1.745   9.591  22.103  0.00  0.00    +0.000 OA
ATOM     21  O   UNL     1      -0.438   8.542  21.396  0.00  0.00    +0.000 OA
BRANCH  19  22
ATOM     22  C   UNL     1       1.714   7.849  20.153  0.00  0.00    +0.000 A 
ATOM     23  C   UNL     1       2.095   8.137  18.838  0.00  0.00    +0.000 A 
ATOM     24  C   UNL     1       2.705   7.150  18.065  0.00  0.00    +0.000 A 
ATOM     25  C   UNL     1       2.922   5.881  18.599  0.00  0.00    +0.000 A 
ATOM     26  C   UNL     1       2.535   5.598  19.915  0.00  0.00    +0.000 A 
ATOM     27  C   UNL     1       1.914   6.575  20.696  0.00  0.00    +0.000 A 
ATOM     28  N   UNL     1       2.816   4.347  20.466  0.00  0.00    +0.000 N 
ATOM     29  C   UNL     1       3.402   3.354  19.727  0.00  0.00    +0.000 C 
ATOM     30  O   UNL     1       3.749   2.292  20.236  0.00  0.00    +0.000 OA
ATOM     31  C   UNL     1       3.499   3.640  18.230  0.00  0.00    +0.000 C 
ATOM     32  O   UNL     1       3.568   4.989  17.789  0.00  0.00    +0.000 OA
ATOM     33  H   UNL     1       2.654   4.153  21.445  0.00  0.00    +0.000 HD
ENDBRANCH  19  22
ENDBRANCH   5  19
TORSDOF 5
ENDMDL
MODEL 5
REMARK VINA RESULT:      -8.2      2.205     10.044
REMARK  Name = 
REMARK  7 active torsions:
REMARK  status: ('A' for Active; 'I' for Inactive)
REMARK    1  A    between atoms: C_1  and  C_2
REMARK    2  A    between atoms: C_2  and  N_3
REMARK    3  A    between atoms: N_3  and  C_26
REMARK    4  A    between atoms: C_4  and  C_6
REMARK    5  A    between atoms: N_10  and  S_11
REMARK    6  A    between atoms: S_11  and  C_14
REMARK    7  A    between atoms: C_30  and  C_31
REMARK                            x       y       z     vdW  Elec       q    Type
REMARK                         _______ _______ _______ _____ _____    ______ ____
ROOT
ATOM      1  C   UNL     1      -0.943  11.451  18.550  0.00  0.00    +0.000 C 
ATOM      2  C   UNL     1       0.063  12.590  18.750  0.00  0.00    +0.000 C 
ATOM      3  C   UNL     1       1.500  12.052  18.848  0.00  0.00    +0.000 C 
ATOM      4  C   UNL     1       1.663  11.076  20.003  0.00  0.00    +0.000 C 
ATOM      5  N   UNL     1       0.732   9.932  19.828  0.00  0.00    +0.000 NA
ATOM      6  C   UNL     1      -0.692  10.376  19.663  0.00  0.00    +0.000 C 
ENDROOT
BRANCH   1   8
ATOM      7  N   UNL     1      -3.475  11.172  17.853  0.00  0.00    +0.000 N 
ATOM      8  C   UNL     1      -2.479  11.759  18.650  0.00  0.00    +0.000 C 
ATOM      9  O   UNL     1      -2.800  12.501  19.593  0.00  0.00    +0.000 OA
BRANCH   7  10
ATOM     10  C   UNL     1      -4.862  11.596  18.078  0.00  0.00    +0.000 A 
ATOM     11  C   UNL     1      -5.567  12.287  17.079  0.00  0.00    +0.000 A 
ATOM     12  C   UNL     1      -6.878  12.731  17.272  0.00  0.00    +0.000 A 
ATOM     13  C   UNL     1      -7.540  12.451  18.460  0.00  0.00    +0.000 A 
ATOM     14  C   UNL     1      -6.893  11.731  19.466  0.00  0.00    +0.000 A 
ATOM     15  C   UNL     1      -7.621  11.390  20.734  0.00  0.00    +0.000 C 
ATOM     16  C   UNL     1      -5.555  11.326  19.276  0.00  0.00    +0.000 A 
ENDBRANCH   7  10
BRANCH   7  18
ATOM     17  C   UNL     1      -2.735  10.364  15.578  0.00  0.00    +0.000 C 
ATOM     18  C   UNL     1      -3.282  10.007  16.967  0.00  0.00    +0.000 C 
ENDBRANCH   7  18
ENDBRANCH   1   8
BRANCH   5  19
ATOM     19  S   UNL     1       0.877   8.750  21.103  0.00  0.00    +0.000 S 
ATOM     20  O   UNL     1       1.803   9.261  22.093  0.00  0.00    +0.000 OA
ATOM     21  O   UNL     1      -0.445   8.294  21.478  0.00  0.00    +0.000 OA
BRANCH  19  22
ATOM     22  C   UNL     1       1.652   7.370  20.293  0.00  0.00    +0.000 A 
ATOM     23  C   UNL     1       1.464   6.096  20.840  0.00  0.00    +0.000 A 
ATOM     24  C   UNL     1       2.116   5.000  20.277  0.00  0.00    +0.000 A 
ATOM     25  C   UNL     1       2.958   5.178  19.181  0.00  0.00    +0.000 A 
ATOM     26  C   UNL     1       3.144   6.456  18.640  0.00  0.00    +0.000 A 
ATOM     27  C   UNL     1       2.506   7.563  19.201  0.00  0.00    +0.000 A 
ATOM     28  N   UNL     1       3.936   6.617  17.501  0.00  0.00    +0.000 N 
ATOM     29  C   UNL     1       4.598   5.562  16.934  0.00  0.00    +0.000 C 
ATOM     30  O   UNL     1       5.206   5.677  15.873  0.00  0.00    +0.000 OA
ATOM     31  C   UNL     1       4.595   4.280  17.765  0.00  0.00    +0.000 C 
ATOM     32  O   UNL     1       3.519   4.044  18.662  0.00  0.00    +0.000 OA
ATOM     33  H   UNL     1       3.995   7.506  17.021  0.00  0.00    +0.000 HD
ENDBRANCH  19  22
ENDBRANCH   5  19
TORSDOF 5
ENDMDL
MODEL 6
REMARK VINA RESULT:      -8.2      3.295      5.226
REMARK  Name = 
REMARK  7 active torsions:
REMARK  status: ('A' for Active; 'I' for Inactive)
REMARK    1  A    between atoms: C_1  and  C_2
REMARK    2  A    between atoms: C_2  and  N_3
REMARK    3  A    between atoms: N_3  and  C_26
REMARK    4  A    between atoms: C_4  and  C_6
REMARK    5  A    between atoms: N_10  and  S_11
REMARK    6  A    between atoms: S_11  and  C_14
REMARK    7  A    between atoms: C_30  and  C_31
REMARK                            x       y       z     vdW  Elec       q    Type
REMARK                         _______ _______ _______ _____ _____    ______ ____
ROOT
ATOM      1  C   UNL     1       1.126   8.114  20.640  0.00  0.00    +0.000 C 
ATOM      2  C   UNL     1       1.603   8.808  21.920  0.00  0.00    +0.000 C 
ATOM      3  C   UNL     1       0.488   9.672  22.532  0.00  0.00    +0.000 C 
ATOM      4  C   UNL     1       0.010  10.747  21.568  0.00  0.00    +0.000 C 
ATOM      5  N   UNL     1      -0.500  10.114  20.325  0.00  0.00    +0.000 NA
ATOM      6  C   UNL     1       0.510   9.201  19.694  0.00  0.00    +0.000 C 
ENDROOT
BRANCH   1   8
ATOM      7  N   UNL     1       2.636   6.058  19.956  0.00  0.00    +0.000 N 
ATOM      8  C   UNL     1       2.171   7.365  19.739  0.00  0.00    +0.000 C 
ATOM      9  O   UNL     1       2.498   7.974  18.708  0.00  0.00    +0.000 OA
BRANCH   7  10
ATOM     10  C   UNL     1       3.630   5.527  19.015  0.00  0.00    +0.000 A 
ATOM     11  C   UNL     1       3.221   4.884  17.834  0.00  0.00    +0.000 A 
ATOM     12  C   UNL     1       4.139   4.342  16.931  0.00  0.00    +0.000 A 
ATOM     13  C   UNL     1       5.502   4.471  17.163  0.00  0.00    +0.000 A 
ATOM     14  C   UNL     1       5.955   5.138  18.303  0.00  0.00    +0.000 A 
ATOM     15  C   UNL     1       7.428   5.316  18.533  0.00  0.00    +0.000 C 
ATOM     16  C   UNL     1       5.018   5.643  19.228  0.00  0.00    +0.000 A 
ENDBRANCH   7  10
BRANCH   7  18
ATOM     17  C   UNL     1       0.968   4.194  20.301  0.00  0.00    +0.000 C 
ATOM     18  C   UNL     1       2.055   5.092  20.909  0.00  0.00    +0.000 C 
ENDBRANCH   7  18
ENDBRANCH   1   8
BRANCH   5  19
ATOM     19  S   UNL     1      -1.095  11.282  19.174  0.00  0.00    +0.000 S 
ATOM     20  O   UNL     1      -0.989  10.707  17.848  0.00  0.00    +0.000 OA
ATOM     21  O   UNL     1      -2.346  11.828  19.656  0.00  0.00    +0.000 OA
BRANCH  19  22
ATOM     22  C   UNL     1       0.086  12.607  19.289  0.00  0.00    +0.000 A 
ATOM     23  C   UNL     1      -0.286  13.761  19.986  0.00  0.00    +0.000 A 
ATOM     24  C   UNL     1       0.584  14.849  20.035  0.00  0.00    +0.000 A 
ATOM     25  C   UNL     1       1.814  14.787  19.382  0.00  0.00    +0.000 A 
ATOM     26  C   UNL     1       2.179  13.630  18.683  0.00  0.00    +0.000 A 
ATOM     27  C   UNL     1       1.312  12.537  18.618  0.00  0.00    +0.000 A 
ATOM     28  N   UNL     1       3.440  13.549  18.088  0.00  0.00    +0.000 N 
ATOM     29  C   UNL     1       4.310  14.606  18.108  0.00  0.00    +0.000 C 
ATOM     30  O   UNL     1       5.458  14.503  17.683  0.00  0.00    +0.000 OA
ATOM     31  C   UNL     1       3.714  15.920  18.609  0.00  0.00    +0.000 C 
ATOM     32  O   UNL     1       2.625  15.879  19.520  0.00  0.00    +0.000 OA
ATOM     33  H   UNL     1       3.776  12.687  17.679  0.00  0.00    +0.000 HD
ENDBRANCH  19  22
ENDBRANCH   5  19
TORSDOF 5
ENDMDL
MODEL 7
REMARK VINA RESULT:      -8.2      1.292      2.012
REMARK  Name = 
REMARK  7 active torsions:
REMARK  status: ('A' for Active; 'I' for Inactive)
REMARK    1  A    between atoms: C_1  and  C_2
REMARK    2  A    between atoms: C_2  and  N_3
REMARK    3  A    between atoms: N_3  and  C_26
REMARK    4  A    between atoms: C_4  and  C_6
REMARK    5  A    between atoms: N_10  and  S_11
REMARK    6  A    between atoms: S_11  and  C_14
REMARK    7  A    between atoms: C_30  and  C_31
REMARK                            x       y       z     vdW  Elec       q    Type
REMARK                         _______ _______ _______ _____ _____    ______ ____
ROOT
ATOM      1  C   UNL     1       1.835   7.247  19.328  0.00  0.00    +0.000 C 
ATOM      2  C   UNL     1       1.715   6.875  20.810  0.00  0.00    +0.000 C 
ATOM      3  C   UNL     1       0.540   7.613  21.474  0.00  0.00    +0.000 C 
ATOM      4  C   UNL     1       0.693   9.123  21.382  0.00  0.00    +0.000 C 
ATOM      5  N   UNL     1       0.773   9.532  19.956  0.00  0.00    +0.000 NA
ATOM      6  C   UNL     1       1.860   8.810  19.215  0.00  0.00    +0.000 C 
ENDROOT
BRANCH   1   8
ATOM      7  N   UNL     1       3.561   5.458  18.437  0.00  0.00    +0.000 N 
ATOM      8  C   UNL     1       3.098   6.781  18.521  0.00  0.00    +0.000 C 
ATOM      9  O   UNL     1       3.630   7.667  17.831  0.00  0.00    +0.000 OA
BRANCH   7  10
ATOM     10  C   UNL     1       4.773   5.213  17.646  0.00  0.00    +0.000 A 
ATOM     11  C   UNL     1       6.045   5.342  18.231  0.00  0.00    +0.000 A 
ATOM     12  C   UNL     1       7.218   5.144  17.499  0.00  0.00    +0.000 A 
ATOM     13  C   UNL     1       7.151   4.762  16.165  0.00  0.00    +0.000 A 
ATOM     14  C   UNL     1       5.909   4.581  15.554  0.00  0.00    +0.000 A 
ATOM     15  C   UNL     1       5.835   4.126  14.125  0.00  0.00    +0.000 C 
ATOM     16  C   UNL     1       4.733   4.826  16.291  0.00  0.00    +0.000 A 
ENDBRANCH   7  10
BRANCH   7  18
ATOM     17  C   UNL     1       1.643   3.883  17.974  0.00  0.00    +0.000 C 
ATOM     18  C   UNL     1       2.819   4.264  18.885  0.00  0.00    +0.000 C 
ENDBRANCH   7  18
ENDBRANCH   1   8
BRANCH   5  19
ATOM     19  S   UNL     1       0.923  11.259  19.762  0.00  0.00    +0.000 S 
ATOM     20  O   UNL     1       1.624  11.786  20.916  0.00  0.00    +0.000 OA
ATOM     21  O   UNL     1       1.372  11.548  18.417  0.00  0.00    +0.000 OA
BRANCH  19  22
ATOM     22  C   UNL     1      -0.760  11.827  19.841  0.00  0.00    +0.000 A 
ATOM     23  C   UNL     1      -1.194  12.437  21.023  0.00  0.00    +0.000 A 
ATOM     24  C   UNL     1      -2.526  12.828  21.150  0.00  0.00    +0.000 A 
ATOM     25  C   UNL     1      -3.421  12.600  20.106  0.00  0.00    +0.000 A 
ATOM     26  C   UNL     1      -2.982  11.985  18.927  0.00  0.00    +0.000 A 
ATOM     27  C   UNL     1      -1.652  11.580  18.792  0.00  0.00    +0.000 A 
ATOM     28  N   UNL     1      -3.867  11.821  17.859  0.00  0.00    +0.000 N 
ATOM     29  C   UNL     1      -5.183  12.182  17.959  0.00  0.00    +0.000 C 
ATOM     30  O   UNL     1      -5.938  12.141  16.991  0.00  0.00    +0.000 OA
ATOM     31  C   UNL     1      -5.645  12.545  19.369  0.00  0.00    +0.000 C 
ATOM     32  O   UNL     1      -4.696  13.057  20.294  0.00  0.00    +0.000 OA
ATOM     33  H   UNL     1      -3.550  11.488  16.958  0.00  0.00    +0.000 HD
ENDBRANCH  19  22
ENDBRANCH   5  19
TORSDOF 5
ENDMDL
MODEL 8
REMARK VINA RESULT:      -8.1      3.165      9.654
REMARK  Name = 
REMARK  7 active torsions:
REMARK  status: ('A' for Active; 'I' for Inactive)
REMARK    1  A    between atoms: C_1  and  C_2
REMARK    2  A    between atoms: C_2  and  N_3
REMARK    3  A    between atoms: N_3  and  C_26
REMARK    4  A    between atoms: C_4  and  C_6
REMARK    5  A    between atoms: N_10  and  S_11
REMARK    6  A    between atoms: S_11  and  C_14
REMARK    7  A    between atoms: C_30  and  C_31
REMARK                            x       y       z     vdW  Elec       q    Type
REMARK                         _______ _______ _______ _____ _____    ______ ____
ROOT
ATOM      1  C   UNL     1       2.399   6.526  20.022  0.00  0.00    +0.000 C 
ATOM      2  C   UNL     1       1.697   5.765  21.152  0.00  0.00    +0.000 C 
ATOM      3  C   UNL     1       2.344   4.389  21.380  0.00  0.00    +0.000 C 
ATOM      4  C   UNL     1       2.294   3.523  20.131  0.00  0.00    +0.000 C 
ATOM      5  N   UNL     1       3.000   4.207  19.019  0.00  0.00    +0.000 NA
ATOM      6  C   UNL     1       2.468   5.588  18.768  0.00  0.00    +0.000 C 
ENDROOT
BRANCH   1   8
ATOM      7  N   UNL     1       1.156   8.843  20.269  0.00  0.00    +0.000 N 
ATOM      8  C   UNL     1       1.759   7.852  19.478  0.00  0.00    +0.000 C 
ATOM      9  O   UNL     1       1.921   8.046  18.262  0.00  0.00    +0.000 OA
BRANCH   7  10
ATOM     10  C   UNL     1       0.595  10.012  19.581  0.00  0.00    +0.000 A 
ATOM     11  C   UNL     1       1.282  11.238  19.583  0.00  0.00    +0.000 A 
ATOM     12  C   UNL     1       0.763  12.377  18.962  0.00  0.00    +0.000 A 
ATOM     13  C   UNL     1      -0.444  12.308  18.278  0.00  0.00    +0.000 A 
ATOM     14  C   UNL     1      -1.141  11.101  18.215  0.00  0.00    +0.000 A 
ATOM     15  C   UNL     1      -2.424  11.014  17.440  0.00  0.00    +0.000 C 
ATOM     16  C   UNL     1      -0.627   9.969  18.882  0.00  0.00    +0.000 A 
ENDBRANCH   7  10
BRANCH   7  18
ATOM     17  C   UNL     1      -0.111   9.220  22.421  0.00  0.00    +0.000 C 
ATOM     18  C   UNL     1       1.234   8.924  21.741  0.00  0.00    +0.000 C 
ENDBRANCH   7  18
ENDBRANCH   1   8
BRANCH   5  19
ATOM     19  S   UNL     1       3.010   3.264  17.551  0.00  0.00    +0.000 S 
ATOM     20  O   UNL     1       3.224   1.875  17.906  0.00  0.00    +0.000 OA
ATOM     21  O   UNL     1       1.890   3.662  16.725  0.00  0.00    +0.000 OA
BRANCH  19  22
ATOM     22  C   UNL     1       4.463   3.841  16.705  0.00  0.00    +0.000 A 
ATOM     23  C   UNL     1       5.365   4.639  17.416  0.00  0.00    +0.000 A 
ATOM     24  C   UNL     1       6.478   5.171  16.766  0.00  0.00    +0.000 A 
ATOM     25  C   UNL     1       6.680   4.917  15.410  0.00  0.00    +0.000 A 
ATOM     26  C   UNL     1       5.771   4.121  14.702  0.00  0.00    +0.000 A 
ATOM     27  C   UNL     1       4.647   3.590  15.340  0.00  0.00    +0.000 A 
ATOM     28  N   UNL     1       6.015   3.814  13.362  0.00  0.00    +0.000 N 
ATOM     29  C   UNL     1       7.091   4.333  12.694  0.00  0.00    +0.000 C 
ATOM     30  O   UNL     1       7.370   3.982  11.551  0.00  0.00    +0.000 OA
ATOM     31  C   UNL     1       7.844   5.431  13.442  0.00  0.00    +0.000 C 
ATOM     32  O   UNL     1       7.819   5.438  14.863  0.00  0.00    +0.000 OA
ATOM     33  H   UNL     1       5.441   3.150  12.860  0.00  0.00    +0.000 HD
ENDBRANCH  19  22
ENDBRANCH   5  19
TORSDOF 5
ENDMDL
MODEL 9
REMARK VINA RESULT:      -8.0      3.356      4.871
REMARK  Name = 
REMARK  7 active torsions:
REMARK  status: ('A' for Active; 'I' for Inactive)
REMARK    1  A    between atoms: C_1  and  C_2
REMARK    2  A    between atoms: C_2  and  N_3
REMARK    3  A    between atoms: N_3  and  C_26
REMARK    4  A    between atoms: C_4  and  C_6
REMARK    5  A    between atoms: N_10  and  S_11
REMARK    6  A    between atoms: S_11  and  C_14
REMARK    7  A    between atoms: C_30  and  C_31
REMARK                            x       y       z     vdW  Elec       q    Type
REMARK                         _______ _______ _______ _____ _____    ______ ____
ROOT
ATOM      1  C   UNL     1       1.160   8.044  20.612  0.00  0.00    +0.000 C 
ATOM      2  C   UNL     1       1.632   8.749  21.889  0.00  0.00    +0.000 C 
ATOM      3  C   UNL     1       0.510   9.607  22.496  0.00  0.00    +0.000 C 
ATOM      4  C   UNL     1       0.021  10.673  21.527  0.00  0.00    +0.000 C 
ATOM      5  N   UNL     1      -0.484  10.028  20.288  0.00  0.00    +0.000 NA
ATOM      6  C   UNL     1       0.533   9.121  19.661  0.00  0.00    +0.000 C 
ENDROOT
BRANCH   1   8
ATOM      7  N   UNL     1       2.686   5.998  19.937  0.00  0.00    +0.000 N 
ATOM      8  C   UNL     1       2.211   7.300  19.715  0.00  0.00    +0.000 C 
ATOM      9  O   UNL     1       2.534   7.908  18.681  0.00  0.00    +0.000 OA
BRANCH   7  10
ATOM     10  C   UNL     1       3.684   5.471  18.998  0.00  0.00    +0.000 A 
ATOM     11  C   UNL     1       3.280   4.812  17.824  0.00  0.00    +0.000 A 
ATOM     12  C   UNL     1       4.203   4.274  16.924  0.00  0.00    +0.000 A 
ATOM     13  C   UNL     1       5.565   4.422  17.151  0.00  0.00    +0.000 A 
ATOM     14  C   UNL     1       6.012   5.105  18.283  0.00  0.00    +0.000 A 
ATOM     15  C   UNL     1       7.484   5.304  18.508  0.00  0.00    +0.000 C 
ATOM     16  C   UNL     1       5.071   5.606  19.206  0.00  0.00    +0.000 A 
ENDBRANCH   7  10
BRANCH   7  18
ATOM     17  C   UNL     1       0.950   4.204  20.322  0.00  0.00    +0.000 C 
ATOM     18  C   UNL     1       2.111   5.031  20.892  0.00  0.00    +0.000 C 
ENDBRANCH   7  18
ENDBRANCH   1   8
BRANCH   5  19
ATOM     19  S   UNL     1      -1.090  11.185  19.131  0.00  0.00    +0.000 S 
ATOM     20  O   UNL     1      -1.382  10.483  17.898  0.00  0.00    +0.000 OA
ATOM     21  O   UNL     1      -2.085  12.019  19.772  0.00  0.00    +0.000 OA
BRANCH  19  22
ATOM     22  C   UNL     1       0.310  12.241  18.838  0.00  0.00    +0.000 A 
ATOM     23  C   UNL     1       1.492  11.653  18.377  0.00  0.00    +0.000 A 
ATOM     24  C   UNL     1       2.633  12.437  18.207  0.00  0.00    +0.000 A 
ATOM     25  C   UNL     1       2.593  13.798  18.507  0.00  0.00    +0.000 A 
ATOM     26  C   UNL     1       1.407  14.380  18.972  0.00  0.00    +0.000 A 
ATOM     27  C   UNL     1       0.261  13.604  19.156  0.00  0.00    +0.000 A 
ATOM     28  N   UNL     1       1.356  15.756  19.205  0.00  0.00    +0.000 N 
ATOM     29  C   UNL     1       2.462  16.548  19.060  0.00  0.00    +0.000 C 
ATOM     30  O   UNL     1       2.396  17.771  19.158  0.00  0.00    +0.000 OA
ATOM     31  C   UNL     1       3.774  15.791  18.861  0.00  0.00    +0.000 C 
ATOM     32  O   UNL     1       3.741  14.502  18.267  0.00  0.00    +0.000 OA
ATOM     33  H   UNL     1       0.485  16.221  19.428  0.00  0.00    +0.000 HD
ENDBRANCH  19  22
ENDBRANCH   5  19
TORSDOF 5
ENDMDL
