MODEL 1
REMARK VINA RESULT:      -7.6      0.000      0.000
REMARK  Name = 
REMARK  4 active torsions:
REMARK  status: ('A' for Active; 'I' for Inactive)
REMARK    1  A    between atoms: C_2  and  C_3
REMARK    2  A    between atoms: N_5  and  C_6
REMARK    3  A    between atoms: C_9  and  O_10
REMARK    4  A    between atoms: C_14  and  C_15
REMARK                            x       y       z     vdW  Elec       q    Type
REMARK                         _______ _______ _______ _____ _____    ______ ____
ROOT
ATOM      1  C   UNL     1       6.248   5.779  17.122  0.00  0.00    +0.000 A 
ATOM      2  C   UNL     1       5.447   5.649  18.232  0.00  0.00    +0.000 A 
ATOM      3  N   UNL     1       4.532   4.662  17.969  0.00  0.00    +0.000 N 
ATOM      4  N   UNL     1       4.684   4.180  16.710  0.00  0.00    +0.000 NA
ATOM      5  C   UNL     1       5.702   4.870  16.173  0.00  0.00    +0.000 A 
ENDROOT
BRANCH   3   6
ATOM      6  C   UNL     1       3.556   4.134  18.860  0.00  0.00    +0.000 A 
ATOM      7  C   UNL     1       2.231   4.598  18.829  0.00  0.00    +0.000 A 
ATOM      8  C   UNL     1       1.287   4.105  19.733  0.00  0.00    +0.000 A 
ATOM      9  C   UNL     1       1.667   3.151  20.668  0.00  0.00    +0.000 A 
ATOM     10  C   UNL     1       2.971   2.669  20.704  0.00  0.00    +0.000 A 
ATOM     11  C   UNL     1       3.919   3.155  19.798  0.00  0.00    +0.000 A 
BRANCH   9  12
ATOM     12  O   UNL     1       0.778   2.661  21.578  0.00  0.00    +0.000 OA
ATOM     13  H   UNL     1       1.265   2.389  22.373  0.00  0.00    +0.000 HD
ENDBRANCH   9  12
ENDBRANCH   3   6
BRANCH   5  14
ATOM     14  C   UNL     1       6.127   4.645  14.790  0.00  0.00    +0.000 A 
ATOM     15  C   UNL     1       7.293   5.244  14.288  0.00  0.00    +0.000 A 
ATOM     16  C   UNL     1       7.730   4.979  12.989  0.00  0.00    +0.000 A 
ATOM     17  C   UNL     1       6.990   4.135  12.165  0.00  0.00    +0.000 A 
ATOM     18  C   UNL     1       5.808   3.566  12.636  0.00  0.00    +0.000 A 
ATOM     19  C   UNL     1       5.378   3.820  13.941  0.00  0.00    +0.000 A 
ENDBRANCH   5  14
BRANCH   1  21
ATOM     20  O   UNL     1       7.309   7.876  17.000  0.00  0.00    +0.000 OA
ATOM     21  C   UNL     1       7.393   6.654  17.022  0.00  0.00    +0.000 C 
ENDBRANCH   1  21
TORSDOF 4
ENDMDL
MODEL 2
REMARK VINA RESULT:      -7.6      0.104      1.083
REMARK  Name = 
REMARK  4 active torsions:
REMARK  status: ('A' for Active; 'I' for Inactive)
REMARK    1  A    between atoms: C_2  and  C_3
REMARK    2  A    between atoms: N_5  and  C_6
REMARK    3  A    between atoms: C_9  and  O_10
REMARK    4  A    between atoms: C_14  and  C_15
REMARK                            x       y       z     vdW  Elec       q    Type
REMARK                         _______ _______ _______ _____ _____    ______ ____
ROOT
ATOM      1  C   UNL     1       6.309   5.751  17.116  0.00  0.00    +0.000 A 
ATOM      2  C   UNL     1       5.485   5.629  18.210  0.00  0.00    +0.000 A 
ATOM      3  N   UNL     1       4.584   4.632  17.940  0.00  0.00    +0.000 N 
ATOM      4  N   UNL     1       4.766   4.135  16.691  0.00  0.00    +0.000 NA
ATOM      5  C   UNL     1       5.790   4.826  16.167  0.00  0.00    +0.000 A 
ENDROOT
BRANCH   3   6
ATOM      6  C   UNL     1       3.592   4.108  18.817  0.00  0.00    +0.000 A 
ATOM      7  C   UNL     1       2.258   4.539  18.730  0.00  0.00    +0.000 A 
ATOM      8  C   UNL     1       1.298   4.051  19.620  0.00  0.00    +0.000 A 
ATOM      9  C   UNL     1       1.671   3.136  20.596  0.00  0.00    +0.000 A 
ATOM     10  C   UNL     1       2.984   2.687  20.687  0.00  0.00    +0.000 A 
ATOM     11  C   UNL     1       3.948   3.168  19.796  0.00  0.00    +0.000 A 
BRANCH   9  12
ATOM     12  O   UNL     1       0.765   2.652  21.493  0.00  0.00    +0.000 OA
ATOM     13  H   UNL     1       0.043   2.224  21.004  0.00  0.00    +0.000 HD
ENDBRANCH   9  12
ENDBRANCH   3   6
BRANCH   5  14
ATOM     14  C   UNL     1       6.247   4.587  14.796  0.00  0.00    +0.000 A 
ATOM     15  C   UNL     1       5.554   3.706  13.950  0.00  0.00    +0.000 A 
ATOM     16  C   UNL     1       5.954   3.527  12.624  0.00  0.00    +0.000 A 
ATOM     17  C   UNL     1       7.069   4.204  12.138  0.00  0.00    +0.000 A 
ATOM     18  C   UNL     1       7.791   5.050  12.978  0.00  0.00    +0.000 A 
ATOM     19  C   UNL     1       7.382   5.239  14.301  0.00  0.00    +0.000 A 
ENDBRANCH   5  14
BRANCH   1  21
ATOM     20  O   UNL     1       7.355   7.845  16.874  0.00  0.00    +0.000 OA
ATOM     21  C   UNL     1       7.449   6.634  17.028  0.00  0.00    +0.000 C 
ENDBRANCH   1  21
TORSDOF 4
ENDMDL
MODEL 3
REMARK VINA RESULT:      -7.3      3.598      4.859
REMARK  Name = 
REMARK  4 active torsions:
REMARK  status: ('A' for Active; 'I' for Inactive)
REMARK    1  A    between atoms: C_2  and  C_3
REMARK    2  A    between atoms: N_5  and  C_6
REMARK    3  A    between atoms: C_9  and  O_10
REMARK    4  A    between atoms: C_14  and  C_15
REMARK                            x       y       z     vdW  Elec       q    Type
REMARK                         _______ _______ _______ _____ _____    ______ ____
ROOT
ATOM      1  C   UNL     1       3.520   4.568  19.358  0.00  0.00    +0.000 A 
ATOM      2  C   UNL     1       2.683   5.435  20.021  0.00  0.00    +0.000 A 
ATOM      3  N   UNL     1       2.702   6.627  19.345  0.00  0.00    +0.000 N 
ATOM      4  N   UNL     1       3.557   6.578  18.293  0.00  0.00    +0.000 NA
ATOM      5  C   UNL     1       4.084   5.343  18.307  0.00  0.00    +0.000 A 
ENDROOT
BRANCH   3   6
ATOM      6  C   UNL     1       1.926   7.788  19.625  0.00  0.00    +0.000 A 
ATOM      7  C   UNL     1       1.722   8.768  18.641  0.00  0.00    +0.000 A 
ATOM      8  C   UNL     1       0.993   9.924  18.934  0.00  0.00    +0.000 A 
ATOM      9  C   UNL     1       0.473  10.100  20.210  0.00  0.00    +0.000 A 
ATOM     10  C   UNL     1       0.653   9.132  21.192  0.00  0.00    +0.000 A 
ATOM     11  C   UNL     1       1.376   7.972  20.904  0.00  0.00    +0.000 A 
BRANCH   9  12
ATOM     12  O   UNL     1      -0.227  11.223  20.537  0.00  0.00    +0.000 OA
ATOM     13  H   UNL     1       0.345  11.996  20.401  0.00  0.00    +0.000 HD
ENDBRANCH   9  12
ENDBRANCH   3   6
BRANCH   5  14
ATOM     14  C   UNL     1       5.094   4.937  17.327  0.00  0.00    +0.000 A 
ATOM     15  C   UNL     1       4.722   4.516  16.040  0.00  0.00    +0.000 A 
ATOM     16  C   UNL     1       5.690   4.190  15.088  0.00  0.00    +0.000 A 
ATOM     17  C   UNL     1       7.040   4.251  15.421  0.00  0.00    +0.000 A 
ATOM     18  C   UNL     1       7.424   4.627  16.707  0.00  0.00    +0.000 A 
ATOM     19  C   UNL     1       6.455   4.967  17.656  0.00  0.00    +0.000 A 
ENDBRANCH   5  14
BRANCH   1  21
ATOM     20  O   UNL     1       4.808   2.698  19.977  0.00  0.00    +0.000 OA
ATOM     21  C   UNL     1       3.716   3.178  19.699  0.00  0.00    +0.000 C 
ENDBRANCH   1  21
TORSDOF 4
ENDMDL
MODEL 4
REMARK VINA RESULT:      -7.3      3.685      4.828
REMARK  Name = 
REMARK  4 active torsions:
REMARK  status: ('A' for Active; 'I' for Inactive)
REMARK    1  A    between atoms: C_2  and  C_3
REMARK    2  A    between atoms: N_5  and  C_6
REMARK    3  A    between atoms: C_9  and  O_10
REMARK    4  A    between atoms: C_14  and  C_15
REMARK                            x       y       z     vdW  Elec       q    Type
REMARK                         _______ _______ _______ _____ _____    ______ ____
ROOT
ATOM      1  C   UNL     1       3.705   4.879  19.024  0.00  0.00    +0.000 A 
ATOM      2  C   UNL     1       2.866   5.729  19.706  0.00  0.00    +0.000 A 
ATOM      3  N   UNL     1       2.783   6.893  18.987  0.00  0.00    +0.000 N 
ATOM      4  N   UNL     1       3.574   6.845  17.887  0.00  0.00    +0.000 NA
ATOM      5  C   UNL     1       4.165   5.639  17.913  0.00  0.00    +0.000 A 
ENDROOT
BRANCH   3   6
ATOM      6  C   UNL     1       1.966   8.024  19.272  0.00  0.00    +0.000 A 
ATOM      7  C   UNL     1       1.436   8.220  20.558  0.00  0.00    +0.000 A 
ATOM      8  C   UNL     1       0.601   9.310  20.820  0.00  0.00    +0.000 A 
ATOM      9  C   UNL     1       0.297  10.201  19.799  0.00  0.00    +0.000 A 
ATOM     10  C   UNL     1       0.825  10.030  18.524  0.00  0.00    +0.000 A 
ATOM     11  C   UNL     1       1.664   8.945  18.256  0.00  0.00    +0.000 A 
BRANCH   9  12
ATOM     12  O   UNL     1      -0.528  11.265  20.014  0.00  0.00    +0.000 OA
ATOM     13  H   UNL     1      -0.568  11.438  20.969  0.00  0.00    +0.000 HD
ENDBRANCH   9  12
ENDBRANCH   3   6
BRANCH   5  14
ATOM     14  C   UNL     1       5.134   5.246  16.888  0.00  0.00    +0.000 A 
ATOM     15  C   UNL     1       4.771   4.374  15.849  0.00  0.00    +0.000 A 
ATOM     16  C   UNL     1       5.679   4.050  14.839  0.00  0.00    +0.000 A 
ATOM     17  C   UNL     1       6.970   4.569  14.872  0.00  0.00    +0.000 A 
ATOM     18  C   UNL     1       7.358   5.402  15.920  0.00  0.00    +0.000 A 
ATOM     19  C   UNL     1       6.445   5.738  16.924  0.00  0.00    +0.000 A 
ENDBRANCH   5  14
BRANCH   1  21
ATOM     20  O   UNL     1       5.118   3.112  19.672  0.00  0.00    +0.000 OA
ATOM     21  C   UNL     1       3.993   3.515  19.403  0.00  0.00    +0.000 C 
ENDBRANCH   1  21
TORSDOF 4
ENDMDL
MODEL 5
REMARK VINA RESULT:      -7.2      3.638      4.770
REMARK  Name = 
REMARK  4 active torsions:
REMARK  status: ('A' for Active; 'I' for Inactive)
REMARK    1  A    between atoms: C_2  and  C_3
REMARK    2  A    between atoms: N_5  and  C_6
REMARK    3  A    between atoms: C_9  and  O_10
REMARK    4  A    between atoms: C_14  and  C_15
REMARK                            x       y       z     vdW  Elec       q    Type
REMARK                         _______ _______ _______ _____ _____    ______ ____
ROOT
ATOM      1  C   UNL     1       3.582   4.775  19.275  0.00  0.00    +0.000 A 
ATOM      2  C   UNL     1       2.732   5.576  20.002  0.00  0.00    +0.000 A 
ATOM      3  N   UNL     1       2.653   6.785  19.361  0.00  0.00    +0.000 N 
ATOM      4  N   UNL     1       3.458   6.811  18.269  0.00  0.00    +0.000 NA
ATOM      5  C   UNL     1       4.052   5.608  18.222  0.00  0.00    +0.000 A 
ENDROOT
BRANCH   3   6
ATOM      6  C   UNL     1       1.830   7.892  19.710  0.00  0.00    +0.000 A 
ATOM      7  C   UNL     1       1.253   7.982  20.987  0.00  0.00    +0.000 A 
ATOM      8  C   UNL     1       0.413   9.051  21.310  0.00  0.00    +0.000 A 
ATOM      9  C   UNL     1       0.148  10.027  20.357  0.00  0.00    +0.000 A 
ATOM     10  C   UNL     1       0.723   9.961  19.093  0.00  0.00    +0.000 A 
ATOM     11  C   UNL     1       1.568   8.897  18.765  0.00  0.00    +0.000 A 
BRANCH   9  12
ATOM     12  O   UNL     1      -0.681  11.074  20.631  0.00  0.00    +0.000 OA
ATOM     13  H   UNL     1      -0.451  11.813  20.045  0.00  0.00    +0.000 HD
ENDBRANCH   9  12
ENDBRANCH   3   6
BRANCH   5  14
ATOM     14  C   UNL     1       5.034   5.285  17.185  0.00  0.00    +0.000 A 
ATOM     15  C   UNL     1       6.269   5.951  17.130  0.00  0.00    +0.000 A 
ATOM     16  C   UNL     1       7.229   5.598  16.180  0.00  0.00    +0.000 A 
ATOM     17  C   UNL     1       6.954   4.596  15.253  0.00  0.00    +0.000 A 
ATOM     18  C   UNL     1       5.717   3.955  15.269  0.00  0.00    +0.000 A 
ATOM     19  C   UNL     1       4.761   4.298  16.230  0.00  0.00    +0.000 A 
ENDBRANCH   5  14
BRANCH   1  21
ATOM     20  O   UNL     1       5.004   2.955  19.729  0.00  0.00    +0.000 OA
ATOM     21  C   UNL     1       3.871   3.390  19.567  0.00  0.00    +0.000 C 
ENDBRANCH   1  21
TORSDOF 4
ENDMDL
MODEL 6
REMARK VINA RESULT:      -7.2      4.136      5.781
REMARK  Name = 
REMARK  4 active torsions:
REMARK  status: ('A' for Active; 'I' for Inactive)
REMARK    1  A    between atoms: C_2  and  C_3
REMARK    2  A    between atoms: N_5  and  C_6
REMARK    3  A    between atoms: C_9  and  O_10
REMARK    4  A    between atoms: C_14  and  C_15
REMARK                            x       y       z     vdW  Elec       q    Type
REMARK                         _______ _______ _______ _____ _____    ______ ____
ROOT
ATOM      1  C   UNL     1       3.939   6.712  17.470  0.00  0.00    +0.000 A 
ATOM      2  C   UNL     1       3.350   7.939  17.665  0.00  0.00    +0.000 A 
ATOM      3  N   UNL     1       2.323   7.768  18.557  0.00  0.00    +0.000 N 
ATOM      4  N   UNL     1       2.198   6.465  18.913  0.00  0.00    +0.000 NA
ATOM      5  C   UNL     1       3.153   5.807  18.236  0.00  0.00    +0.000 A 
ENDROOT
BRANCH   3   6
ATOM      6  C   UNL     1       1.488   8.779  19.112  0.00  0.00    +0.000 A 
ATOM      7  C   UNL     1       1.176   8.779  20.482  0.00  0.00    +0.000 A 
ATOM      8  C   UNL     1       0.323   9.750  21.013  0.00  0.00    +0.000 A 
ATOM      9  C   UNL     1      -0.218  10.718  20.176  0.00  0.00    +0.000 A 
ATOM     10  C   UNL     1       0.093  10.742  18.821  0.00  0.00    +0.000 A 
ATOM     11  C   UNL     1       0.949   9.776  18.284  0.00  0.00    +0.000 A 
BRANCH   9  12
ATOM     12  O   UNL     1      -1.067  11.670  20.656  0.00  0.00    +0.000 OA
ATOM     13  H   UNL     1      -1.294  12.277  19.932  0.00  0.00    +0.000 HD
ENDBRANCH   9  12
ENDBRANCH   3   6
BRANCH   5  14
ATOM     14  C   UNL     1       3.293   4.353  18.340  0.00  0.00    +0.000 A 
ATOM     15  C   UNL     1       4.164   3.779  19.280  0.00  0.00    +0.000 A 
ATOM     16  C   UNL     1       4.250   2.393  19.420  0.00  0.00    +0.000 A 
ATOM     17  C   UNL     1       3.489   1.563  18.602  0.00  0.00    +0.000 A 
ATOM     18  C   UNL     1       2.650   2.118  17.637  0.00  0.00    +0.000 A 
ATOM     19  C   UNL     1       2.554   3.506  17.506  0.00  0.00    +0.000 A 
ENDBRANCH   5  14
BRANCH   1  21
ATOM     20  O   UNL     1       5.194   6.775  15.479  0.00  0.00    +0.000 OA
ATOM     21  C   UNL     1       5.114   6.473  16.664  0.00  0.00    +0.000 C 
ENDBRANCH   1  21
TORSDOF 4
ENDMDL
MODEL 7
REMARK VINA RESULT:      -7.2      3.651      4.812
REMARK  Name = 
REMARK  4 active torsions:
REMARK  status: ('A' for Active; 'I' for Inactive)
REMARK    1  A    between atoms: C_2  and  C_3
REMARK    2  A    between atoms: N_5  and  C_6
REMARK    3  A    between atoms: C_9  and  O_10
REMARK    4  A    between atoms: C_14  and  C_15
REMARK                            x       y       z     vdW  Elec       q    Type
REMARK                         _______ _______ _______ _____ _____    ______ ____
ROOT
ATOM      1  C   UNL     1       3.498   4.658  19.341  0.00  0.00    +0.000 A 
ATOM      2  C   UNL     1       2.655   5.524  19.998  0.00  0.00    +0.000 A 
ATOM      3  N   UNL     1       2.684   6.718  19.325  0.00  0.00    +0.000 N 
ATOM      4  N   UNL     1       3.550   6.671  18.282  0.00  0.00    +0.000 NA
ATOM      5  C   UNL     1       4.075   5.435  18.298  0.00  0.00    +0.000 A 
ENDROOT
BRANCH   3   6
ATOM      6  C   UNL     1       1.906   7.879  19.599  0.00  0.00    +0.000 A 
ATOM      7  C   UNL     1       1.685   8.846  18.605  0.00  0.00    +0.000 A 
ATOM      8  C   UNL     1       0.956  10.002  18.892  0.00  0.00    +0.000 A 
ATOM      9  C   UNL     1       0.450  10.193  20.172  0.00  0.00    +0.000 A 
ATOM     10  C   UNL     1       0.647   9.239  21.164  0.00  0.00    +0.000 A 
ATOM     11  C   UNL     1       1.371   8.078  20.882  0.00  0.00    +0.000 A 
BRANCH   9  12
ATOM     12  O   UNL     1      -0.251  11.317  20.493  0.00  0.00    +0.000 OA
ATOM     13  H   UNL     1      -0.227  11.924  19.735  0.00  0.00    +0.000 HD
ENDBRANCH   9  12
ENDBRANCH   3   6
BRANCH   5  14
ATOM     14  C   UNL     1       5.096   5.031  17.329  0.00  0.00    +0.000 A 
ATOM     15  C   UNL     1       6.454   4.999  17.683  0.00  0.00    +0.000 A 
ATOM     16  C   UNL     1       7.418   4.553  16.777  0.00  0.00    +0.000 A 
ATOM     17  C   UNL     1       7.039   4.162  15.496  0.00  0.00    +0.000 A 
ATOM     18  C   UNL     1       5.700   4.227  15.116  0.00  0.00    +0.000 A 
ATOM     19  C   UNL     1       4.733   4.661  16.028  0.00  0.00    +0.000 A 
ENDBRANCH   5  14
BRANCH   1  21
ATOM     20  O   UNL     1       4.783   2.778  19.936  0.00  0.00    +0.000 OA
ATOM     21  C   UNL     1       3.689   3.267  19.681  0.00  0.00    +0.000 C 
ENDBRANCH   1  21
TORSDOF 4
ENDMDL
MODEL 8
REMARK VINA RESULT:      -7.2      4.159      5.888
REMARK  Name = 
REMARK  4 active torsions:
REMARK  status: ('A' for Active; 'I' for Inactive)
REMARK    1  A    between atoms: C_2  and  C_3
REMARK    2  A    between atoms: N_5  and  C_6
REMARK    3  A    between atoms: C_9  and  O_10
REMARK    4  A    between atoms: C_14  and  C_15
REMARK                            x       y       z     vdW  Elec       q    Type
REMARK                         _______ _______ _______ _____ _____    ______ ____
ROOT
ATOM      1  C   UNL     1       3.899   6.664  17.478  0.00  0.00    +0.000 A 
ATOM      2  C   UNL     1       3.337   7.906  17.663  0.00  0.00    +0.000 A 
ATOM      3  N   UNL     1       2.326   7.771  18.578  0.00  0.00    +0.000 N 
ATOM      4  N   UNL     1       2.183   6.477  18.960  0.00  0.00    +0.000 NA
ATOM      5  C   UNL     1       3.112   5.789  18.276  0.00  0.00    +0.000 A 
ENDROOT
BRANCH   3   6
ATOM      6  C   UNL     1       1.522   8.807  19.132  0.00  0.00    +0.000 A 
ATOM      7  C   UNL     1       1.156   8.784  20.488  0.00  0.00    +0.000 A 
ATOM      8  C   UNL     1       0.334   9.783  21.015  0.00  0.00    +0.000 A 
ATOM      9  C   UNL     1      -0.124  10.801  20.188  0.00  0.00    +0.000 A 
ATOM     10  C   UNL     1       0.241  10.847  18.847  0.00  0.00    +0.000 A 
ATOM     11  C   UNL     1       1.068   9.854  18.315  0.00  0.00    +0.000 A 
BRANCH   9  12
ATOM     12  O   UNL     1      -0.943  11.781  20.664  0.00  0.00    +0.000 OA
ATOM     13  H   UNL     1      -1.427  11.436  21.432  0.00  0.00    +0.000 HD
ENDBRANCH   9  12
ENDBRANCH   3   6
BRANCH   5  14
ATOM     14  C   UNL     1       3.227   4.334  18.404  0.00  0.00    +0.000 A 
ATOM     15  C   UNL     1       2.498   3.477  17.563  0.00  0.00    +0.000 A 
ATOM     16  C   UNL     1       2.657   2.093  17.645  0.00  0.00    +0.000 A 
ATOM     17  C   UNL     1       3.523   1.547  18.588  0.00  0.00    +0.000 A 
ATOM     18  C   UNL     1       4.221   2.383  19.457  0.00  0.00    +0.000 A 
ATOM     19  C   UNL     1       4.073   3.770  19.366  0.00  0.00    +0.000 A 
ENDBRANCH   5  14
BRANCH   1  21
ATOM     20  O   UNL     1       5.180   6.805  15.509  0.00  0.00    +0.000 OA
ATOM     21  C   UNL     1       5.053   6.389  16.654  0.00  0.00    +0.000 C 
ENDBRANCH   1  21
TORSDOF 4
ENDMDL
MODEL 9
REMARK VINA RESULT:      -7.2      5.113      7.673
REMARK  Name = 
REMARK  4 active torsions:
REMARK  status: ('A' for Active; 'I' for Inactive)
REMARK    1  A    between atoms: C_2  and  C_3
REMARK    2  A    between atoms: N_5  and  C_6
REMARK    3  A    between atoms: C_9  and  O_10
REMARK    4  A    between atoms: C_14  and  C_15
REMARK                            x       y       z     vdW  Elec       q    Type
REMARK                         _______ _______ _______ _____ _____    ______ ____
ROOT
ATOM      1  C   UNL     1       1.467   8.393  20.304  0.00  0.00    +0.000 A 
ATOM      2  C   UNL     1       2.144   7.230  20.018  0.00  0.00    +0.000 A 
ATOM      3  N   UNL     1       2.501   7.274  18.695  0.00  0.00    +0.000 N 
ATOM      4  N   UNL     1       2.040   8.403  18.102  0.00  0.00    +0.000 NA
ATOM      5  C   UNL     1       1.383   9.078  19.060  0.00  0.00    +0.000 A 
ENDROOT
BRANCH   3   6
ATOM      6  C   UNL     1       3.284   6.321  17.983  0.00  0.00    +0.000 A 
ATOM      7  C   UNL     1       2.926   4.963  17.972  0.00  0.00    +0.000 A 
ATOM      8  C   UNL     1       3.722   4.028  17.306  0.00  0.00    +0.000 A 
ATOM      9  C   UNL     1       4.874   4.449  16.653  0.00  0.00    +0.000 A 
ATOM     10  C   UNL     1       5.235   5.792  16.642  0.00  0.00    +0.000 A 
ATOM     11  C   UNL     1       4.440   6.733  17.302  0.00  0.00    +0.000 A 
BRANCH   9  12
ATOM     12  O   UNL     1       5.683   3.562  16.008  0.00  0.00    +0.000 OA
ATOM     13  H   UNL     1       6.101   4.013  15.256  0.00  0.00    +0.000 HD
ENDBRANCH   9  12
ENDBRANCH   3   6
BRANCH   5  14
ATOM     14  C   UNL     1       0.707  10.344  18.770  0.00  0.00    +0.000 A 
ATOM     15  C   UNL     1      -0.657  10.373  18.437  0.00  0.00    +0.000 A 
ATOM     16  C   UNL     1      -1.314  11.586  18.223  0.00  0.00    +0.000 A 
ATOM     17  C   UNL     1      -0.609  12.783  18.308  0.00  0.00    +0.000 A 
ATOM     18  C   UNL     1       0.755  12.768  18.595  0.00  0.00    +0.000 A 
ATOM     19  C   UNL     1       1.410  11.554  18.824  0.00  0.00    +0.000 A 
ENDBRANCH   5  14
BRANCH   1  21
ATOM     20  O   UNL     1       1.433   9.735  22.237  0.00  0.00    +0.000 OA
ATOM     21  C   UNL     1       0.992   8.778  21.613  0.00  0.00    +0.000 C 
ENDBRANCH   1  21
TORSDOF 4
ENDMDL
