MODEL 1
REMARK VINA RESULT:      -7.1      0.000      0.000
REMARK  Name = 
REMARK  13 active torsions:
REMARK  status: ('A' for Active; 'I' for Inactive)
REMARK    1  A    between atoms: C_1  and  C_2
REMARK    2  A    between atoms: C_2  and  C_3
REMARK    3  A    between atoms: C_3  and  O_4
REMARK    4  A    between atoms: C_3  and  C_5
REMARK    5  A    between atoms: C_3  and  C_12
REMARK    6  A    between atoms: C_12  and  C_13
REMARK    7  A    between atoms: C_12  and  C_20
REMARK    8  A    between atoms: C_13  and  N_14
REMARK    9  A    between atoms: N_14  and  C_15
REMARK   10  A    between atoms: C_15  and  C_16
REMARK   11  A    between atoms: C_16  and  C_17
REMARK   12  A    between atoms: C_17  and  C_18
REMARK   13  A    between atoms: C_18  and  O_19
REMARK                            x       y       z     vdW  Elec       q    Type
REMARK                         _______ _______ _______ _____ _____    ______ ____
ROOT
ATOM      1  C   UNL     1       4.050   4.770  16.951  0.00  0.00    +0.000 C 
ENDROOT
BRANCH   1   2
ATOM      2  C   UNL     1       3.068   3.800  17.697  0.00  0.00    +0.000 A 
ATOM      3  C   UNL     1       1.667   4.026  17.735  0.00  0.00    +0.000 A 
ATOM      4  C   UNL     1       0.817   3.214  18.495  0.00  0.00    +0.000 A 
ATOM      5  C   UNL     1       1.324   2.134  19.207  0.00  0.00    +0.000 A 
ATOM      6  C   UNL     1       2.679   1.840  19.138  0.00  0.00    +0.000 A 
ATOM      7  C   UNL     1       3.536   2.649  18.394  0.00  0.00    +0.000 A 
ENDBRANCH   1   2
BRANCH   1   8
ATOM      8  C   UNL     1       4.656   5.994  17.822  0.00  0.00    +0.000 C 
BRANCH   8   9
ATOM      9  C   UNL     1       3.519   6.970  18.270  0.00  0.00    +0.000 A 
ATOM     10  C   UNL     1       3.151   8.128  17.533  0.00  0.00    +0.000 A 
ATOM     11  C   UNL     1       2.173   9.008  18.000  0.00  0.00    +0.000 A 
ATOM     12  C   UNL     1       1.520   8.758  19.204  0.00  0.00    +0.000 A 
ATOM     13 BR   UNL     1       0.189   9.977  19.834  0.00  0.00    +0.000 Br
ATOM     14  C   UNL     1       1.846   7.622  19.943  0.00  0.00    +0.000 A 
ATOM     15  C   UNL     1       2.837   6.746  19.493  0.00  0.00    +0.000 A 
ENDBRANCH   8   9
BRANCH   8  17
ATOM     16  C   UNL     1       7.164   6.858  17.744  0.00  0.00    +0.000 C 
ATOM     17  C   UNL     1       5.787   6.797  17.081  0.00  0.00    +0.000 C 
ENDBRANCH   8  17
BRANCH   8  18
ATOM     18  O   UNL     1       5.224   5.513  19.014  0.00  0.00    +0.000 OA
ATOM     19  H   UNL     1       4.914   4.580  19.162  0.00  0.00    +0.000 HD
ENDBRANCH   8  18
ENDBRANCH   1   8
BRANCH   1  20
ATOM     20  C   UNL     1       5.204   3.997  16.220  0.00  0.00    +0.000 C 
BRANCH  20  21
ATOM     21  N   UNL     1       5.174   4.307  14.784  0.00  0.00    +0.000 NA
ATOM     22  H   UNL     1       5.001   5.319  14.616  0.00  0.00    +0.000 HD
BRANCH  21  23
ATOM     23  C   UNL     1       6.358   3.938  14.024  0.00  0.00    +0.000 C 
BRANCH  23  24
ATOM     24  C   UNL     1       5.869   3.450  12.654  0.00  0.00    +0.000 C 
BRANCH  24  25
ATOM     25  C   UNL     1       6.987   3.359  11.622  0.00  0.00    +0.000 C 
BRANCH  25  26
ATOM     26  C   UNL     1       7.128   1.918  11.124  0.00  0.00    +0.000 C 
BRANCH  26  27
ATOM     27  O   UNL     1       6.017   1.159  11.511  0.00  0.00    +0.000 OA
ATOM     28  H   UNL     1       5.851   0.511  10.776  0.00  0.00    +0.000 HD
ENDBRANCH  26  27
ENDBRANCH  25  26
ENDBRANCH  24  25
ENDBRANCH  23  24
ENDBRANCH  21  23
ENDBRANCH  20  21
ENDBRANCH   1  20
TORSDOF 12
ENDMDL
MODEL 2
REMARK VINA RESULT:      -7.0      3.346      6.323
REMARK  Name = 
REMARK  13 active torsions:
REMARK  status: ('A' for Active; 'I' for Inactive)
REMARK    1  A    between atoms: C_1  and  C_2
REMARK    2  A    between atoms: C_2  and  C_3
REMARK    3  A    between atoms: C_3  and  O_4
REMARK    4  A    between atoms: C_3  and  C_5
REMARK    5  A    between atoms: C_3  and  C_12
REMARK    6  A    between atoms: C_12  and  C_13
REMARK    7  A    between atoms: C_12  and  C_20
REMARK    8  A    between atoms: C_13  and  N_14
REMARK    9  A    between atoms: N_14  and  C_15
REMARK   10  A    between atoms: C_15  and  C_16
REMARK   11  A    between atoms: C_16  and  C_17
REMARK   12  A    between atoms: C_17  and  C_18
REMARK   13  A    between atoms: C_18  and  O_19
REMARK                            x       y       z     vdW  Elec       q    Type
REMARK                         _______ _______ _______ _____ _____    ______ ____
ROOT
ATOM      1  C   UNL     1       4.624   5.359  18.180  0.00  0.00    +0.000 C 
ENDROOT
BRANCH   1   2
ATOM      2  C   UNL     1       3.532   6.447  18.473  0.00  0.00    +0.000 A 
ATOM      3  C   UNL     1       3.171   7.432  17.517  0.00  0.00    +0.000 A 
ATOM      4  C   UNL     1       2.276   8.461  17.831  0.00  0.00    +0.000 A 
ATOM      5  C   UNL     1       1.687   8.524  19.087  0.00  0.00    +0.000 A 
ATOM      6  C   UNL     1       1.962   7.539  20.026  0.00  0.00    +0.000 A 
ATOM      7  C   UNL     1       2.860   6.516  19.728  0.00  0.00    +0.000 A 
ENDBRANCH   1   2
BRANCH   1   8
ATOM      8  C   UNL     1       5.970   5.868  17.436  0.00  0.00    +0.000 C 
BRANCH   8   9
ATOM      9  C   UNL     1       6.137   5.161  16.051  0.00  0.00    +0.000 A 
ATOM     10  C   UNL     1       7.255   5.373  15.199  0.00  0.00    +0.000 A 
ATOM     11  C   UNL     1       7.335   4.772  13.941  0.00  0.00    +0.000 A 
ATOM     12  C   UNL     1       6.320   3.930  13.498  0.00  0.00    +0.000 A 
ATOM     13 BR   UNL     1       6.441   3.120  11.771  0.00  0.00    +0.000 Br
ATOM     14  C   UNL     1       5.217   3.687  14.317  0.00  0.00    +0.000 A 
ATOM     15  C   UNL     1       5.119   4.300  15.569  0.00  0.00    +0.000 A 
ENDBRANCH   8   9
BRANCH   8  17
ATOM     16  C   UNL     1       8.097   6.927  18.617  0.00  0.00    +0.000 C 
ATOM     17  C   UNL     1       7.275   5.679  18.293  0.00  0.00    +0.000 C 
ENDBRANCH   8  17
BRANCH   8  18
ATOM     18  O   UNL     1       5.879   7.240  17.145  0.00  0.00    +0.000 OA
ATOM     19  H   UNL     1       5.116   7.385  16.524  0.00  0.00    +0.000 HD
ENDBRANCH   8  18
ENDBRANCH   1   8
BRANCH   1  20
ATOM     20  C   UNL     1       4.988   4.527  19.460  0.00  0.00    +0.000 C 
BRANCH  20  21
ATOM     21  N   UNL     1       5.002   3.095  19.132  0.00  0.00    +0.000 NA
ATOM     22  H   UNL     1       5.840   2.622  19.527  0.00  0.00    +0.000 HD
BRANCH  21  23
ATOM     23  C   UNL     1       3.837   2.330  19.548  0.00  0.00    +0.000 C 
BRANCH  23  24
ATOM     24  C   UNL     1       2.966   2.138  18.300  0.00  0.00    +0.000 C 
BRANCH  24  25
ATOM     25  C   UNL     1       1.474   2.142  18.611  0.00  0.00    +0.000 C 
BRANCH  25  26
ATOM     26  C   UNL     1       1.102   3.405  19.393  0.00  0.00    +0.000 C 
BRANCH  26  27
ATOM     27  O   UNL     1       0.590   3.065  20.650  0.00  0.00    +0.000 OA
ATOM     28  H   UNL     1       0.656   3.884  21.210  0.00  0.00    +0.000 HD
ENDBRANCH  26  27
ENDBRANCH  25  26
ENDBRANCH  24  25
ENDBRANCH  23  24
ENDBRANCH  21  23
ENDBRANCH  20  21
ENDBRANCH   1  20
TORSDOF 12
ENDMDL
MODEL 3
REMARK VINA RESULT:      -6.9      3.380      6.671
REMARK  Name = 
REMARK  13 active torsions:
REMARK  status: ('A' for Active; 'I' for Inactive)
REMARK    1  A    between atoms: C_1  and  C_2
REMARK    2  A    between atoms: C_2  and  C_3
REMARK    3  A    between atoms: C_3  and  O_4
REMARK    4  A    between atoms: C_3  and  C_5
REMARK    5  A    between atoms: C_3  and  C_12
REMARK    6  A    between atoms: C_12  and  C_13
REMARK    7  A    between atoms: C_12  and  C_20
REMARK    8  A    between atoms: C_13  and  N_14
REMARK    9  A    between atoms: N_14  and  C_15
REMARK   10  A    between atoms: C_15  and  C_16
REMARK   11  A    between atoms: C_16  and  C_17
REMARK   12  A    between atoms: C_17  and  C_18
REMARK   13  A    between atoms: C_18  and  O_19
REMARK                            x       y       z     vdW  Elec       q    Type
REMARK                         _______ _______ _______ _____ _____    ______ ____
ROOT
ATOM      1  C   UNL     1       4.388   5.269  18.057  0.00  0.00    +0.000 C 
ENDROOT
BRANCH   1   2
ATOM      2  C   UNL     1       3.394   6.424  18.435  0.00  0.00    +0.000 A 
ATOM      3  C   UNL     1       3.098   7.488  17.544  0.00  0.00    +0.000 A 
ATOM      4  C   UNL     1       2.296   8.566  17.935  0.00  0.00    +0.000 A 
ATOM      5  C   UNL     1       1.734   8.603  19.205  0.00  0.00    +0.000 A 
ATOM      6  C   UNL     1       1.944   7.546  20.080  0.00  0.00    +0.000 A 
ATOM      7  C   UNL     1       2.750   6.473  19.705  0.00  0.00    +0.000 A 
ENDBRANCH   1   2
BRANCH   1   8
ATOM      8  C   UNL     1       5.813   5.719  17.432  0.00  0.00    +0.000 C 
BRANCH   8   9
ATOM      9  C   UNL     1       5.991   5.143  15.989  0.00  0.00    +0.000 A 
ATOM     10  C   UNL     1       5.013   4.336  15.347  0.00  0.00    +0.000 A 
ATOM     11  C   UNL     1       5.237   3.788  14.083  0.00  0.00    +0.000 A 
ATOM     12  C   UNL     1       6.430   4.037  13.410  0.00  0.00    +0.000 A 
ATOM     13 BR   UNL     1       6.726   3.273  11.684  0.00  0.00    +0.000 Br
ATOM     14  C   UNL     1       7.404   4.838  14.006  0.00  0.00    +0.000 A 
ATOM     15  C   UNL     1       7.196   5.374  15.279  0.00  0.00    +0.000 A 
ENDBRANCH   8   9
BRANCH   8  17
ATOM     16  C   UNL     1       7.948   6.447  18.829  0.00  0.00    +0.000 C 
ATOM     17  C   UNL     1       7.047   5.321  18.321  0.00  0.00    +0.000 C 
ENDBRANCH   8  17
BRANCH   8  18
ATOM     18  O   UNL     1       5.863   7.117  17.283  0.00  0.00    +0.000 OA
ATOM     19  H   UNL     1       5.290   7.533  17.981  0.00  0.00    +0.000 HD
ENDBRANCH   8  18
ENDBRANCH   1   8
BRANCH   1  20
ATOM     20  C   UNL     1       4.604   4.264  19.242  0.00  0.00    +0.000 C 
BRANCH  20  21
ATOM     21  N   UNL     1       4.361   2.891  18.777  0.00  0.00    +0.000 NA
ATOM     22  H   UNL     1       5.252   2.367  18.657  0.00  0.00    +0.000 HD
BRANCH  21  23
ATOM     23  C   UNL     1       3.488   2.078  19.608  0.00  0.00    +0.000 C 
BRANCH  23  24
ATOM     24  C   UNL     1       2.057   2.310  19.104  0.00  0.00    +0.000 C 
BRANCH  24  25
ATOM     25  C   UNL     1       1.179   3.028  20.121  0.00  0.00    +0.000 C 
BRANCH  25  26
ATOM     26  C   UNL     1       1.898   3.113  21.471  0.00  0.00    +0.000 C 
BRANCH  26  27
ATOM     27  O   UNL     1       1.204   2.377  22.439  0.00  0.00    +0.000 OA
ATOM     28  H   UNL     1       0.412   1.991  21.982  0.00  0.00    +0.000 HD
ENDBRANCH  26  27
ENDBRANCH  25  26
ENDBRANCH  24  25
ENDBRANCH  23  24
ENDBRANCH  21  23
ENDBRANCH  20  21
ENDBRANCH   1  20
TORSDOF 12
ENDMDL
MODEL 4
REMARK VINA RESULT:      -6.9      2.853      5.838
REMARK  Name = 
REMARK  13 active torsions:
REMARK  status: ('A' for Active; 'I' for Inactive)
REMARK    1  A    between atoms: C_1  and  C_2
REMARK    2  A    between atoms: C_2  and  C_3
REMARK    3  A    between atoms: C_3  and  O_4
REMARK    4  A    between atoms: C_3  and  C_5
REMARK    5  A    between atoms: C_3  and  C_12
REMARK    6  A    between atoms: C_12  and  C_13
REMARK    7  A    between atoms: C_12  and  C_20
REMARK    8  A    between atoms: C_13  and  N_14
REMARK    9  A    between atoms: N_14  and  C_15
REMARK   10  A    between atoms: C_15  and  C_16
REMARK   11  A    between atoms: C_16  and  C_17
REMARK   12  A    between atoms: C_17  and  C_18
REMARK   13  A    between atoms: C_18  and  O_19
REMARK                            x       y       z     vdW  Elec       q    Type
REMARK                         _______ _______ _______ _____ _____    ______ ____
ROOT
ATOM      1  C   UNL     1       4.602   4.637  17.778  0.00  0.00    +0.000 C 
ENDROOT
BRANCH   1   2
ATOM      2  C   UNL     1       3.765   5.893  18.206  0.00  0.00    +0.000 A 
ATOM      3  C   UNL     1       3.190   6.014  19.497  0.00  0.00    +0.000 A 
ATOM      4  C   UNL     1       2.355   7.087  19.828  0.00  0.00    +0.000 A 
ATOM      5  C   UNL     1       2.097   8.090  18.903  0.00  0.00    +0.000 A 
ATOM      6  C   UNL     1       2.698   8.043  17.652  0.00  0.00    +0.000 A 
ATOM      7  C   UNL     1       3.521   6.973  17.308  0.00  0.00    +0.000 A 
ENDBRANCH   1   2
BRANCH   1   8
ATOM      8  C   UNL     1       5.932   4.920  16.897  0.00  0.00    +0.000 C 
BRANCH   8   9
ATOM      9  C   UNL     1       6.698   6.170  17.440  0.00  0.00    +0.000 A 
ATOM     10  C   UNL     1       6.551   7.473  16.891  0.00  0.00    +0.000 A 
ATOM     11  C   UNL     1       7.301   8.551  17.363  0.00  0.00    +0.000 A 
ATOM     12  C   UNL     1       8.208   8.375  18.404  0.00  0.00    +0.000 A 
ATOM     13 BR   UNL     1       9.234   9.859  19.034  0.00  0.00    +0.000 Br
ATOM     14  C   UNL     1       8.364   7.113  18.977  0.00  0.00    +0.000 A 
ATOM     15  C   UNL     1       7.632   6.024  18.497  0.00  0.00    +0.000 A 
ENDBRANCH   8   9
BRANCH   8  17
ATOM     16  C   UNL     1       6.748   4.679  14.384  0.00  0.00    +0.000 C 
ATOM     17  C   UNL     1       5.647   5.095  15.361  0.00  0.00    +0.000 C 
ENDBRANCH   8  17
BRANCH   8  18
ATOM     18  O   UNL     1       6.836   3.850  17.016  0.00  0.00    +0.000 OA
ATOM     19  H   UNL     1       7.305   3.730  16.148  0.00  0.00    +0.000 HD
ENDBRANCH   8  18
ENDBRANCH   1   8
BRANCH   1  20
ATOM     20  C   UNL     1       4.942   3.709  18.998  0.00  0.00    +0.000 C 
BRANCH  20  21
ATOM     21  N   UNL     1       4.218   2.438  18.869  0.00  0.00    +0.000 NA
ATOM     22  H   UNL     1       3.666   2.226  19.725  0.00  0.00    +0.000 HD
BRANCH  21  23
ATOM     23  C   UNL     1       3.315   2.326  17.734  0.00  0.00    +0.000 C 
BRANCH  23  24
ATOM     24  C   UNL     1       1.901   2.599  18.266  0.00  0.00    +0.000 C 
BRANCH  24  25
ATOM     25  C   UNL     1       1.633   1.927  19.607  0.00  0.00    +0.000 C 
BRANCH  25  26
ATOM     26  C   UNL     1       1.422   2.986  20.694  0.00  0.00    +0.000 C 
BRANCH  26  27
ATOM     27  O   UNL     1       0.412   3.878  20.313  0.00  0.00    +0.000 OA
ATOM     28  H   UNL     1      -0.047   4.155  21.149  0.00  0.00    +0.000 HD
ENDBRANCH  26  27
ENDBRANCH  25  26
ENDBRANCH  24  25
ENDBRANCH  23  24
ENDBRANCH  21  23
ENDBRANCH  20  21
ENDBRANCH   1  20
TORSDOF 12
ENDMDL
MODEL 5
REMARK VINA RESULT:      -6.9      2.851      5.987
REMARK  Name = 
REMARK  13 active torsions:
REMARK  status: ('A' for Active; 'I' for Inactive)
REMARK    1  A    between atoms: C_1  and  C_2
REMARK    2  A    between atoms: C_2  and  C_3
REMARK    3  A    between atoms: C_3  and  O_4
REMARK    4  A    between atoms: C_3  and  C_5
REMARK    5  A    between atoms: C_3  and  C_12
REMARK    6  A    between atoms: C_12  and  C_13
REMARK    7  A    between atoms: C_12  and  C_20
REMARK    8  A    between atoms: C_13  and  N_14
REMARK    9  A    between atoms: N_14  and  C_15
REMARK   10  A    between atoms: C_15  and  C_16
REMARK   11  A    between atoms: C_16  and  C_17
REMARK   12  A    between atoms: C_17  and  C_18
REMARK   13  A    between atoms: C_18  and  O_19
REMARK                            x       y       z     vdW  Elec       q    Type
REMARK                         _______ _______ _______ _____ _____    ______ ____
ROOT
ATOM      1  C   UNL     1       4.485   4.544  17.880  0.00  0.00    +0.000 C 
ENDROOT
BRANCH   1   2
ATOM      2  C   UNL     1       3.595   5.785  18.244  0.00  0.00    +0.000 A 
ATOM      3  C   UNL     1       3.198   6.741  17.274  0.00  0.00    +0.000 A 
ATOM      4  C   UNL     1       2.497   7.898  17.632  0.00  0.00    +0.000 A 
ATOM      5  C   UNL     1       2.138   8.123  18.955  0.00  0.00    +0.000 A 
ATOM      6  C   UNL     1       2.448   7.177  19.922  0.00  0.00    +0.000 A 
ATOM      7  C   UNL     1       3.155   6.027  19.578  0.00  0.00    +0.000 A 
ENDBRANCH   1   2
BRANCH   1   8
ATOM      8  C   UNL     1       5.766   4.829  16.931  0.00  0.00    +0.000 C 
BRANCH   8   9
ATOM      9  C   UNL     1       6.562   6.076  17.435  0.00  0.00    +0.000 A 
ATOM     10  C   UNL     1       6.453   7.363  16.841  0.00  0.00    +0.000 A 
ATOM     11  C   UNL     1       7.229   8.436  17.282  0.00  0.00    +0.000 A 
ATOM     12  C   UNL     1       8.125   8.271  18.334  0.00  0.00    +0.000 A 
ATOM     13 BR   UNL     1       9.187   9.748  18.919  0.00  0.00    +0.000 Br
ATOM     14  C   UNL     1       8.245   7.026  18.950  0.00  0.00    +0.000 A 
ATOM     15  C   UNL     1       7.486   5.941  18.503  0.00  0.00    +0.000 A 
ENDBRANCH   8   9
BRANCH   8  17
ATOM     16  C   UNL     1       6.195   4.196  14.390  0.00  0.00    +0.000 C 
ATOM     17  C   UNL     1       5.399   5.008  15.412  0.00  0.00    +0.000 C 
ENDBRANCH   8  17
BRANCH   8  18
ATOM     18  O   UNL     1       6.673   3.756  16.998  0.00  0.00    +0.000 OA
ATOM     19  H   UNL     1       7.440   3.948  16.395  0.00  0.00    +0.000 HD
ENDBRANCH   8  18
ENDBRANCH   1   8
BRANCH   1  20
ATOM     20  C   UNL     1       4.917   3.733  19.152  0.00  0.00    +0.000 C 
BRANCH  20  21
ATOM     21  N   UNL     1       4.156   2.478  19.220  0.00  0.00    +0.000 NA
ATOM     22  H   UNL     1       3.848   2.272  20.193  0.00  0.00    +0.000 HD
BRANCH  21  23
ATOM     23  C   UNL     1       2.980   2.395  18.367  0.00  0.00    +0.000 C 
BRANCH  23  24
ATOM     24  C   UNL     1       1.820   1.932  19.259  0.00  0.00    +0.000 C 
BRANCH  24  25
ATOM     25  C   UNL     1       0.952   3.085  19.749  0.00  0.00    +0.000 C 
BRANCH  25  26
ATOM     26  C   UNL     1       1.357   3.481  21.172  0.00  0.00    +0.000 C 
BRANCH  26  27
ATOM     27  O   UNL     1       1.569   2.339  21.953  0.00  0.00    +0.000 OA
ATOM     28  H   UNL     1       2.159   1.742  21.421  0.00  0.00    +0.000 HD
ENDBRANCH  26  27
ENDBRANCH  25  26
ENDBRANCH  24  25
ENDBRANCH  23  24
ENDBRANCH  21  23
ENDBRANCH  20  21
ENDBRANCH   1  20
TORSDOF 12
ENDMDL
MODEL 6
REMARK VINA RESULT:      -6.8      2.615      5.196
REMARK  Name = 
REMARK  13 active torsions:
REMARK  status: ('A' for Active; 'I' for Inactive)
REMARK    1  A    between atoms: C_1  and  C_2
REMARK    2  A    between atoms: C_2  and  C_3
REMARK    3  A    between atoms: C_3  and  O_4
REMARK    4  A    between atoms: C_3  and  C_5
REMARK    5  A    between atoms: C_3  and  C_12
REMARK    6  A    between atoms: C_12  and  C_13
REMARK    7  A    between atoms: C_12  and  C_20
REMARK    8  A    between atoms: C_13  and  N_14
REMARK    9  A    between atoms: N_14  and  C_15
REMARK   10  A    between atoms: C_15  and  C_16
REMARK   11  A    between atoms: C_16  and  C_17
REMARK   12  A    between atoms: C_17  and  C_18
REMARK   13  A    between atoms: C_18  and  O_19
REMARK                            x       y       z     vdW  Elec       q    Type
REMARK                         _______ _______ _______ _____ _____    ______ ____
ROOT
ATOM      1  C   UNL     1       4.663   5.513  18.406  0.00  0.00    +0.000 C 
ENDROOT
BRANCH   1   2
ATOM      2  C   UNL     1       5.084   5.203  16.926  0.00  0.00    +0.000 A 
ATOM      3  C   UNL     1       5.108   6.205  15.921  0.00  0.00    +0.000 A 
ATOM      4  C   UNL     1       5.379   5.893  14.584  0.00  0.00    +0.000 A 
ATOM      5  C   UNL     1       5.670   4.587  14.210  0.00  0.00    +0.000 A 
ATOM      6  C   UNL     1       5.725   3.592  15.176  0.00  0.00    +0.000 A 
ATOM      7  C   UNL     1       5.446   3.889  16.508  0.00  0.00    +0.000 A 
ENDBRANCH   1   2
BRANCH   1   8
ATOM      8  C   UNL     1       3.082   5.412  18.743  0.00  0.00    +0.000 C 
BRANCH   8   9
ATOM      9  C   UNL     1       2.469   6.835  18.948  0.00  0.00    +0.000 A 
ATOM     10  C   UNL     1       1.969   7.296  20.197  0.00  0.00    +0.000 A 
ATOM     11  C   UNL     1       1.371   8.551  20.323  0.00  0.00    +0.000 A 
ATOM     12  C   UNL     1       1.264   9.393  19.220  0.00  0.00    +0.000 A 
ATOM     13 BR   UNL     1       0.435  11.105  19.407  0.00  0.00    +0.000 Br
ATOM     14  C   UNL     1       1.759   8.979  17.984  0.00  0.00    +0.000 A 
ATOM     15  C   UNL     1       2.342   7.717  17.844  0.00  0.00    +0.000 A 
ENDBRANCH   8   9
BRANCH   8  17
ATOM     16  C   UNL     1       1.730   3.390  19.804  0.00  0.00    +0.000 C 
ATOM     17  C   UNL     1       2.758   4.507  19.988  0.00  0.00    +0.000 C 
ENDBRANCH   8  17
BRANCH   8  18
ATOM     18  O   UNL     1       2.384   4.859  17.655  0.00  0.00    +0.000 OA
ATOM     19  H   UNL     1       3.031   4.661  16.927  0.00  0.00    +0.000 HD
ENDBRANCH   8  18
ENDBRANCH   1   8
BRANCH   1  20
ATOM     20  C   UNL     1       5.498   4.682  19.444  0.00  0.00    +0.000 C 
BRANCH  20  21
ATOM     21  N   UNL     1       6.676   5.454  19.861  0.00  0.00    +0.000 NA
ATOM     22  H   UNL     1       7.059   5.106  20.764  0.00  0.00    +0.000 HD
BRANCH  21  23
ATOM     23  C   UNL     1       7.779   5.503  18.914  0.00  0.00    +0.000 C 
BRANCH  23  24
ATOM     24  C   UNL     1       8.250   6.962  18.860  0.00  0.00    +0.000 C 
BRANCH  24  25
ATOM     25  C   UNL     1       7.857   7.665  17.566  0.00  0.00    +0.000 C 
BRANCH  25  26
ATOM     26  C   UNL     1       7.726   9.172  17.804  0.00  0.00    +0.000 C 
BRANCH  26  27
ATOM     27  O   UNL     1       8.946   9.705  18.235  0.00  0.00    +0.000 OA
ATOM     28  H   UNL     1       8.895   9.756  19.226  0.00  0.00    +0.000 HD
ENDBRANCH  26  27
ENDBRANCH  25  26
ENDBRANCH  24  25
ENDBRANCH  23  24
ENDBRANCH  21  23
ENDBRANCH  20  21
ENDBRANCH   1  20
TORSDOF 12
ENDMDL
MODEL 7
REMARK VINA RESULT:      -6.8      1.352      2.120
REMARK  Name = 
REMARK  13 active torsions:
REMARK  status: ('A' for Active; 'I' for Inactive)
REMARK    1  A    between atoms: C_1  and  C_2
REMARK    2  A    between atoms: C_2  and  C_3
REMARK    3  A    between atoms: C_3  and  O_4
REMARK    4  A    between atoms: C_3  and  C_5
REMARK    5  A    between atoms: C_3  and  C_12
REMARK    6  A    between atoms: C_12  and  C_13
REMARK    7  A    between atoms: C_12  and  C_20
REMARK    8  A    between atoms: C_13  and  N_14
REMARK    9  A    between atoms: N_14  and  C_15
REMARK   10  A    between atoms: C_15  and  C_16
REMARK   11  A    between atoms: C_16  and  C_17
REMARK   12  A    between atoms: C_17  and  C_18
REMARK   13  A    between atoms: C_18  and  O_19
REMARK                            x       y       z     vdW  Elec       q    Type
REMARK                         _______ _______ _______ _____ _____    ______ ____
ROOT
ATOM      1  C   UNL     1       3.188   4.820  17.704  0.00  0.00    +0.000 C 
ENDROOT
BRANCH   1   2
ATOM      2  C   UNL     1       2.593   4.061  18.943  0.00  0.00    +0.000 A 
ATOM      3  C   UNL     1       3.418   3.499  19.951  0.00  0.00    +0.000 A 
ATOM      4  C   UNL     1       2.881   2.731  20.991  0.00  0.00    +0.000 A 
ATOM      5  C   UNL     1       1.509   2.530  21.082  0.00  0.00    +0.000 A 
ATOM      6  C   UNL     1       0.664   3.123  20.153  0.00  0.00    +0.000 A 
ATOM      7  C   UNL     1       1.190   3.879  19.108  0.00  0.00    +0.000 A 
ENDBRANCH   1   2
BRANCH   1   8
ATOM      8  C   UNL     1       3.942   6.221  18.008  0.00  0.00    +0.000 C 
BRANCH   8   9
ATOM      9  C   UNL     1       2.936   7.279  18.568  0.00  0.00    +0.000 A 
ATOM     10  C   UNL     1       2.400   7.225  19.883  0.00  0.00    +0.000 A 
ATOM     11  C   UNL     1       1.455   8.154  20.323  0.00  0.00    +0.000 A 
ATOM     12  C   UNL     1       1.026   9.174  19.479  0.00  0.00    +0.000 A 
ATOM     13 BR   UNL     1      -0.273  10.433  20.094  0.00  0.00    +0.000 Br
ATOM     14  C   UNL     1       1.545   9.266  18.188  0.00  0.00    +0.000 A 
ATOM     15  C   UNL     1       2.476   8.329  17.733  0.00  0.00    +0.000 A 
ENDBRANCH   8   9
BRANCH   8  17
ATOM     16  C   UNL     1       6.126   7.326  16.985  0.00  0.00    +0.000 C 
ATOM     17  C   UNL     1       4.702   6.812  16.766  0.00  0.00    +0.000 C 
ENDBRANCH   8  17
BRANCH   8  18
ATOM     18  O   UNL     1       4.903   6.050  19.020  0.00  0.00    +0.000 OA
ATOM     19  H   UNL     1       4.775   5.155  19.434  0.00  0.00    +0.000 HD
ENDBRANCH   8  18
ENDBRANCH   1   8
BRANCH   1  20
ATOM     20  C   UNL     1       4.095   3.891  16.822  0.00  0.00    +0.000 C 
BRANCH  20  21
ATOM     21  N   UNL     1       5.425   3.772  17.435  0.00  0.00    +0.000 NA
ATOM     22  H   UNL     1       5.540   2.858  17.920  0.00  0.00    +0.000 HD
BRANCH  21  23
ATOM     23  C   UNL     1       6.560   3.934  16.541  0.00  0.00    +0.000 C 
BRANCH  23  24
ATOM     24  C   UNL     1       6.012   3.840  15.111  0.00  0.00    +0.000 C 
BRANCH  24  25
ATOM     25  C   UNL     1       6.783   4.706  14.122  0.00  0.00    +0.000 C 
BRANCH  25  26
ATOM     26  C   UNL     1       6.701   4.101  12.717  0.00  0.00    +0.000 C 
BRANCH  26  27
ATOM     27  O   UNL     1       6.270   2.771  12.785  0.00  0.00    +0.000 OA
ATOM     28  H   UNL     1       5.549   2.744  13.467  0.00  0.00    +0.000 HD
ENDBRANCH  26  27
ENDBRANCH  25  26
ENDBRANCH  24  25
ENDBRANCH  23  24
ENDBRANCH  21  23
ENDBRANCH  20  21
ENDBRANCH   1  20
TORSDOF 12
ENDMDL
MODEL 8
REMARK VINA RESULT:      -6.8      2.302      5.606
REMARK  Name = 
REMARK  13 active torsions:
REMARK  status: ('A' for Active; 'I' for Inactive)
REMARK    1  A    between atoms: C_1  and  C_2
REMARK    2  A    between atoms: C_2  and  C_3
REMARK    3  A    between atoms: C_3  and  O_4
REMARK    4  A    between atoms: C_3  and  C_5
REMARK    5  A    between atoms: C_3  and  C_12
REMARK    6  A    between atoms: C_12  and  C_13
REMARK    7  A    between atoms: C_12  and  C_20
REMARK    8  A    between atoms: C_13  and  N_14
REMARK    9  A    between atoms: N_14  and  C_15
REMARK   10  A    between atoms: C_15  and  C_16
REMARK   11  A    between atoms: C_16  and  C_17
REMARK   12  A    between atoms: C_17  and  C_18
REMARK   13  A    between atoms: C_18  and  O_19
REMARK                            x       y       z     vdW  Elec       q    Type
REMARK                         _______ _______ _______ _____ _____    ______ ____
ROOT
ATOM      1  C   UNL     1       5.617   3.569  16.881  0.00  0.00    +0.000 C 
ENDROOT
BRANCH   1   2
ATOM      2  C   UNL     1       6.006   3.973  15.415  0.00  0.00    +0.000 A 
ATOM      3  C   UNL     1       5.271   3.522  14.287  0.00  0.00    +0.000 A 
ATOM      4  C   UNL     1       5.694   3.800  12.982  0.00  0.00    +0.000 A 
ATOM      5  C   UNL     1       6.833   4.563  12.757  0.00  0.00    +0.000 A 
ATOM      6  C   UNL     1       7.538   5.080  13.835  0.00  0.00    +0.000 A 
ATOM      7  C   UNL     1       7.133   4.800  15.139  0.00  0.00    +0.000 A 
ENDBRANCH   1   2
BRANCH   1   8
ATOM      8  C   UNL     1       5.963   4.643  18.042  0.00  0.00    +0.000 C 
BRANCH   8   9
ATOM      9  C   UNL     1       4.875   5.765  18.100  0.00  0.00    +0.000 A 
ATOM     10  C   UNL     1       3.904   5.855  19.134  0.00  0.00    +0.000 A 
ATOM     11  C   UNL     1       2.909   6.834  19.115  0.00  0.00    +0.000 A 
ATOM     12  C   UNL     1       2.857   7.763  18.080  0.00  0.00    +0.000 A 
ATOM     13 BR   UNL     1       1.485   9.093  18.064  0.00  0.00    +0.000 Br
ATOM     14  C   UNL     1       3.806   7.713  17.059  0.00  0.00    +0.000 A 
ATOM     15  C   UNL     1       4.793   6.725  17.060  0.00  0.00    +0.000 A 
ENDBRANCH   8   9
BRANCH   8  17
ATOM     16  C   UNL     1       7.912   6.120  19.074  0.00  0.00    +0.000 C 
ATOM     17  C   UNL     1       7.389   5.290  17.900  0.00  0.00    +0.000 C 
ENDBRANCH   8  17
BRANCH   8  18
ATOM     18  O   UNL     1       5.929   4.027  19.306  0.00  0.00    +0.000 OA
ATOM     19  H   UNL     1       6.863   3.887  19.618  0.00  0.00    +0.000 HD
ENDBRANCH   8  18
ENDBRANCH   1   8
BRANCH   1  20
ATOM     20  C   UNL     1       4.120   3.110  16.990  0.00  0.00    +0.000 C 
BRANCH  20  21
ATOM     21  N   UNL     1       4.019   1.970  17.912  0.00  0.00    +0.000 NA
ATOM     22  H   UNL     1       4.786   1.980  18.615  0.00  0.00    +0.000 HD
BRANCH  21  23
ATOM     23  C   UNL     1       2.766   1.845  18.642  0.00  0.00    +0.000 C 
BRANCH  23  24
ATOM     24  C   UNL     1       1.892   3.035  18.223  0.00  0.00    +0.000 C 
BRANCH  24  25
ATOM     25  C   UNL     1       0.869   3.421  19.284  0.00  0.00    +0.000 C 
BRANCH  25  26
ATOM     26  C   UNL     1       1.545   3.532  20.654  0.00  0.00    +0.000 C 
BRANCH  26  27
ATOM     27  O   UNL     1       0.896   2.712  21.584  0.00  0.00    +0.000 OA
ATOM     28  H   UNL     1       1.585   2.090  21.939  0.00  0.00    +0.000 HD
ENDBRANCH  26  27
ENDBRANCH  25  26
ENDBRANCH  24  25
ENDBRANCH  23  24
ENDBRANCH  21  23
ENDBRANCH  20  21
ENDBRANCH   1  20
TORSDOF 12
ENDMDL
MODEL 9
REMARK VINA RESULT:      -6.8      2.670      5.225
REMARK  Name = 
REMARK  13 active torsions:
REMARK  status: ('A' for Active; 'I' for Inactive)
REMARK    1  A    between atoms: C_1  and  C_2
REMARK    2  A    between atoms: C_2  and  C_3
REMARK    3  A    between atoms: C_3  and  O_4
REMARK    4  A    between atoms: C_3  and  C_5
REMARK    5  A    between atoms: C_3  and  C_12
REMARK    6  A    between atoms: C_12  and  C_13
REMARK    7  A    between atoms: C_12  and  C_20
REMARK    8  A    between atoms: C_13  and  N_14
REMARK    9  A    between atoms: N_14  and  C_15
REMARK   10  A    between atoms: C_15  and  C_16
REMARK   11  A    between atoms: C_16  and  C_17
REMARK   12  A    between atoms: C_17  and  C_18
REMARK   13  A    between atoms: C_18  and  O_19
REMARK                            x       y       z     vdW  Elec       q    Type
REMARK                         _______ _______ _______ _____ _____    ______ ____
ROOT
ATOM      1  C   UNL     1       4.384   5.608  18.474  0.00  0.00    +0.000 C 
ENDROOT
BRANCH   1   2
ATOM      2  C   UNL     1       4.825   5.223  17.018  0.00  0.00    +0.000 A 
ATOM      3  C   UNL     1       5.140   3.888  16.652  0.00  0.00    +0.000 A 
ATOM      4  C   UNL     1       5.636   3.576  15.381  0.00  0.00    +0.000 A 
ATOM      5  C   UNL     1       5.800   4.571  14.425  0.00  0.00    +0.000 A 
ATOM      6  C   UNL     1       5.437   5.877  14.723  0.00  0.00    +0.000 A 
ATOM      7  C   UNL     1       4.952   6.200  15.989  0.00  0.00    +0.000 A 
ENDBRANCH   1   2
BRANCH   1   8
ATOM      8  C   UNL     1       2.790   5.641  18.761  0.00  0.00    +0.000 C 
BRANCH   8   9
ATOM      9  C   UNL     1       2.288   7.113  18.922  0.00  0.00    +0.000 A 
ATOM     10  C   UNL     1       1.802   7.640  20.149  0.00  0.00    +0.000 A 
ATOM     11  C   UNL     1       1.302   8.941  20.236  0.00  0.00    +0.000 A 
ATOM     12  C   UNL     1       1.285   9.764  19.113  0.00  0.00    +0.000 A 
ATOM     13 BR   UNL     1       0.591  11.540  19.246  0.00  0.00    +0.000 Br
ATOM     14  C   UNL     1       1.770   9.283  17.898  0.00  0.00    +0.000 A 
ATOM     15  C   UNL     1       2.253   7.976  17.797  0.00  0.00    +0.000 A 
ENDBRANCH   8   9
BRANCH   8  17
ATOM     16  C   UNL     1       1.314   3.691  19.790  0.00  0.00    +0.000 C 
ATOM     17  C   UNL     1       2.356   4.790  20.009  0.00  0.00    +0.000 C 
ENDBRANCH   8  17
BRANCH   8  18
ATOM     18  O   UNL     1       2.083   5.125  17.660  0.00  0.00    +0.000 OA
ATOM     19  H   UNL     1       2.574   4.336  17.307  0.00  0.00    +0.000 HD
ENDBRANCH   8  18
ENDBRANCH   1   8
BRANCH   1  20
ATOM     20  C   UNL     1       5.118   4.747  19.561  0.00  0.00    +0.000 C 
BRANCH  20  21
ATOM     21  N   UNL     1       6.564   4.751  19.302  0.00  0.00    +0.000 NA
ATOM     22  H   UNL     1       6.770   4.613  18.291  0.00  0.00    +0.000 HD
BRANCH  21  23
ATOM     23  C   UNL     1       7.289   5.935  19.734  0.00  0.00    +0.000 C 
BRANCH  23  24
ATOM     24  C   UNL     1       8.140   6.391  18.540  0.00  0.00    +0.000 C 
BRANCH  24  25
ATOM     25  C   UNL     1       7.463   7.474  17.709  0.00  0.00    +0.000 C 
BRANCH  25  26
ATOM     26  C   UNL     1       8.144   8.825  17.950  0.00  0.00    +0.000 C 
BRANCH  26  27
ATOM     27  O   UNL     1       8.987   8.752  19.065  0.00  0.00    +0.000 OA
ATOM     28  H   UNL     1       9.694   8.091  18.839  0.00  0.00    +0.000 HD
ENDBRANCH  26  27
ENDBRANCH  25  26
ENDBRANCH  24  25
ENDBRANCH  23  24
ENDBRANCH  21  23
ENDBRANCH  20  21
ENDBRANCH   1  20
TORSDOF 12
ENDMDL
