MODEL 1
REMARK VINA RESULT:     -10.2      0.000      0.000
REMARK  Name = 
REMARK  5 active torsions:
REMARK  status: ('A' for Active; 'I' for Inactive)
REMARK    1  A    between atoms: O_1  and  C_2
REMARK    2  A    between atoms: C_6  and  C_7
REMARK    3  A    between atoms: C_8  and  C_9
REMARK    4  A    between atoms: C_16  and  C_17
REMARK    5  A    between atoms: C_22  and  C_23
REMARK                            x       y       z     vdW  Elec       q    Type
REMARK                         _______ _______ _______ _____ _____    ______ ____
ROOT
ATOM      1  C   UNL     1       2.613   6.473  18.510  0.00  0.00    +0.000 A 
ATOM      2  C   UNL     1       2.118   5.248  18.979  0.00  0.00    +0.000 A 
ATOM      3  N   UNL     1       1.862   4.430  17.963  0.00  0.00    +0.000 NA
ATOM      4  C   UNL     1       3.025   4.584  17.428  0.00  0.00    +0.000 A 
ATOM      5  C   UNL     1       3.907   3.479  17.348  0.00  0.00    +0.000 A 
ATOM      6  N   UNL     1       5.150   3.710  17.163  0.00  0.00    +0.000 NA
ATOM      7  C   UNL     1       5.430   4.864  16.438  0.00  0.00    +0.000 A 
ATOM      8  C   UNL     1       4.755   6.041  16.741  0.00  0.00    +0.000 A 
ATOM      9  N   UNL     1       3.561   5.877  17.557  0.00  0.00    +0.000 N 
ENDROOT
BRANCH   1  14
ATOM     10  C   UNL     1       0.656  10.090  20.076  0.00  0.00    +0.000 A 
ATOM     11  C   UNL     1       0.801   8.999  20.938  0.00  0.00    +0.000 A 
ATOM     12  C   UNL     1       1.529   7.814  20.521  0.00  0.00    +0.000 A 
ATOM     13  F   UNL     1       1.478   6.755  21.329  0.00  0.00    +0.000 F 
ATOM     14  C   UNL     1       2.118   7.717  19.250  0.00  0.00    +0.000 A 
ATOM     15  C   UNL     1       1.874   8.853  18.420  0.00  0.00    +0.000 A 
ATOM     16  F   UNL     1       2.202   8.818  17.117  0.00  0.00    +0.000 F 
ATOM     17  C   UNL     1       1.185  10.013  18.805  0.00  0.00    +0.000 A 
BRANCH  10  18
ATOM     18  O   UNL     1      -0.030  11.223  20.417  0.00  0.00    +0.000 OA
ATOM     19  H   UNL     1      -0.701  11.056  21.097  0.00  0.00    +0.000 HD
ENDBRANCH  10  18
ENDBRANCH   1  14
BRANCH   7  20
ATOM     20  C   UNL     1       6.304   4.287  15.304  0.00  0.00    +0.000 A 
ATOM     21  C   UNL     1       7.434   4.998  14.868  0.00  0.00    +0.000 A 
ATOM     22  C   UNL     1       7.771   5.038  13.491  0.00  0.00    +0.000 A 
ATOM     23  C   UNL     1       6.964   4.438  12.520  0.00  0.00    +0.000 A 
ATOM     24  F   UNL     1       7.257   4.637  11.226  0.00  0.00    +0.000 F 
ATOM     25  C   UNL     1       5.846   3.716  12.883  0.00  0.00    +0.000 A 
ATOM     26  C   UNL     1       5.583   3.572  14.274  0.00  0.00    +0.000 A 
BRANCH  25  27
ATOM     27  C   UNL     1       4.861   3.241  11.844  0.00  0.00    +0.000 C 
ATOM     28  F   UNL     1       4.637   4.110  10.816  0.00  0.00    +0.000 F 
ATOM     29  F   UNL     1       5.240   2.073  11.252  0.00  0.00    +0.000 F 
ATOM     30  F   UNL     1       3.620   2.995  12.366  0.00  0.00    +0.000 F 
ENDBRANCH  25  27
ENDBRANCH   7  20
BRANCH   2  31
ATOM     31  C   UNL     1       2.329   4.689  20.367  0.00  0.00    +0.000 C 
ATOM     32  C   UNL     1       1.268   3.687  20.766  0.00  0.00    +0.000 C 
ATOM     33  C   UNL     1       2.662   3.216  20.594  0.00  0.00    +0.000 C 
ENDBRANCH   2  31
TORSDOF 5
ENDMDL
MODEL 2
REMARK VINA RESULT:      -9.2      3.574      5.848
REMARK  Name = 
REMARK  5 active torsions:
REMARK  status: ('A' for Active; 'I' for Inactive)
REMARK    1  A    between atoms: O_1  and  C_2
REMARK    2  A    between atoms: C_6  and  C_7
REMARK    3  A    between atoms: C_8  and  C_9
REMARK    4  A    between atoms: C_16  and  C_17
REMARK    5  A    between atoms: C_22  and  C_23
REMARK                            x       y       z     vdW  Elec       q    Type
REMARK                         _______ _______ _______ _____ _____    ______ ____
ROOT
ATOM      1  C   UNL     1       0.481  10.138  19.854  0.00  0.00    +0.000 A 
ATOM      2  C   UNL     1       0.350  10.347  18.474  0.00  0.00    +0.000 A 
ATOM      3  N   UNL     1       1.538  10.297  17.880  0.00  0.00    +0.000 NA
ATOM      4  C   UNL     1       1.858   9.168  18.415  0.00  0.00    +0.000 A 
ATOM      5  C   UNL     1       2.037   8.031  17.588  0.00  0.00    +0.000 A 
ATOM      6  N   UNL     1       1.990   6.876  18.132  0.00  0.00    +0.000 NA
ATOM      7  C   UNL     1       2.415   6.834  19.456  0.00  0.00    +0.000 A 
ATOM      8  C   UNL     1       1.976   7.809  20.344  0.00  0.00    +0.000 A 
ATOM      9  N   UNL     1       1.391   8.990  19.729  0.00  0.00    +0.000 N 
ENDROOT
BRANCH   1  14
ATOM     10  C   UNL     1      -1.612  12.417  22.982  0.00  0.00    +0.000 A 
ATOM     11  C   UNL     1      -1.249  13.092  21.814  0.00  0.00    +0.000 A 
ATOM     12  C   UNL     1      -0.651  12.379  20.699  0.00  0.00    +0.000 A 
ATOM     13  F   UNL     1      -0.177  13.114  19.693  0.00  0.00    +0.000 F 
ATOM     14  C   UNL     1      -0.420  10.995  20.744  0.00  0.00    +0.000 A 
ATOM     15  C   UNL     1      -0.772  10.398  21.994  0.00  0.00    +0.000 A 
ATOM     16  F   UNL     1      -0.423   9.127  22.256  0.00  0.00    +0.000 F 
ATOM     17  C   UNL     1      -1.362  11.064  23.080  0.00  0.00    +0.000 A 
BRANCH  10  18
ATOM     18  O   UNL     1      -2.168  13.043  24.064  0.00  0.00    +0.000 OA
ATOM     19  H   UNL     1      -2.369  13.976  23.885  0.00  0.00    +0.000 HD
ENDBRANCH  10  18
ENDBRANCH   1  14
BRANCH   7  20
ATOM     20  C   UNL     1       3.507   5.746  19.373  0.00  0.00    +0.000 A 
ATOM     21  C   UNL     1       4.642   5.960  18.575  0.00  0.00    +0.000 A 
ATOM     22  C   UNL     1       5.204   4.897  17.823  0.00  0.00    +0.000 A 
ATOM     23  C   UNL     1       4.617   3.628  17.793  0.00  0.00    +0.000 A 
ATOM     24  F   UNL     1       5.110   2.709  16.950  0.00  0.00    +0.000 F 
ATOM     25  C   UNL     1       3.507   3.350  18.563  0.00  0.00    +0.000 A 
ATOM     26  C   UNL     1       3.023   4.384  19.413  0.00  0.00    +0.000 A 
BRANCH  25  27
ATOM     27  C   UNL     1       2.747   2.058  18.387  0.00  0.00    +0.000 C 
ATOM     28  F   UNL     1       1.684   1.891  19.226  0.00  0.00    +0.000 F 
ATOM     29  F   UNL     1       2.239   1.913  17.130  0.00  0.00    +0.000 F 
ATOM     30  F   UNL     1       3.528   0.954  18.590  0.00  0.00    +0.000 F 
ENDBRANCH  25  27
ENDBRANCH   7  20
BRANCH   2  31
ATOM     31  C   UNL     1      -0.909  10.126  17.668  0.00  0.00    +0.000 C 
ATOM     32  C   UNL     1      -2.168  10.230  18.501  0.00  0.00    +0.000 C 
ATOM     33  C   UNL     1      -1.925  11.245  17.448  0.00  0.00    +0.000 C 
ENDBRANCH   2  31
TORSDOF 5
ENDMDL
MODEL 3
REMARK VINA RESULT:      -9.2      2.915      4.931
REMARK  Name = 
REMARK  5 active torsions:
REMARK  status: ('A' for Active; 'I' for Inactive)
REMARK    1  A    between atoms: O_1  and  C_2
REMARK    2  A    between atoms: C_6  and  C_7
REMARK    3  A    between atoms: C_8  and  C_9
REMARK    4  A    between atoms: C_16  and  C_17
REMARK    5  A    between atoms: C_22  and  C_23
REMARK                            x       y       z     vdW  Elec       q    Type
REMARK                         _______ _______ _______ _____ _____    ______ ____
ROOT
ATOM      1  C   UNL     1       0.949   9.610  20.220  0.00  0.00    +0.000 A 
ATOM      2  C   UNL     1       0.456   9.887  18.938  0.00  0.00    +0.000 A 
ATOM      3  N   UNL     1       1.442   9.870  18.047  0.00  0.00    +0.000 NA
ATOM      4  C   UNL     1       1.881   8.717  18.420  0.00  0.00    +0.000 A 
ATOM      5  C   UNL     1       1.821   7.623  17.521  0.00  0.00    +0.000 A 
ATOM      6  N   UNL     1       1.909   6.442  18.001  0.00  0.00    +0.000 NA
ATOM      7  C   UNL     1       2.672   6.335  19.159  0.00  0.00    +0.000 A 
ATOM      8  C   UNL     1       2.496   7.263  20.179  0.00  0.00    +0.000 A 
ATOM      9  N   UNL     1       1.780   8.471  19.801  0.00  0.00    +0.000 N 
ENDROOT
BRANCH   1  14
ATOM     10  C   UNL     1      -1.196  12.330  22.934  0.00  0.00    +0.000 A 
ATOM     11  C   UNL     1      -1.346  10.956  23.133  0.00  0.00    +0.000 A 
ATOM     12  C   UNL     1      -0.586  10.003  22.343  0.00  0.00    +0.000 A 
ATOM     13  F   UNL     1      -0.908   8.715  22.471  0.00  0.00    +0.000 F 
ATOM     14  C   UNL     1       0.327  10.418  21.360  0.00  0.00    +0.000 A 
ATOM     15  C   UNL     1       0.375  11.835  21.189  0.00  0.00    +0.000 A 
ATOM     16  F   UNL     1       1.049  12.366  20.154  0.00  0.00    +0.000 F 
ATOM     17  C   UNL     1      -0.340  12.775  21.948  0.00  0.00    +0.000 A 
BRANCH  10  18
ATOM     18  O   UNL     1      -1.896  13.268  23.642  0.00  0.00    +0.000 OA
ATOM     19  H   UNL     1      -2.528  12.866  24.259  0.00  0.00    +0.000 HD
ENDBRANCH  10  18
ENDBRANCH   1  14
BRANCH   7  20
ATOM     20  C   UNL     1       3.691   5.256  18.735  0.00  0.00    +0.000 A 
ATOM     21  C   UNL     1       4.777   4.958  19.574  0.00  0.00    +0.000 A 
ATOM     22  C   UNL     1       6.055   4.681  19.025  0.00  0.00    +0.000 A 
ATOM     23  C   UNL     1       6.296   4.762  17.650  0.00  0.00    +0.000 A 
ATOM     24  F   UNL     1       7.556   4.635  17.209  0.00  0.00    +0.000 F 
ATOM     25  C   UNL     1       5.270   5.040  16.772  0.00  0.00    +0.000 A 
ATOM     26  C   UNL     1       3.964   5.191  17.317  0.00  0.00    +0.000 A 
BRANCH  25  27
ATOM     27  C   UNL     1       5.553   5.330  15.318  0.00  0.00    +0.000 C 
ATOM     28  F   UNL     1       5.090   4.396  14.439  0.00  0.00    +0.000 F 
ATOM     29  F   UNL     1       5.017   6.512  14.902  0.00  0.00    +0.000 F 
ATOM     30  F   UNL     1       6.891   5.427  15.050  0.00  0.00    +0.000 F 
ENDBRANCH  25  27
ENDBRANCH   7  20
BRANCH   2  31
ATOM     31  C   UNL     1      -0.975   9.702  18.488  0.00  0.00    +0.000 C 
ATOM     32  C   UNL     1      -1.736  11.006  18.395  0.00  0.00    +0.000 C 
ATOM     33  C   UNL     1      -1.470  10.248  17.150  0.00  0.00    +0.000 C 
ENDBRANCH   2  31
TORSDOF 5
ENDMDL
MODEL 4
REMARK VINA RESULT:      -9.1      4.147      7.136
REMARK  Name = 
REMARK  5 active torsions:
REMARK  status: ('A' for Active; 'I' for Inactive)
REMARK    1  A    between atoms: O_1  and  C_2
REMARK    2  A    between atoms: C_6  and  C_7
REMARK    3  A    between atoms: C_8  and  C_9
REMARK    4  A    between atoms: C_16  and  C_17
REMARK    5  A    between atoms: C_22  and  C_23
REMARK                            x       y       z     vdW  Elec       q    Type
REMARK                         _______ _______ _______ _____ _____    ______ ____
ROOT
ATOM      1  C   UNL     1      -0.054  11.531  20.308  0.00  0.00    +0.000 A 
ATOM      2  C   UNL     1       0.050  11.997  18.990  0.00  0.00    +0.000 A 
ATOM      3  N   UNL     1       1.305  11.907  18.562  0.00  0.00    +0.000 NA
ATOM      4  C   UNL     1       1.429  10.670  18.905  0.00  0.00    +0.000 A 
ATOM      5  C   UNL     1       1.623   9.686  17.905  0.00  0.00    +0.000 A 
ATOM      6  N   UNL     1       1.383   8.467  18.203  0.00  0.00    +0.000 NA
ATOM      7  C   UNL     1       1.593   8.138  19.538  0.00  0.00    +0.000 A 
ATOM      8  C   UNL     1       1.117   8.985  20.532  0.00  0.00    +0.000 A 
ATOM      9  N   UNL     1       0.749  10.320  20.085  0.00  0.00    +0.000 N 
ENDROOT
BRANCH   1  14
ATOM     10  C   UNL     1      -2.321  13.526  23.508  0.00  0.00    +0.000 A 
ATOM     11  C   UNL     1      -1.835  14.314  22.462  0.00  0.00    +0.000 A 
ATOM     12  C   UNL     1      -1.171  13.709  21.321  0.00  0.00    +0.000 A 
ATOM     13  F   UNL     1      -0.586  14.533  20.452  0.00  0.00    +0.000 F 
ATOM     14  C   UNL     1      -0.996  12.319  21.219  0.00  0.00    +0.000 A 
ATOM     15  C   UNL     1      -1.474  11.599  22.357  0.00  0.00    +0.000 A 
ATOM     16  F   UNL     1      -1.196  10.291  22.492  0.00  0.00    +0.000 F 
ATOM     17  C   UNL     1      -2.129  12.161  23.463  0.00  0.00    +0.000 A 
BRANCH  10  18
ATOM     18  O   UNL     1      -2.943  14.048  24.609  0.00  0.00    +0.000 OA
ATOM     19  H   UNL     1      -3.891  13.844  24.626  0.00  0.00    +0.000 HD
ENDBRANCH  10  18
ENDBRANCH   1  14
BRANCH   7  20
ATOM     20  C   UNL     1       2.574   6.955  19.392  0.00  0.00    +0.000 A 
ATOM     21  C   UNL     1       3.319   6.814  18.210  0.00  0.00    +0.000 A 
ATOM     22  C   UNL     1       3.557   5.528  17.659  0.00  0.00    +0.000 A 
ATOM     23  C   UNL     1       3.007   4.374  18.225  0.00  0.00    +0.000 A 
ATOM     24  F   UNL     1       3.145   3.209  17.575  0.00  0.00    +0.000 F 
ATOM     25  C   UNL     1       2.274   4.444  19.392  0.00  0.00    +0.000 A 
ATOM     26  C   UNL     1       2.146   5.720  20.009  0.00  0.00    +0.000 A 
BRANCH  25  27
ATOM     27  C   UNL     1       1.509   3.246  19.898  0.00  0.00    +0.000 C 
ATOM     28  F   UNL     1       0.563   2.759  19.044  0.00  0.00    +0.000 F 
ATOM     29  F   UNL     1       2.316   2.186  20.184  0.00  0.00    +0.000 F 
ATOM     30  F   UNL     1       0.829   3.505  21.057  0.00  0.00    +0.000 F 
ENDBRANCH  25  27
ENDBRANCH   7  20
BRANCH   2  31
ATOM     31  C   UNL     1      -1.086  12.079  17.996  0.00  0.00    +0.000 C 
ATOM     32  C   UNL     1      -1.759  10.746  17.758  0.00  0.00    +0.000 C 
ATOM     33  C   UNL     1      -2.533  11.827  18.411  0.00  0.00    +0.000 C 
ENDBRANCH   2  31
TORSDOF 5
ENDMDL
MODEL 5
REMARK VINA RESULT:      -9.1      4.942      7.207
REMARK  Name = 
REMARK  5 active torsions:
REMARK  status: ('A' for Active; 'I' for Inactive)
REMARK    1  A    between atoms: O_1  and  C_2
REMARK    2  A    between atoms: C_6  and  C_7
REMARK    3  A    between atoms: C_8  and  C_9
REMARK    4  A    between atoms: C_16  and  C_17
REMARK    5  A    between atoms: C_22  and  C_23
REMARK                            x       y       z     vdW  Elec       q    Type
REMARK                         _______ _______ _______ _____ _____    ______ ____
ROOT
ATOM      1  C   UNL     1       0.775  11.273  19.538  0.00  0.00    +0.000 A 
ATOM      2  C   UNL     1      -0.123  10.962  20.569  0.00  0.00    +0.000 A 
ATOM      3  N   UNL     1      -0.869   9.914  20.235  0.00  0.00    +0.000 NA
ATOM      4  C   UNL     1       0.142   9.183  19.910  0.00  0.00    +0.000 A 
ATOM      5  C   UNL     1       0.427   8.015  20.659  0.00  0.00    +0.000 A 
ATOM      6  N   UNL     1       1.599   7.513  20.572  0.00  0.00    +0.000 NA
ATOM      7  C   UNL     1       2.234   7.716  19.351  0.00  0.00    +0.000 A 
ATOM      8  C   UNL     1       2.199   8.976  18.766  0.00  0.00    +0.000 A 
ATOM      9  N   UNL     1       1.202   9.885  19.310  0.00  0.00    +0.000 N 
ENDROOT
BRANCH   1  14
ATOM     10  C   UNL     1       0.703  15.649  19.082  0.00  0.00    +0.000 A 
ATOM     11  C   UNL     1       1.763  15.083  19.796  0.00  0.00    +0.000 A 
ATOM     12  C   UNL     1       1.906  13.642  19.895  0.00  0.00    +0.000 A 
ATOM     13  F   UNL     1       2.837  13.181  20.731  0.00  0.00    +0.000 F 
ATOM     14  C   UNL     1       0.999  12.764  19.280  0.00  0.00    +0.000 A 
ATOM     15  C   UNL     1      -0.079  13.428  18.619  0.00  0.00    +0.000 A 
ATOM     16  F   UNL     1      -1.125  12.722  18.160  0.00  0.00    +0.000 F 
ATOM     17  C   UNL     1      -0.231  14.819  18.499  0.00  0.00    +0.000 A 
BRANCH  10  18
ATOM     18  O   UNL     1       0.518  16.999  18.968  0.00  0.00    +0.000 OA
ATOM     19  H   UNL     1       0.490  17.441  19.831  0.00  0.00    +0.000 HD
ENDBRANCH  10  18
ENDBRANCH   1  14
BRANCH   7  20
ATOM     20  C   UNL     1       2.574   6.262  18.959  0.00  0.00    +0.000 A 
ATOM     21  C   UNL     1       2.013   5.708  17.797  0.00  0.00    +0.000 A 
ATOM     22  C   UNL     1       1.592   4.354  17.777  0.00  0.00    +0.000 A 
ATOM     23  C   UNL     1       1.652   3.549  18.919  0.00  0.00    +0.000 A 
ATOM     24  F   UNL     1       1.103   2.326  18.876  0.00  0.00    +0.000 F 
ATOM     25  C   UNL     1       2.201   4.031  20.089  0.00  0.00    +0.000 A 
ATOM     26  C   UNL     1       2.739   5.348  20.066  0.00  0.00    +0.000 A 
BRANCH  25  27
ATOM     27  C   UNL     1       2.087   3.250  21.375  0.00  0.00    +0.000 C 
ATOM     28  F   UNL     1       0.854   2.724  21.628  0.00  0.00    +0.000 F 
ATOM     29  F   UNL     1       2.947   2.194  21.430  0.00  0.00    +0.000 F 
ATOM     30  F   UNL     1       2.375   4.006  22.479  0.00  0.00    +0.000 F 
ENDBRANCH  25  27
ENDBRANCH   7  20
BRANCH   2  31
ATOM     31  C   UNL     1       0.042  11.342  22.022  0.00  0.00    +0.000 C 
ATOM     32  C   UNL     1      -0.852  12.491  22.436  0.00  0.00    +0.000 C 
ATOM     33  C   UNL     1      -1.089  11.154  23.031  0.00  0.00    +0.000 C 
ENDBRANCH   2  31
TORSDOF 5
ENDMDL
MODEL 6
REMARK VINA RESULT:      -9.0      3.680      9.101
REMARK  Name = 
REMARK  5 active torsions:
REMARK  status: ('A' for Active; 'I' for Inactive)
REMARK    1  A    between atoms: O_1  and  C_2
REMARK    2  A    between atoms: C_6  and  C_7
REMARK    3  A    between atoms: C_8  and  C_9
REMARK    4  A    between atoms: C_16  and  C_17
REMARK    5  A    between atoms: C_22  and  C_23
REMARK                            x       y       z     vdW  Elec       q    Type
REMARK                         _______ _______ _______ _____ _____    ______ ____
ROOT
ATOM      1  C   UNL     1       3.297   5.669  18.559  0.00  0.00    +0.000 A 
ATOM      2  C   UNL     1       2.561   4.634  19.153  0.00  0.00    +0.000 A 
ATOM      3  N   UNL     1       2.605   4.733  20.478  0.00  0.00    +0.000 NA
ATOM      4  C   UNL     1       2.250   5.973  20.487  0.00  0.00    +0.000 A 
ATOM      5  C   UNL     1       1.014   6.338  21.075  0.00  0.00    +0.000 A 
ATOM      6  N   UNL     1       0.510   7.471  20.765  0.00  0.00    +0.000 NA
ATOM      7  C   UNL     1       1.438   8.459  20.450  0.00  0.00    +0.000 A 
ATOM      8  C   UNL     1       2.501   8.152  19.609  0.00  0.00    +0.000 A 
ATOM      9  N   UNL     1       2.746   6.731  19.413  0.00  0.00    +0.000 N 
ENDROOT
BRANCH   1  14
ATOM     10  C   UNL     1       6.082   5.155  15.191  0.00  0.00    +0.000 A 
ATOM     11  C   UNL     1       5.848   4.055  16.020  0.00  0.00    +0.000 A 
ATOM     12  C   UNL     1       4.863   4.122  17.085  0.00  0.00    +0.000 A 
ATOM     13  F   UNL     1       4.820   3.098  17.937  0.00  0.00    +0.000 F 
ATOM     14  C   UNL     1       4.107   5.282  17.320  0.00  0.00    +0.000 A 
ATOM     15  C   UNL     1       4.450   6.371  16.462  0.00  0.00    +0.000 A 
ATOM     16  F   UNL     1       3.956   7.597  16.700  0.00  0.00    +0.000 F 
ATOM     17  C   UNL     1       5.388   6.325  15.419  0.00  0.00    +0.000 A 
BRANCH  10  18
ATOM     18  O   UNL     1       7.006   5.147  14.182  0.00  0.00    +0.000 OA
ATOM     19  H   UNL     1       7.642   5.876  14.260  0.00  0.00    +0.000 HD
ENDBRANCH  10  18
ENDBRANCH   1  14
BRANCH   7  20
ATOM     20  C   UNL     1       1.023   9.570  21.438  0.00  0.00    +0.000 A 
ATOM     21  C   UNL     1       0.491   9.221  22.691  0.00  0.00    +0.000 A 
ATOM     22  C   UNL     1      -0.571   9.973  23.255  0.00  0.00    +0.000 A 
ATOM     23  C   UNL     1      -1.169  11.031  22.564  0.00  0.00    +0.000 A 
ATOM     24  F   UNL     1      -2.263  11.605  23.087  0.00  0.00    +0.000 F 
ATOM     25  C   UNL     1      -0.688  11.429  21.335  0.00  0.00    +0.000 A 
ATOM     26  C   UNL     1       0.460  10.754  20.831  0.00  0.00    +0.000 A 
BRANCH  25  27
ATOM     27  C   UNL     1      -1.445  12.427  20.493  0.00  0.00    +0.000 C 
ATOM     28  F   UNL     1      -2.731  12.080  20.199  0.00  0.00    +0.000 F 
ATOM     29  F   UNL     1      -1.528  13.655  21.078  0.00  0.00    +0.000 F 
ATOM     30  F   UNL     1      -0.858  12.645  19.277  0.00  0.00    +0.000 F 
ENDBRANCH  25  27
ENDBRANCH   7  20
BRANCH   2  31
ATOM     31  C   UNL     1       1.453   3.850  18.489  0.00  0.00    +0.000 C 
ATOM     32  C   UNL     1       1.809   2.396  18.269  0.00  0.00    +0.000 C 
ATOM     33  C   UNL     1       0.720   2.726  19.218  0.00  0.00    +0.000 C 
ENDBRANCH   2  31
TORSDOF 5
ENDMDL
MODEL 7
REMARK VINA RESULT:      -9.0      3.343      5.605
REMARK  Name = 
REMARK  5 active torsions:
REMARK  status: ('A' for Active; 'I' for Inactive)
REMARK    1  A    between atoms: O_1  and  C_2
REMARK    2  A    between atoms: C_6  and  C_7
REMARK    3  A    between atoms: C_8  and  C_9
REMARK    4  A    between atoms: C_16  and  C_17
REMARK    5  A    between atoms: C_22  and  C_23
REMARK                            x       y       z     vdW  Elec       q    Type
REMARK                         _______ _______ _______ _____ _____    ______ ____
ROOT
ATOM      1  C   UNL     1       0.638  10.060  20.405  0.00  0.00    +0.000 A 
ATOM      2  C   UNL     1       0.159  10.280  19.106  0.00  0.00    +0.000 A 
ATOM      3  N   UNL     1       1.165  10.307  18.238  0.00  0.00    +0.000 NA
ATOM      4  C   UNL     1       1.666   9.191  18.646  0.00  0.00    +0.000 A 
ATOM      5  C   UNL     1       1.695   8.078  17.770  0.00  0.00    +0.000 A 
ATOM      6  N   UNL     1       1.845   6.915  18.276  0.00  0.00    +0.000 NA
ATOM      7  C   UNL     1       2.585   6.879  19.454  0.00  0.00    +0.000 A 
ATOM      8  C   UNL     1       2.328   7.814  20.449  0.00  0.00    +0.000 A 
ATOM      9  N   UNL     1       1.547   8.968  20.029  0.00  0.00    +0.000 N 
ENDROOT
BRANCH   1  14
ATOM     10  C   UNL     1      -1.793  12.637  23.015  0.00  0.00    +0.000 A 
ATOM     11  C   UNL     1      -1.743  11.272  23.308  0.00  0.00    +0.000 A 
ATOM     12  C   UNL     1      -0.878  10.381  22.554  0.00  0.00    +0.000 A 
ATOM     13  F   UNL     1      -1.013   9.073  22.775  0.00  0.00    +0.000 F 
ATOM     14  C   UNL     1      -0.060  10.850  21.513  0.00  0.00    +0.000 A 
ATOM     15  C   UNL     1      -0.217  12.246  21.249  0.00  0.00    +0.000 A 
ATOM     16  F   UNL     1       0.346  12.792  20.159  0.00  0.00    +0.000 F 
ATOM     17  C   UNL     1      -1.036  13.127  21.973  0.00  0.00    +0.000 A 
BRANCH  10  18
ATOM     18  O   UNL     1      -2.598  13.515  23.688  0.00  0.00    +0.000 OA
ATOM     19  H   UNL     1      -2.092  14.112  24.262  0.00  0.00    +0.000 HD
ENDBRANCH  10  18
ENDBRANCH   1  14
BRANCH   7  20
ATOM     20  C   UNL     1       3.679   5.857  19.076  0.00  0.00    +0.000 A 
ATOM     21  C   UNL     1       4.539   6.127  17.999  0.00  0.00    +0.000 A 
ATOM     22  C   UNL     1       4.940   5.088  17.121  0.00  0.00    +0.000 A 
ATOM     23  C   UNL     1       4.447   3.786  17.251  0.00  0.00    +0.000 A 
ATOM     24  F   UNL     1       4.748   2.885  16.303  0.00  0.00    +0.000 F 
ATOM     25  C   UNL     1       3.607   3.454  18.293  0.00  0.00    +0.000 A 
ATOM     26  C   UNL     1       3.309   4.470  19.243  0.00  0.00    +0.000 A 
BRANCH  25  27
ATOM     27  C   UNL     1       2.909   2.116  18.328  0.00  0.00    +0.000 C 
ATOM     28  F   UNL     1       2.176   1.815  17.217  0.00  0.00    +0.000 F 
ATOM     29  F   UNL     1       3.774   1.074  18.482  0.00  0.00    +0.000 F 
ATOM     30  F   UNL     1       2.026   2.009  19.366  0.00  0.00    +0.000 F 
ENDBRANCH  25  27
ENDBRANCH   7  20
BRANCH   2  31
ATOM     31  C   UNL     1      -1.247   9.997  18.628  0.00  0.00    +0.000 C 
ATOM     32  C   UNL     1      -1.915  11.207  18.013  0.00  0.00    +0.000 C 
ATOM     33  C   UNL     1      -1.612  10.044  17.146  0.00  0.00    +0.000 C 
ENDBRANCH   2  31
TORSDOF 5
ENDMDL
MODEL 8
REMARK VINA RESULT:      -9.0      4.337      7.142
REMARK  Name = 
REMARK  5 active torsions:
REMARK  status: ('A' for Active; 'I' for Inactive)
REMARK    1  A    between atoms: O_1  and  C_2
REMARK    2  A    between atoms: C_6  and  C_7
REMARK    3  A    between atoms: C_8  and  C_9
REMARK    4  A    between atoms: C_16  and  C_17
REMARK    5  A    between atoms: C_22  and  C_23
REMARK                            x       y       z     vdW  Elec       q    Type
REMARK                         _______ _______ _______ _____ _____    ______ ____
ROOT
ATOM      1  C   UNL     1       0.657  12.696  19.403  0.00  0.00    +0.000 A 
ATOM      2  C   UNL     1      -0.287  12.433  20.406  0.00  0.00    +0.000 A 
ATOM      3  N   UNL     1      -1.097  11.447  20.036  0.00  0.00    +0.000 NA
ATOM      4  C   UNL     1      -0.132  10.651  19.723  0.00  0.00    +0.000 A 
ATOM      5  C   UNL     1       0.051   9.454  20.458  0.00  0.00    +0.000 A 
ATOM      6  N   UNL     1       1.186   8.871  20.390  0.00  0.00    +0.000 NA
ATOM      7  C   UNL     1       1.864   9.047  19.189  0.00  0.00    +0.000 A 
ATOM      8  C   UNL     1       1.933  10.315  18.624  0.00  0.00    +0.000 A 
ATOM      9  N   UNL     1       0.990  11.284  19.160  0.00  0.00    +0.000 N 
ENDROOT
BRANCH   1  14
ATOM     10  C   UNL     1       1.884  16.702  18.057  0.00  0.00    +0.000 A 
ATOM     11  C   UNL     1       0.566  16.532  18.490  0.00  0.00    +0.000 A 
ATOM     12  C   UNL     1       0.123  15.266  19.046  0.00  0.00    +0.000 A 
ATOM     13  F   UNL     1      -1.183  15.128  19.275  0.00  0.00    +0.000 F 
ATOM     14  C   UNL     1       0.992  14.171  19.176  0.00  0.00    +0.000 A 
ATOM     15  C   UNL     1       2.301  14.417  18.659  0.00  0.00    +0.000 A 
ATOM     16  F   UNL     1       3.176  13.405  18.532  0.00  0.00    +0.000 F 
ATOM     17  C   UNL     1       2.755  15.635  18.130  0.00  0.00    +0.000 A 
BRANCH  10  18
ATOM     18  O   UNL     1       2.347  17.869  17.516  0.00  0.00    +0.000 OA
ATOM     19  H   UNL     1       2.154  17.938  16.568  0.00  0.00    +0.000 HD
ENDBRANCH  10  18
ENDBRANCH   1  14
BRANCH   7  20
ATOM     20  C   UNL     1       2.110   7.579  18.779  0.00  0.00    +0.000 A 
ATOM     21  C   UNL     1       2.248   6.596  19.772  0.00  0.00    +0.000 A 
ATOM     22  C   UNL     1       3.191   5.547  19.620  0.00  0.00    +0.000 A 
ATOM     23  C   UNL     1       4.057   5.492  18.523  0.00  0.00    +0.000 A 
ATOM     24  F   UNL     1       5.023   4.562  18.511  0.00  0.00    +0.000 F 
ATOM     25  C   UNL     1       3.965   6.422  17.509  0.00  0.00    +0.000 A 
ATOM     26  C   UNL     1       2.933   7.397  17.605  0.00  0.00    +0.000 A 
BRANCH  25  27
ATOM     27  C   UNL     1       5.018   6.497  16.430  0.00  0.00    +0.000 C 
ATOM     28  F   UNL     1       4.718   7.317  15.382  0.00  0.00    +0.000 F 
ATOM     29  F   UNL     1       6.221   6.934  16.896  0.00  0.00    +0.000 F 
ATOM     30  F   UNL     1       5.274   5.281  15.857  0.00  0.00    +0.000 F 
ENDBRANCH  25  27
ENDBRANCH   7  20
BRANCH   2  31
ATOM     31  C   UNL     1      -0.132  12.778  21.869  0.00  0.00    +0.000 C 
ATOM     32  C   UNL     1      -1.097  13.848  22.328  0.00  0.00    +0.000 C 
ATOM     33  C   UNL     1      -1.235  12.481  22.882  0.00  0.00    +0.000 C 
ENDBRANCH   2  31
TORSDOF 5
ENDMDL
MODEL 9
REMARK VINA RESULT:      -8.9      4.381      7.432
REMARK  Name = 
REMARK  5 active torsions:
REMARK  status: ('A' for Active; 'I' for Inactive)
REMARK    1  A    between atoms: O_1  and  C_2
REMARK    2  A    between atoms: C_6  and  C_7
REMARK    3  A    between atoms: C_8  and  C_9
REMARK    4  A    between atoms: C_16  and  C_17
REMARK    5  A    between atoms: C_22  and  C_23
REMARK                            x       y       z     vdW  Elec       q    Type
REMARK                         _______ _______ _______ _____ _____    ______ ____
ROOT
ATOM      1  C   UNL     1      -1.355  11.476  18.830  0.00  0.00    +0.000 A 
ATOM      2  C   UNL     1      -0.530  12.547  19.201  0.00  0.00    +0.000 A 
ATOM      3  N   UNL     1       0.282  12.187  20.190  0.00  0.00    +0.000 NA
ATOM      4  C   UNL     1       0.699  11.128  19.583  0.00  0.00    +0.000 A 
ATOM      5  C   UNL     1       2.059  11.034  19.200  0.00  0.00    +0.000 A 
ATOM      6  N   UNL     1       2.377  10.179  18.305  0.00  0.00    +0.000 NA
ATOM      7  C   UNL     1       1.574   9.043  18.269  0.00  0.00    +0.000 A 
ATOM      8  C   UNL     1       0.193   9.181  18.343  0.00  0.00    +0.000 A 
ATOM      9  N   UNL     1      -0.276  10.478  18.806  0.00  0.00    +0.000 N 
ENDROOT
BRANCH   1  14
ATOM     10  C   UNL     1      -5.578  11.777  17.629  0.00  0.00    +0.000 A 
ATOM     11  C   UNL     1      -5.235  12.184  18.921  0.00  0.00    +0.000 A 
ATOM     12  C   UNL     1      -3.847  12.211  19.348  0.00  0.00    +0.000 A 
ATOM     13  F   UNL     1      -3.614  12.444  20.640  0.00  0.00    +0.000 F 
ATOM     14  C   UNL     1      -2.801  11.839  18.488  0.00  0.00    +0.000 A 
ATOM     15  C   UNL     1      -3.248  11.387  17.209  0.00  0.00    +0.000 A 
ATOM     16  F   UNL     1      -2.382  10.813  16.357  0.00  0.00    +0.000 F 
ATOM     17  C   UNL     1      -4.581  11.364  16.770  0.00  0.00    +0.000 A 
BRANCH  10  18
ATOM     18  O   UNL     1      -6.870  11.723  17.183  0.00  0.00    +0.000 OA
ATOM     19  H   UNL     1      -7.385  11.033  17.630  0.00  0.00    +0.000 HD
ENDBRANCH  10  18
ENDBRANCH   1  14
BRANCH   7  20
ATOM     20  C   UNL     1       2.639   7.934  18.408  0.00  0.00    +0.000 A 
ATOM     21  C   UNL     1       3.591   7.755  17.390  0.00  0.00    +0.000 A 
ATOM     22  C   UNL     1       4.004   6.451  17.013  0.00  0.00    +0.000 A 
ATOM     23  C   UNL     1       3.436   5.308  17.583  0.00  0.00    +0.000 A 
ATOM     24  F   UNL     1       3.761   4.108  17.081  0.00  0.00    +0.000 F 
ATOM     25  C   UNL     1       2.504   5.415  18.594  0.00  0.00    +0.000 A 
ATOM     26  C   UNL     1       2.187   6.724  19.056  0.00  0.00    +0.000 A 
BRANCH  25  27
ATOM     27  C   UNL     1       1.738   4.206  19.072  0.00  0.00    +0.000 C 
ATOM     28  F   UNL     1       0.870   4.438  20.100  0.00  0.00    +0.000 F 
ATOM     29  F   UNL     1       0.986   3.635  18.089  0.00  0.00    +0.000 F 
ATOM     30  F   UNL     1       2.556   3.209  19.527  0.00  0.00    +0.000 F 
ENDBRANCH  25  27
ENDBRANCH   7  20
BRANCH   2  31
ATOM     31  C   UNL     1      -0.184  13.733  18.330  0.00  0.00    +0.000 C 
ATOM     32  C   UNL     1      -0.472  15.059  18.998  0.00  0.00    +0.000 C 
ATOM     33  C   UNL     1       0.936  14.700  18.705  0.00  0.00    +0.000 C 
ENDBRANCH   2  31
TORSDOF 5
ENDMDL
