MODEL 1
REMARK VINA RESULT:      -9.2      0.000      0.000
REMARK  Name = 
REMARK  4 active torsions:
REMARK  status: ('A' for Active; 'I' for Inactive)
REMARK    1  A    between atoms: C_2  and  O_3
REMARK    2  A    between atoms: O_3  and  C_4
REMARK    3  A    between atoms: C_4  and  C_5
REMARK    4  A    between atoms: N_24  and  C_25
REMARK                            x       y       z     vdW  Elec       q    Type
REMARK                         _______ _______ _______ _____ _____    ______ ____
ROOT
ATOM      1  O   UNL     1       1.914   8.809  18.674  0.00  0.00    +0.000 OA
ATOM      2  C   UNL     1       1.834   7.997  19.589  0.00  0.00    +0.000 C 
ATOM      3  N   UNL     1       1.831   6.613  19.394  0.00  0.00    +0.000 N 
ATOM      4  C   UNL     1       2.065   5.720  20.529  0.00  0.00    +0.000 C 
ATOM      5  C   UNL     1       1.826   4.248  20.244  0.00  0.00    +0.000 C 
ATOM      6  C   UNL     1       2.308   3.766  18.871  0.00  0.00    +0.000 C 
ATOM      7  C   UNL     1       1.884   4.718  17.761  0.00  0.00    +0.000 C 
ATOM      8  C   UNL     1       2.197   6.172  18.051  0.00  0.00    +0.000 C 
ATOM      9  C   UNL     1       1.553   2.436  18.618  0.00  0.00    +0.000 C 
ATOM     10  O   UNL     1       0.359   2.267  18.427  0.00  0.00    +0.000 OA
ATOM     11  N   UNL     1       2.469   1.414  18.683  0.00  0.00    +0.000 N 
ATOM     12  C   UNL     1       3.790   1.841  18.963  0.00  0.00    +0.000 C 
ATOM     13  N   UNL     1       3.735   3.295  18.857  0.00  0.00    +0.000 N 
ATOM     14  H   UNL     1       2.181   0.454  18.570  0.00  0.00    +0.000 HD
ENDROOT
BRANCH  13  15
ATOM     15  C   UNL     1       4.864   3.988  18.460  0.00  0.00    +0.000 A 
ATOM     16  C   UNL     1       5.563   4.853  19.319  0.00  0.00    +0.000 A 
ATOM     17  C   UNL     1       6.695   5.577  18.909  0.00  0.00    +0.000 A 
ATOM     18  C   UNL     1       7.179   5.445  17.617  0.00  0.00    +0.000 A 
ATOM     19  C   UNL     1       6.516   4.603  16.740  0.00  0.00    +0.000 A 
ATOM     20  C   UNL     1       5.369   3.913  17.159  0.00  0.00    +0.000 A 
ENDBRANCH  13  15
BRANCH   2  21
ATOM     21  O   UNL     1       1.795   8.344  20.903  0.00  0.00    +0.000 OA
BRANCH  21  22
ATOM     22  C   UNL     1       0.486   8.483  21.467  0.00  0.00    +0.000 C 
BRANCH  22  23
ATOM     23  C   UNL     1       0.164   9.930  21.780  0.00  0.00    +0.000 A 
ATOM     24  C   UNL     1      -0.797  10.223  22.789  0.00  0.00    +0.000 A 
ATOM     25  C   UNL     1      -1.235  11.526  23.099  0.00  0.00    +0.000 A 
ATOM     26  C   UNL     1      -0.661  12.571  22.339  0.00  0.00    +0.000 A 
ATOM     27  N   UNL     1      -0.949  13.878  22.451  0.00  0.00    +0.000 NA
ATOM     28  S   UNL     1      -0.004  14.661  21.331  0.00  0.00    +0.000 S 
ATOM     29  N   UNL     1       0.810  13.380  20.653  0.00  0.00    +0.000 NA
ATOM     30  C   UNL     1       0.370  12.278  21.282  0.00  0.00    +0.000 A 
ATOM     31  C   UNL     1       0.782  10.950  21.017  0.00  0.00    +0.000 A 
ENDBRANCH  22  23
ENDBRANCH  21  22
ENDBRANCH   2  21
TORSDOF 4
ENDMDL
MODEL 2
REMARK VINA RESULT:      -9.0      1.189      1.426
REMARK  Name = 
REMARK  4 active torsions:
REMARK  status: ('A' for Active; 'I' for Inactive)
REMARK    1  A    between atoms: C_2  and  O_3
REMARK    2  A    between atoms: O_3  and  C_4
REMARK    3  A    between atoms: C_4  and  C_5
REMARK    4  A    between atoms: N_24  and  C_25
REMARK                            x       y       z     vdW  Elec       q    Type
REMARK                         _______ _______ _______ _____ _____    ______ ____
ROOT
ATOM      1  O   UNL     1       1.980   8.823  18.522  0.00  0.00    +0.000 OA
ATOM      2  C   UNL     1       1.872   8.036  19.456  0.00  0.00    +0.000 C 
ATOM      3  N   UNL     1       1.860   6.647  19.298  0.00  0.00    +0.000 N 
ATOM      4  C   UNL     1       2.059   5.783  20.460  0.00  0.00    +0.000 C 
ATOM      5  C   UNL     1       1.812   4.306  20.210  0.00  0.00    +0.000 C 
ATOM      6  C   UNL     1       2.320   3.783  18.861  0.00  0.00    +0.000 C 
ATOM      7  C   UNL     1       1.930   4.709  17.717  0.00  0.00    +0.000 C 
ATOM      8  C   UNL     1       2.251   6.167  17.975  0.00  0.00    +0.000 C 
ATOM      9  C   UNL     1       1.557   2.454  18.625  0.00  0.00    +0.000 C 
ATOM     10  O   UNL     1       0.367   2.291  18.412  0.00  0.00    +0.000 OA
ATOM     11  N   UNL     1       2.461   1.425  18.738  0.00  0.00    +0.000 N 
ATOM     12  C   UNL     1       3.779   1.847  19.037  0.00  0.00    +0.000 C 
ATOM     13  N   UNL     1       3.742   3.299  18.891  0.00  0.00    +0.000 N 
ATOM     14  H   UNL     1       2.166   0.465  18.644  0.00  0.00    +0.000 HD
ENDROOT
BRANCH  13  15
ATOM     15  C   UNL     1       4.886   3.970  18.502  0.00  0.00    +0.000 A 
ATOM     16  C   UNL     1       5.588   4.833  19.361  0.00  0.00    +0.000 A 
ATOM     17  C   UNL     1       6.736   5.535  18.959  0.00  0.00    +0.000 A 
ATOM     18  C   UNL     1       7.234   5.382  17.674  0.00  0.00    +0.000 A 
ATOM     19  C   UNL     1       6.569   4.543  16.796  0.00  0.00    +0.000 A 
ATOM     20  C   UNL     1       5.406   3.874  17.208  0.00  0.00    +0.000 A 
ENDBRANCH  13  15
BRANCH   2  21
ATOM     21  O   UNL     1       1.808   8.418  20.759  0.00  0.00    +0.000 OA
BRANCH  21  22
ATOM     22  C   UNL     1       0.539   8.921  21.193  0.00  0.00    +0.000 C 
BRANCH  22  23
ATOM     23  C   UNL     1       0.231  10.269  20.572  0.00  0.00    +0.000 A 
ATOM     24  C   UNL     1      -0.852  10.377  19.653  0.00  0.00    +0.000 A 
ATOM     25  C   UNL     1      -1.171  11.557  18.953  0.00  0.00    +0.000 A 
ATOM     26  C   UNL     1      -0.341  12.673  19.208  0.00  0.00    +0.000 A 
ATOM     27  N   UNL     1      -0.448  13.883  18.636  0.00  0.00    +0.000 NA
ATOM     28  S   UNL     1       0.767  14.814  19.282  0.00  0.00    +0.000 S 
ATOM     29  N   UNL     1       1.485  13.725  20.312  0.00  0.00    +0.000 NA
ATOM     30  C   UNL     1       0.796  12.579  20.190  0.00  0.00    +0.000 A 
ATOM     31  C   UNL     1       1.067  11.370  20.874  0.00  0.00    +0.000 A 
ENDBRANCH  22  23
ENDBRANCH  21  22
ENDBRANCH   2  21
TORSDOF 4
ENDMDL
MODEL 3
REMARK VINA RESULT:      -9.0      0.817      1.163
REMARK  Name = 
REMARK  4 active torsions:
REMARK  status: ('A' for Active; 'I' for Inactive)
REMARK    1  A    between atoms: C_2  and  O_3
REMARK    2  A    between atoms: O_3  and  C_4
REMARK    3  A    between atoms: C_4  and  C_5
REMARK    4  A    between atoms: N_24  and  C_25
REMARK                            x       y       z     vdW  Elec       q    Type
REMARK                         _______ _______ _______ _____ _____    ______ ____
ROOT
ATOM      1  O   UNL     1       1.962   8.817  18.566  0.00  0.00    +0.000 OA
ATOM      2  C   UNL     1       1.855   8.024  19.494  0.00  0.00    +0.000 C 
ATOM      3  N   UNL     1       1.848   6.636  19.327  0.00  0.00    +0.000 N 
ATOM      4  C   UNL     1       2.048   5.765  20.484  0.00  0.00    +0.000 C 
ATOM      5  C   UNL     1       1.807   4.288  20.223  0.00  0.00    +0.000 C 
ATOM      6  C   UNL     1       2.320   3.777  18.872  0.00  0.00    +0.000 C 
ATOM      7  C   UNL     1       1.930   4.709  17.733  0.00  0.00    +0.000 C 
ATOM      8  C   UNL     1       2.244   6.167  18.002  0.00  0.00    +0.000 C 
ATOM      9  C   UNL     1       1.563   2.446  18.625  0.00  0.00    +0.000 C 
ATOM     10  O   UNL     1       0.373   2.281  18.408  0.00  0.00    +0.000 OA
ATOM     11  N   UNL     1       2.470   1.420  18.733  0.00  0.00    +0.000 N 
ATOM     12  C   UNL     1       3.786   1.845  19.038  0.00  0.00    +0.000 C 
ATOM     13  N   UNL     1       3.744   3.298  18.902  0.00  0.00    +0.000 N 
ATOM     14  H   UNL     1       2.180   0.460  18.632  0.00  0.00    +0.000 HD
ENDROOT
BRANCH  13  15
ATOM     15  C   UNL     1       4.886   3.976  18.520  0.00  0.00    +0.000 A 
ATOM     16  C   UNL     1       5.568   4.856  19.378  0.00  0.00    +0.000 A 
ATOM     17  C   UNL     1       6.714   5.565  18.983  0.00  0.00    +0.000 A 
ATOM     18  C   UNL     1       7.231   5.402  17.706  0.00  0.00    +0.000 A 
ATOM     19  C   UNL     1       6.586   4.545  16.831  0.00  0.00    +0.000 A 
ATOM     20  C   UNL     1       5.425   3.870  17.234  0.00  0.00    +0.000 A 
ENDBRANCH  13  15
BRANCH   2  21
ATOM     21  O   UNL     1       1.786   8.397  20.801  0.00  0.00    +0.000 OA
BRANCH  21  22
ATOM     22  C   UNL     1       0.471   8.424  21.366  0.00  0.00    +0.000 C 
BRANCH  22  23
ATOM     23  C   UNL     1      -0.144   9.806  21.283  0.00  0.00    +0.000 A 
ATOM     24  C   UNL     1      -0.684  10.252  20.042  0.00  0.00    +0.000 A 
ATOM     25  C   UNL     1      -1.199  11.546  19.831  0.00  0.00    +0.000 A 
ATOM     26  C   UNL     1      -1.157  12.419  20.942  0.00  0.00    +0.000 A 
ATOM     27  N   UNL     1      -1.570  13.697  20.957  0.00  0.00    +0.000 NA
ATOM     28  S   UNL     1      -1.295  14.258  22.497  0.00  0.00    +0.000 S 
ATOM     29  N   UNL     1      -0.638  12.909  23.212  0.00  0.00    +0.000 NA
ATOM     30  C   UNL     1      -0.608  11.957  22.265  0.00  0.00    +0.000 A 
ATOM     31  C   UNL     1      -0.110  10.641  22.426  0.00  0.00    +0.000 A 
ENDBRANCH  22  23
ENDBRANCH  21  22
ENDBRANCH   2  21
TORSDOF 4
ENDMDL
MODEL 4
REMARK VINA RESULT:      -8.9      0.657      1.549
REMARK  Name = 
REMARK  4 active torsions:
REMARK  status: ('A' for Active; 'I' for Inactive)
REMARK    1  A    between atoms: C_2  and  O_3
REMARK    2  A    between atoms: O_3  and  C_4
REMARK    3  A    between atoms: C_4  and  C_5
REMARK    4  A    between atoms: N_24  and  C_25
REMARK                            x       y       z     vdW  Elec       q    Type
REMARK                         _______ _______ _______ _____ _____    ______ ____
ROOT
ATOM      1  O   UNL     1       1.886   8.815  18.622  0.00  0.00    +0.000 OA
ATOM      2  C   UNL     1       1.808   8.012  19.544  0.00  0.00    +0.000 C 
ATOM      3  N   UNL     1       1.813   6.625  19.363  0.00  0.00    +0.000 N 
ATOM      4  C   UNL     1       2.048   5.745  20.507  0.00  0.00    +0.000 C 
ATOM      5  C   UNL     1       1.818   4.269  20.237  0.00  0.00    +0.000 C 
ATOM      6  C   UNL     1       2.306   3.776  18.870  0.00  0.00    +0.000 C 
ATOM      7  C   UNL     1       1.880   4.715  17.749  0.00  0.00    +0.000 C 
ATOM      8  C   UNL     1       2.184   6.173  18.025  0.00  0.00    +0.000 C 
ATOM      9  C   UNL     1       1.558   2.440  18.627  0.00  0.00    +0.000 C 
ATOM     10  O   UNL     1       0.366   2.263  18.435  0.00  0.00    +0.000 OA
ATOM     11  N   UNL     1       2.478   1.423  18.704  0.00  0.00    +0.000 N 
ATOM     12  C   UNL     1       3.797   1.859  18.984  0.00  0.00    +0.000 C 
ATOM     13  N   UNL     1       3.735   3.313  18.863  0.00  0.00    +0.000 N 
ATOM     14  H   UNL     1       2.196   0.460  18.601  0.00  0.00    +0.000 HD
ENDROOT
BRANCH  13  15
ATOM     15  C   UNL     1       4.861   4.007  18.462  0.00  0.00    +0.000 A 
ATOM     16  C   UNL     1       5.394   3.903  17.166  0.00  0.00    +0.000 A 
ATOM     17  C   UNL     1       6.553   4.588  16.765  0.00  0.00    +0.000 A 
ATOM     18  C   UNL     1       7.214   5.422  17.654  0.00  0.00    +0.000 A 
ATOM     19  C   UNL     1       6.721   5.549  18.941  0.00  0.00    +0.000 A 
ATOM     20  C   UNL     1       5.580   4.833  19.332  0.00  0.00    +0.000 A 
ENDBRANCH  13  15
BRANCH   2  21
ATOM     21  O   UNL     1       1.765   8.371  20.855  0.00  0.00    +0.000 OA
BRANCH  21  22
ATOM     22  C   UNL     1       0.458   8.622  21.383  0.00  0.00    +0.000 C 
BRANCH  22  23
ATOM     23  C   UNL     1       0.193  10.107  21.535  0.00  0.00    +0.000 A 
ATOM     24  C   UNL     1       0.890  11.024  20.697  0.00  0.00    +0.000 A 
ATOM     25  C   UNL     1       0.785  12.425  20.812  0.00  0.00    +0.000 A 
ATOM     26  C   UNL     1      -0.071  12.902  21.831  0.00  0.00    +0.000 A 
ATOM     27  N   UNL     1      -0.299  14.190  22.130  0.00  0.00    +0.000 NA
ATOM     28  S   UNL     1      -1.372  14.192  23.399  0.00  0.00    +0.000 S 
ATOM     29  N   UNL     1      -1.593  12.560  23.627  0.00  0.00    +0.000 NA
ATOM     30  C   UNL     1      -0.829  11.944  22.711  0.00  0.00    +0.000 A 
ATOM     31  C   UNL     1      -0.694  10.544  22.547  0.00  0.00    +0.000 A 
ENDBRANCH  22  23
ENDBRANCH  21  22
ENDBRANCH   2  21
TORSDOF 4
ENDMDL
MODEL 5
REMARK VINA RESULT:      -8.7      0.957      1.310
REMARK  Name = 
REMARK  4 active torsions:
REMARK  status: ('A' for Active; 'I' for Inactive)
REMARK    1  A    between atoms: C_2  and  O_3
REMARK    2  A    between atoms: O_3  and  C_4
REMARK    3  A    between atoms: C_4  and  C_5
REMARK    4  A    between atoms: N_24  and  C_25
REMARK                            x       y       z     vdW  Elec       q    Type
REMARK                         _______ _______ _______ _____ _____    ______ ____
ROOT
ATOM      1  O   UNL     1       1.740   8.739  18.967  0.00  0.00    +0.000 OA
ATOM      2  C   UNL     1       1.674   7.876  19.834  0.00  0.00    +0.000 C 
ATOM      3  N   UNL     1       1.702   6.504  19.563  0.00  0.00    +0.000 N 
ATOM      4  C   UNL     1       1.950   5.555  20.646  0.00  0.00    +0.000 C 
ATOM      5  C   UNL     1       1.745   4.096  20.279  0.00  0.00    +0.000 C 
ATOM      6  C   UNL     1       2.243   3.703  18.883  0.00  0.00    +0.000 C 
ATOM      7  C   UNL     1       1.803   4.706  17.826  0.00  0.00    +0.000 C 
ATOM      8  C   UNL     1       2.083   6.148  18.199  0.00  0.00    +0.000 C 
ATOM      9  C   UNL     1       1.518   2.373  18.551  0.00  0.00    +0.000 C 
ATOM     10  O   UNL     1       0.329   2.189  18.345  0.00  0.00    +0.000 OA
ATOM     11  N   UNL     1       2.455   1.368  18.563  0.00  0.00    +0.000 N 
ATOM     12  C   UNL     1       3.765   1.808  18.875  0.00  0.00    +0.000 C 
ATOM     13  N   UNL     1       3.680   3.264  18.850  0.00  0.00    +0.000 N 
ATOM     14  H   UNL     1       2.189   0.410  18.396  0.00  0.00    +0.000 HD
ENDROOT
BRANCH  13  15
ATOM     15  C   UNL     1       4.795   4.002  18.499  0.00  0.00    +0.000 A 
ATOM     16  C   UNL     1       5.362   3.953  17.214  0.00  0.00    +0.000 A 
ATOM     17  C   UNL     1       6.510   4.683  16.864  0.00  0.00    +0.000 A 
ATOM     18  C   UNL     1       7.125   5.507  17.794  0.00  0.00    +0.000 A 
ATOM     19  C   UNL     1       6.598   5.580  19.072  0.00  0.00    +0.000 A 
ATOM     20  C   UNL     1       5.469   4.820  19.411  0.00  0.00    +0.000 A 
ENDBRANCH  13  15
BRANCH   2  21
ATOM     21  O   UNL     1       1.622   8.147  21.166  0.00  0.00    +0.000 OA
BRANCH  21  22
ATOM     22  C   UNL     1       1.960   9.488  21.536  0.00  0.00    +0.000 C 
BRANCH  22  23
ATOM     23  C   UNL     1       0.724  10.315  21.826  0.00  0.00    +0.000 A 
ATOM     24  C   UNL     1      -0.109   9.956  22.924  0.00  0.00    +0.000 A 
ATOM     25  C   UNL     1      -1.325  10.600  23.229  0.00  0.00    +0.000 A 
ATOM     26  C   UNL     1      -1.699  11.658  22.370  0.00  0.00    +0.000 A 
ATOM     27  N   UNL     1      -2.822  12.389  22.461  0.00  0.00    +0.000 NA
ATOM     28  S   UNL     1      -2.768  13.484  21.213  0.00  0.00    +0.000 S 
ATOM     29  N   UNL     1      -1.323  13.080  20.500  0.00  0.00    +0.000 NA
ATOM     30  C   UNL     1      -0.820  12.062  21.217  0.00  0.00    +0.000 A 
ATOM     31  C   UNL     1       0.397  11.386  20.960  0.00  0.00    +0.000 A 
ENDBRANCH  22  23
ENDBRANCH  21  22
ENDBRANCH   2  21
TORSDOF 4
ENDMDL
MODEL 6
REMARK VINA RESULT:      -8.6      1.384      1.838
REMARK  Name = 
REMARK  4 active torsions:
REMARK  status: ('A' for Active; 'I' for Inactive)
REMARK    1  A    between atoms: C_2  and  O_3
REMARK    2  A    between atoms: O_3  and  C_4
REMARK    3  A    between atoms: C_4  and  C_5
REMARK    4  A    between atoms: N_24  and  C_25
REMARK                            x       y       z     vdW  Elec       q    Type
REMARK                         _______ _______ _______ _____ _____    ______ ____
ROOT
ATOM      1  O   UNL     1       1.950   8.978  17.372  0.00  0.00    +0.000 OA
ATOM      2  C   UNL     1       1.886   8.492  18.496  0.00  0.00    +0.000 C 
ATOM      3  N   UNL     1       1.953   7.119  18.748  0.00  0.00    +0.000 N 
ATOM      4  C   UNL     1       2.200   6.642  20.108  0.00  0.00    +0.000 C 
ATOM      5  C   UNL     1       2.038   5.145  20.302  0.00  0.00    +0.000 C 
ATOM      6  C   UNL     1       2.575   4.281  19.155  0.00  0.00    +0.000 C 
ATOM      7  C   UNL     1       2.134   4.812  17.798  0.00  0.00    +0.000 C 
ATOM      8  C   UNL     1       2.371   6.297  17.616  0.00  0.00    +0.000 C 
ATOM      9  C   UNL     1       1.889   2.901  19.328  0.00  0.00    +0.000 C 
ATOM     10  O   UNL     1       0.709   2.619  19.191  0.00  0.00    +0.000 OA
ATOM     11  N   UNL     1       2.849   2.000  19.720  0.00  0.00    +0.000 N 
ATOM     12  C   UNL     1       4.142   2.562  19.862  0.00  0.00    +0.000 C 
ATOM     13  N   UNL     1       4.022   3.905  19.301  0.00  0.00    +0.000 N 
ATOM     14  H   UNL     1       2.610   1.040  19.914  0.00  0.00    +0.000 HD
ENDROOT
BRANCH  13  15
ATOM     15  C   UNL     1       5.126   4.494  18.715  0.00  0.00    +0.000 A 
ATOM     16  C   UNL     1       5.470   4.288  17.368  0.00  0.00    +0.000 A 
ATOM     17  C   UNL     1       6.606   4.867  16.778  0.00  0.00    +0.000 A 
ATOM     18  C   UNL     1       7.435   5.694  17.522  0.00  0.00    +0.000 A 
ATOM     19  C   UNL     1       7.131   5.919  18.854  0.00  0.00    +0.000 A 
ATOM     20  C   UNL     1       6.009   5.308  19.432  0.00  0.00    +0.000 A 
ENDBRANCH  13  15
BRANCH   2  21
ATOM     21  O   UNL     1       1.800   9.233  19.633  0.00  0.00    +0.000 OA
BRANCH  21  22
ATOM     22  C   UNL     1       1.289  10.560  19.468  0.00  0.00    +0.000 C 
BRANCH  22  23
ATOM     23  C   UNL     1       0.313  10.924  20.569  0.00  0.00    +0.000 A 
ATOM     24  C   UNL     1       0.372  10.222  21.807  0.00  0.00    +0.000 A 
ATOM     25  C   UNL     1      -0.540  10.418  22.863  0.00  0.00    +0.000 A 
ATOM     26  C   UNL     1      -1.557  11.374  22.636  0.00  0.00    +0.000 A 
ATOM     27  N   UNL     1      -2.539  11.700  23.491  0.00  0.00    +0.000 NA
ATOM     28  S   UNL     1      -3.452  12.862  22.732  0.00  0.00    +0.000 S 
ATOM     29  N   UNL     1      -2.646  13.002  21.286  0.00  0.00    +0.000 NA
ATOM     30  C   UNL     1      -1.621  12.137  21.339  0.00  0.00    +0.000 A 
ATOM     31  C   UNL     1      -0.672  11.908  20.314  0.00  0.00    +0.000 A 
ENDBRANCH  22  23
ENDBRANCH  21  22
ENDBRANCH   2  21
TORSDOF 4
ENDMDL
MODEL 7
REMARK VINA RESULT:      -8.6      3.291      4.619
REMARK  Name = 
REMARK  4 active torsions:
REMARK  status: ('A' for Active; 'I' for Inactive)
REMARK    1  A    between atoms: C_2  and  O_3
REMARK    2  A    between atoms: O_3  and  C_4
REMARK    3  A    between atoms: C_4  and  C_5
REMARK    4  A    between atoms: N_24  and  C_25
REMARK                            x       y       z     vdW  Elec       q    Type
REMARK                         _______ _______ _______ _____ _____    ______ ____
ROOT
ATOM      1  O   UNL     1       1.563   7.832  21.047  0.00  0.00    +0.000 OA
ATOM      2  C   UNL     1       1.865   8.064  19.882  0.00  0.00    +0.000 C 
ATOM      3  N   UNL     1       2.909   7.418  19.212  0.00  0.00    +0.000 N 
ATOM      4  C   UNL     1       2.998   7.501  17.755  0.00  0.00    +0.000 C 
ATOM      5  C   UNL     1       4.281   6.950  17.159  0.00  0.00    +0.000 C 
ATOM      6  C   UNL     1       4.801   5.665  17.815  0.00  0.00    +0.000 C 
ATOM      7  C   UNL     1       4.780   5.762  19.334  0.00  0.00    +0.000 C 
ATOM      8  C   UNL     1       3.462   6.253  19.897  0.00  0.00    +0.000 C 
ATOM      9  C   UNL     1       6.294   5.573  17.404  0.00  0.00    +0.000 C 
ATOM     10  O   UNL     1       7.217   6.298  17.737  0.00  0.00    +0.000 OA
ATOM     11  N   UNL     1       6.425   4.522  16.529  0.00  0.00    +0.000 N 
ATOM     12  C   UNL     1       5.209   3.852  16.249  0.00  0.00    +0.000 C 
ATOM     13  N   UNL     1       4.255   4.406  17.205  0.00  0.00    +0.000 N 
ATOM     14  H   UNL     1       7.317   4.301  16.116  0.00  0.00    +0.000 HD
ENDROOT
BRANCH  13  15
ATOM     15  C   UNL     1       3.208   3.621  17.649  0.00  0.00    +0.000 A 
ATOM     16  C   UNL     1       1.880   4.081  17.691  0.00  0.00    +0.000 A 
ATOM     17  C   UNL     1       0.819   3.292  18.166  0.00  0.00    +0.000 A 
ATOM     18  C   UNL     1       1.052   1.998  18.604  0.00  0.00    +0.000 A 
ATOM     19  C   UNL     1       2.347   1.509  18.581  0.00  0.00    +0.000 A 
ATOM     20  C   UNL     1       3.398   2.322  18.132  0.00  0.00    +0.000 A 
ENDBRANCH  13  15
BRANCH   2  21
ATOM     21  O   UNL     1       1.186   8.932  19.085  0.00  0.00    +0.000 OA
BRANCH  21  22
ATOM     22  C   UNL     1       0.525  10.005  19.764  0.00  0.00    +0.000 C 
BRANCH  22  23
ATOM     23  C   UNL     1      -0.674  10.505  18.983  0.00  0.00    +0.000 A 
ATOM     24  C   UNL     1      -1.563  11.433  19.598  0.00  0.00    +0.000 A 
ATOM     25  C   UNL     1      -2.752  11.894  18.998  0.00  0.00    +0.000 A 
ATOM     26  C   UNL     1      -3.039  11.379  17.712  0.00  0.00    +0.000 A 
ATOM     27  N   UNL     1      -4.122  11.662  16.973  0.00  0.00    +0.000 NA
ATOM     28  S   UNL     1      -3.966  10.795  15.564  0.00  0.00    +0.000 S 
ATOM     29  N   UNL     1      -2.520  10.020  15.830  0.00  0.00    +0.000 NA
ATOM     30  C   UNL     1      -2.098  10.412  17.043  0.00  0.00    +0.000 A 
ATOM     31  C   UNL     1      -0.912   9.988  17.687  0.00  0.00    +0.000 A 
ENDBRANCH  22  23
ENDBRANCH  21  22
ENDBRANCH   2  21
TORSDOF 4
ENDMDL
MODEL 8
REMARK VINA RESULT:      -8.6      3.164      4.588
REMARK  Name = 
REMARK  4 active torsions:
REMARK  status: ('A' for Active; 'I' for Inactive)
REMARK    1  A    between atoms: C_2  and  O_3
REMARK    2  A    between atoms: O_3  and  C_4
REMARK    3  A    between atoms: C_4  and  C_5
REMARK    4  A    between atoms: N_24  and  C_25
REMARK                            x       y       z     vdW  Elec       q    Type
REMARK                         _______ _______ _______ _____ _____    ______ ____
ROOT
ATOM      1  O   UNL     1       1.463   8.214  20.526  0.00  0.00    +0.000 OA
ATOM      2  C   UNL     1       1.845   8.297  19.364  0.00  0.00    +0.000 C 
ATOM      3  N   UNL     1       2.906   7.549  18.845  0.00  0.00    +0.000 N 
ATOM      4  C   UNL     1       3.088   7.455  17.397  0.00  0.00    +0.000 C 
ATOM      5  C   UNL     1       4.387   6.804  16.956  0.00  0.00    +0.000 C 
ATOM      6  C   UNL     1       4.821   5.594  17.790  0.00  0.00    +0.000 C 
ATOM      7  C   UNL     1       4.709   5.871  19.283  0.00  0.00    +0.000 C 
ATOM      8  C   UNL     1       3.376   6.460  19.697  0.00  0.00    +0.000 C 
ATOM      9  C   UNL     1       6.333   5.414  17.492  0.00  0.00    +0.000 C 
ATOM     10  O   UNL     1       7.258   6.149  17.798  0.00  0.00    +0.000 OA
ATOM     11  N   UNL     1       6.482   4.263  16.757  0.00  0.00    +0.000 N 
ATOM     12  C   UNL     1       5.264   3.596  16.478  0.00  0.00    +0.000 C 
ATOM     13  N   UNL     1       4.272   4.285  17.298  0.00  0.00    +0.000 N 
ATOM     14  H   UNL     1       7.391   3.971  16.433  0.00  0.00    +0.000 HD
ENDROOT
BRANCH  13  15
ATOM     15  C   UNL     1       3.174   3.586  17.761  0.00  0.00    +0.000 A 
ATOM     16  C   UNL     1       1.863   4.085  17.668  0.00  0.00    +0.000 A 
ATOM     17  C   UNL     1       0.749   3.387  18.162  0.00  0.00    +0.000 A 
ATOM     18  C   UNL     1       0.910   2.145  18.757  0.00  0.00    +0.000 A 
ATOM     19  C   UNL     1       2.186   1.620  18.869  0.00  0.00    +0.000 A 
ATOM     20  C   UNL     1       3.289   2.346  18.397  0.00  0.00    +0.000 A 
ENDBRANCH  13  15
BRANCH   2  21
ATOM     21  O   UNL     1       1.246   9.081  18.428  0.00  0.00    +0.000 OA
BRANCH  21  22
ATOM     22  C   UNL     1       0.719  10.323  18.909  0.00  0.00    +0.000 C 
BRANCH  22  23
ATOM     23  C   UNL     1      -0.747  10.479  18.559  0.00  0.00    +0.000 A 
ATOM     24  C   UNL     1      -1.263   9.802  17.417  0.00  0.00    +0.000 A 
ATOM     25  C   UNL     1      -2.585   9.946  16.952  0.00  0.00    +0.000 A 
ATOM     26  C   UNL     1      -3.412  10.823  17.693  0.00  0.00    +0.000 A 
ATOM     27  N   UNL     1      -4.690  11.125  17.416  0.00  0.00    +0.000 NA
ATOM     28  S   UNL     1      -5.182  12.195  18.588  0.00  0.00    +0.000 S 
ATOM     29  N   UNL     1      -3.796  12.326  19.497  0.00  0.00    +0.000 NA
ATOM     30  C   UNL     1      -2.886  11.530  18.914  0.00  0.00    +0.000 A 
ATOM     31  C   UNL     1      -1.550  11.343  19.343  0.00  0.00    +0.000 A 
ENDBRANCH  22  23
ENDBRANCH  21  22
ENDBRANCH   2  21
TORSDOF 4
ENDMDL
MODEL 9
REMARK VINA RESULT:      -8.4      1.539      2.062
REMARK  Name = 
REMARK  4 active torsions:
REMARK  status: ('A' for Active; 'I' for Inactive)
REMARK    1  A    between atoms: C_2  and  O_3
REMARK    2  A    between atoms: O_3  and  C_4
REMARK    3  A    between atoms: C_4  and  C_5
REMARK    4  A    between atoms: N_24  and  C_25
REMARK                            x       y       z     vdW  Elec       q    Type
REMARK                         _______ _______ _______ _____ _____    ______ ____
ROOT
ATOM      1  O   UNL     1       2.034   8.952  17.467  0.00  0.00    +0.000 OA
ATOM      2  C   UNL     1       1.971   8.439  18.578  0.00  0.00    +0.000 C 
ATOM      3  N   UNL     1       2.024   7.059  18.795  0.00  0.00    +0.000 N 
ATOM      4  C   UNL     1       2.273   6.545  20.141  0.00  0.00    +0.000 C 
ATOM      5  C   UNL     1       2.095   5.046  20.297  0.00  0.00    +0.000 C 
ATOM      6  C   UNL     1       2.617   4.205  19.126  0.00  0.00    +0.000 C 
ATOM      7  C   UNL     1       2.174   4.775  17.785  0.00  0.00    +0.000 C 
ATOM      8  C   UNL     1       2.427   6.262  17.640  0.00  0.00    +0.000 C 
ATOM      9  C   UNL     1       1.916   2.829  19.267  0.00  0.00    +0.000 C 
ATOM     10  O   UNL     1       0.733   2.564  19.130  0.00  0.00    +0.000 OA
ATOM     11  N   UNL     1       2.868   1.908  19.631  0.00  0.00    +0.000 N 
ATOM     12  C   UNL     1       4.168   2.452  19.780  0.00  0.00    +0.000 C 
ATOM     13  N   UNL     1       4.060   3.809  19.254  0.00  0.00    +0.000 N 
ATOM     14  H   UNL     1       2.619   0.946  19.802  0.00  0.00    +0.000 HD
ENDROOT
BRANCH  13  15
ATOM     15  C   UNL     1       5.167   4.402  18.677  0.00  0.00    +0.000 A 
ATOM     16  C   UNL     1       5.554   4.154  17.349  0.00  0.00    +0.000 A 
ATOM     17  C   UNL     1       6.693   4.736  16.769  0.00  0.00    +0.000 A 
ATOM     18  C   UNL     1       7.484   5.607  17.504  0.00  0.00    +0.000 A 
ATOM     19  C   UNL     1       7.137   5.874  18.818  0.00  0.00    +0.000 A 
ATOM     20  C   UNL     1       6.013   5.260  19.388  0.00  0.00    +0.000 A 
ENDBRANCH  13  15
BRANCH   2  21
ATOM     21  O   UNL     1       1.899   9.152  19.734  0.00  0.00    +0.000 OA
BRANCH  21  22
ATOM     22  C   UNL     1       0.587   9.578  20.116  0.00  0.00    +0.000 C 
BRANCH  22  23
ATOM     23  C   UNL     1       0.352  11.036  19.775  0.00  0.00    +0.000 A 
ATOM     24  C   UNL     1      -0.637  11.370  18.805  0.00  0.00    +0.000 A 
ATOM     25  C   UNL     1      -0.875  12.682  18.351  0.00  0.00    +0.000 A 
ATOM     26  C   UNL     1      -0.064  13.693  18.916  0.00  0.00    +0.000 A 
ATOM     27  N   UNL     1      -0.105  15.000  18.612  0.00  0.00    +0.000 NA
ATOM     28  S   UNL     1       1.051  15.734  19.553  0.00  0.00    +0.000 S 
ATOM     29  N   UNL     1       1.656  14.429  20.385  0.00  0.00    +0.000 NA
ATOM     30  C   UNL     1       0.972  13.357  19.956  0.00  0.00    +0.000 A 
ATOM     31  C   UNL     1       1.165  12.021  20.384  0.00  0.00    +0.000 A 
ENDBRANCH  22  23
ENDBRANCH  21  22
ENDBRANCH   2  21
TORSDOF 4
ENDMDL
