MODEL 1
REMARK VINA RESULT:      -8.9      0.000      0.000
REMARK  Name = 
REMARK  5 active torsions:
REMARK  status: ('A' for Active; 'I' for Inactive)
REMARK    1  A    between atoms: N_3  and  C_4
REMARK    2  A    between atoms: C_4  and  C_5
REMARK    3  A    between atoms: C_5  and  C_6
REMARK    4  A    between atoms: C_6  and  C_7
REMARK    5  A    between atoms: C_7  and  C_8
REMARK                            x       y       z     vdW  Elec       q    Type
REMARK                         _______ _______ _______ _____ _____    ______ ____
ROOT
ATOM      1  O   UNL     1       8.077   4.510  17.094  0.00  0.00    +0.000 OA
ATOM      2  C   UNL     1       7.102   4.863  17.755  0.00  0.00    +0.000 C 
ATOM      3  N   UNL     1       6.739   6.157  17.925  0.00  0.00    +0.000 N 
ATOM      4  N   UNL     1       6.336   3.920  18.373  0.00  0.00    +0.000 N 
ATOM      5  C   UNL     1       5.110   4.072  19.029  0.00  0.00    +0.000 A 
ATOM      6  C   UNL     1       4.499   2.929  19.503  0.00  0.00    +0.000 A 
ATOM      7  C   UNL     1       3.242   3.049  20.080  0.00  0.00    +0.000 A 
ATOM      8  C   UNL     1       2.633   4.286  20.183  0.00  0.00    +0.000 A 
ATOM      9  N   UNL     1       1.411   4.354  20.731  0.00  0.00    +0.000 NA
ATOM     10  C   UNL     1       0.901   5.600  20.814  0.00  0.00    +0.000 A 
ATOM     11  C   UNL     1       1.561   6.756  20.398  0.00  0.00    +0.000 A 
ATOM     12  N   UNL     1       0.985   7.996  20.582  0.00  0.00    +0.000 N 
ATOM     13  C   UNL     1       1.269   9.126  19.695  0.00  0.00    +0.000 C 
ATOM     14  C   UNL     1       1.780  10.336  20.496  0.00  0.00    +0.000 C 
ATOM     15  O   UNL     1       0.912  10.655  21.600  0.00  0.00    +0.000 OA
ATOM     16  C   UNL     1       0.819   9.536  22.494  0.00  0.00    +0.000 C 
ATOM     17  C   UNL     1       0.215   8.311  21.790  0.00  0.00    +0.000 C 
ATOM     18  N   UNL     1       2.778   6.643  19.819  0.00  0.00    +0.000 NA
ATOM     19  C   UNL     1       3.333   5.420  19.708  0.00  0.00    +0.000 A 
ATOM     20  N   UNL     1       4.546   5.297  19.152  0.00  0.00    +0.000 NA
ATOM     21  H   UNL     1       5.976   6.329  18.578  0.00  0.00    +0.000 HD
ATOM     22  H   UNL     1       6.704   2.987  18.248  0.00  0.00    +0.000 HD
ENDROOT
BRANCH   3  23
ATOM     23  C   UNL     1       7.421   7.281  17.329  0.00  0.00    +0.000 C 
BRANCH  23  24
ATOM     24  C   UNL     1       8.265   8.076  18.324  0.00  0.00    +0.000 C 
BRANCH  24  25
ATOM     25  C   UNL     1       8.416   9.550  17.934  0.00  0.00    +0.000 C 
BRANCH  25  26
ATOM     26  C   UNL     1       9.330  10.293  18.915  0.00  0.00    +0.000 C 
BRANCH  26  27
ATOM     27  C   UNL     1       9.805  11.607  18.346  0.00  0.00    +0.000 A 
ATOM     28  C   UNL     1      11.071  11.712  17.754  0.00  0.00    +0.000 A 
ATOM     29  C   UNL     1      11.534  12.944  17.288  0.00  0.00    +0.000 A 
ATOM     30  C   UNL     1      10.733  14.079  17.402  0.00  0.00    +0.000 A 
ATOM     31  C   UNL     1       9.464  13.982  17.970  0.00  0.00    +0.000 A 
ATOM     32  C   UNL     1       9.004  12.752  18.444  0.00  0.00    +0.000 A 
ENDBRANCH  26  27
ENDBRANCH  25  26
ENDBRANCH  24  25
ENDBRANCH  23  24
ENDBRANCH   3  23
TORSDOF 5
ENDMDL
MODEL 2
REMARK VINA RESULT:      -8.4      6.468      9.925
REMARK  Name = 
REMARK  5 active torsions:
REMARK  status: ('A' for Active; 'I' for Inactive)
REMARK    1  A    between atoms: N_3  and  C_4
REMARK    2  A    between atoms: C_4  and  C_5
REMARK    3  A    between atoms: C_5  and  C_6
REMARK    4  A    between atoms: C_6  and  C_7
REMARK    5  A    between atoms: C_7  and  C_8
REMARK                            x       y       z     vdW  Elec       q    Type
REMARK                         _______ _______ _______ _____ _____    ______ ____
ROOT
ATOM      1  O   UNL     1       1.232   9.384  17.792  0.00  0.00    +0.000 OA
ATOM      2  C   UNL     1       0.103   9.779  18.079  0.00  0.00    +0.000 C 
ATOM      3  N   UNL     1      -0.272  10.132  19.332  0.00  0.00    +0.000 N 
ATOM      4  N   UNL     1      -0.846   9.861  17.103  0.00  0.00    +0.000 N 
ATOM      5  C   UNL     1      -2.124  10.427  17.163  0.00  0.00    +0.000 A 
ATOM      6  C   UNL     1      -2.860  10.451  15.997  0.00  0.00    +0.000 A 
ATOM      7  C   UNL     1      -4.096  11.085  16.014  0.00  0.00    +0.000 A 
ATOM      8  C   UNL     1      -4.571  11.662  17.178  0.00  0.00    +0.000 A 
ATOM      9  N   UNL     1      -5.761  12.279  17.147  0.00  0.00    +0.000 NA
ATOM     10  C   UNL     1      -6.159  12.792  18.328  0.00  0.00    +0.000 A 
ATOM     11  C   UNL     1      -5.438  12.695  19.518  0.00  0.00    +0.000 A 
ATOM     12  N   UNL     1      -5.956  13.197  20.695  0.00  0.00    +0.000 N 
ATOM     13  C   UNL     1      -5.099  13.679  21.780  0.00  0.00    +0.000 C 
ATOM     14  C   UNL     1      -5.423  12.954  23.097  0.00  0.00    +0.000 C 
ATOM     15  O   UNL     1      -6.831  12.988  23.396  0.00  0.00    +0.000 OA
ATOM     16  C   UNL     1      -7.574  12.354  22.345  0.00  0.00    +0.000 C 
ATOM     17  C   UNL     1      -7.384  13.090  21.009  0.00  0.00    +0.000 C 
ATOM     18  N   UNL     1      -4.225  12.095  19.502  0.00  0.00    +0.000 NA
ATOM     19  C   UNL     1      -3.778  11.568  18.345  0.00  0.00    +0.000 A 
ATOM     20  N   UNL     1      -2.586  10.955  18.321  0.00  0.00    +0.000 NA
ATOM     21  H   UNL     1      -1.260  10.343  19.464  0.00  0.00    +0.000 HD
ATOM     22  H   UNL     1      -0.507   9.527  16.212  0.00  0.00    +0.000 HD
ENDROOT
BRANCH   3  23
ATOM     23  C   UNL     1       0.604  10.125  20.478  0.00  0.00    +0.000 C 
BRANCH  23  24
ATOM     24  C   UNL     1       0.595   8.801  21.242  0.00  0.00    +0.000 C 
BRANCH  24  25
ATOM     25  C   UNL     1       1.640   7.807  20.724  0.00  0.00    +0.000 C 
BRANCH  25  26
ATOM     26  C   UNL     1       1.359   6.389  21.237  0.00  0.00    +0.000 C 
BRANCH  26  27
ATOM     27  C   UNL     1       1.534   5.360  20.148  0.00  0.00    +0.000 A 
ATOM     28  C   UNL     1       2.205   5.685  18.960  0.00  0.00    +0.000 A 
ATOM     29  C   UNL     1       2.307   4.751  17.928  0.00  0.00    +0.000 A 
ATOM     30  C   UNL     1       1.749   3.482  18.075  0.00  0.00    +0.000 A 
ATOM     31  C   UNL     1       1.099   3.142  19.260  0.00  0.00    +0.000 A 
ATOM     32  C   UNL     1       0.988   4.077  20.290  0.00  0.00    +0.000 A 
ENDBRANCH  26  27
ENDBRANCH  25  26
ENDBRANCH  24  25
ENDBRANCH  23  24
ENDBRANCH   3  23
TORSDOF 5
ENDMDL
MODEL 3
REMARK VINA RESULT:      -8.3      0.889      1.175
REMARK  Name = 
REMARK  5 active torsions:
REMARK  status: ('A' for Active; 'I' for Inactive)
REMARK    1  A    between atoms: N_3  and  C_4
REMARK    2  A    between atoms: C_4  and  C_5
REMARK    3  A    between atoms: C_5  and  C_6
REMARK    4  A    between atoms: C_6  and  C_7
REMARK    5  A    between atoms: C_7  and  C_8
REMARK                            x       y       z     vdW  Elec       q    Type
REMARK                         _______ _______ _______ _____ _____    ______ ____
ROOT
ATOM      1  O   UNL     1       8.120   4.374  17.025  0.00  0.00    +0.000 OA
ATOM      2  C   UNL     1       7.151   4.776  17.670  0.00  0.00    +0.000 C 
ATOM      3  N   UNL     1       6.798   6.080  17.758  0.00  0.00    +0.000 N 
ATOM      4  N   UNL     1       6.386   3.880  18.354  0.00  0.00    +0.000 N 
ATOM      5  C   UNL     1       5.165   4.082  19.008  0.00  0.00    +0.000 A 
ATOM      6  C   UNL     1       4.552   2.977  19.560  0.00  0.00    +0.000 A 
ATOM      7  C   UNL     1       3.300   3.142  20.138  0.00  0.00    +0.000 A 
ATOM      8  C   UNL     1       2.700   4.388  20.165  0.00  0.00    +0.000 A 
ATOM      9  N   UNL     1       1.483   4.500  20.717  0.00  0.00    +0.000 NA
ATOM     10  C   UNL     1       0.981   5.751  20.723  0.00  0.00    +0.000 A 
ATOM     11  C   UNL     1       1.645   6.874  20.228  0.00  0.00    +0.000 A 
ATOM     12  N   UNL     1       1.078   8.127  20.335  0.00  0.00    +0.000 N 
ATOM     13  C   UNL     1       1.361   9.195  19.374  0.00  0.00    +0.000 C 
ATOM     14  C   UNL     1       1.886  10.451  20.090  0.00  0.00    +0.000 C 
ATOM     15  O   UNL     1       1.030  10.847  21.178  0.00  0.00    +0.000 OA
ATOM     16  C   UNL     1       0.938   9.789  22.144  0.00  0.00    +0.000 C 
ATOM     17  C   UNL     1       0.320   8.525  21.526  0.00  0.00    +0.000 C 
ATOM     18  N   UNL     1       2.857   6.715  19.647  0.00  0.00    +0.000 NA
ATOM     19  C   UNL     1       3.402   5.483  19.612  0.00  0.00    +0.000 A 
ATOM     20  N   UNL     1       4.610   5.317  19.055  0.00  0.00    +0.000 NA
ATOM     21  H   UNL     1       6.042   6.300  18.404  0.00  0.00    +0.000 HD
ATOM     22  H   UNL     1       6.746   2.938  18.287  0.00  0.00    +0.000 HD
ENDROOT
BRANCH   3  23
ATOM     23  C   UNL     1       7.482   7.158  17.084  0.00  0.00    +0.000 C 
BRANCH  23  24
ATOM     24  C   UNL     1       7.221   8.528  17.710  0.00  0.00    +0.000 C 
BRANCH  24  25
ATOM     25  C   UNL     1       8.480   9.158  18.314  0.00  0.00    +0.000 C 
BRANCH  25  26
ATOM     26  C   UNL     1       8.781  10.518  17.673  0.00  0.00    +0.000 C 
BRANCH  26  27
ATOM     27  C   UNL     1       9.695  11.350  18.540  0.00  0.00    +0.000 A 
ATOM     28  C   UNL     1       9.818  11.082  19.910  0.00  0.00    +0.000 A 
ATOM     29  C   UNL     1      10.612  11.894  20.721  0.00  0.00    +0.000 A 
ATOM     30  C   UNL     1      11.297  12.975  20.170  0.00  0.00    +0.000 A 
ATOM     31  C   UNL     1      11.199  13.238  18.804  0.00  0.00    +0.000 A 
ATOM     32  C   UNL     1      10.399  12.431  17.994  0.00  0.00    +0.000 A 
ENDBRANCH  26  27
ENDBRANCH  25  26
ENDBRANCH  24  25
ENDBRANCH  23  24
ENDBRANCH   3  23
TORSDOF 5
ENDMDL
MODEL 4
REMARK VINA RESULT:      -8.2      0.815      1.022
REMARK  Name = 
REMARK  5 active torsions:
REMARK  status: ('A' for Active; 'I' for Inactive)
REMARK    1  A    between atoms: N_3  and  C_4
REMARK    2  A    between atoms: C_4  and  C_5
REMARK    3  A    between atoms: C_5  and  C_6
REMARK    4  A    between atoms: C_6  and  C_7
REMARK    5  A    between atoms: C_7  and  C_8
REMARK                            x       y       z     vdW  Elec       q    Type
REMARK                         _______ _______ _______ _____ _____    ______ ____
ROOT
ATOM      1  O   UNL     1       8.072   4.555  17.024  0.00  0.00    +0.000 OA
ATOM      2  C   UNL     1       7.094   4.894  17.689  0.00  0.00    +0.000 C 
ATOM      3  N   UNL     1       6.736   6.184  17.895  0.00  0.00    +0.000 N 
ATOM      4  N   UNL     1       6.320   3.936  18.275  0.00  0.00    +0.000 N 
ATOM      5  C   UNL     1       5.090   4.075  18.928  0.00  0.00    +0.000 A 
ATOM      6  C   UNL     1       4.471   2.922  19.363  0.00  0.00    +0.000 A 
ATOM      7  C   UNL     1       3.211   3.031  19.937  0.00  0.00    +0.000 A 
ATOM      8  C   UNL     1       2.608   4.268  20.072  0.00  0.00    +0.000 A 
ATOM      9  N   UNL     1       1.383   4.326  20.615  0.00  0.00    +0.000 NA
ATOM     10  C   UNL     1       0.879   5.571  20.732  0.00  0.00    +0.000 A 
ATOM     11  C   UNL     1       1.547   6.736  20.355  0.00  0.00    +0.000 A 
ATOM     12  N   UNL     1       0.976   7.973  20.573  0.00  0.00    +0.000 N 
ATOM     13  C   UNL     1       1.271   9.127  19.721  0.00  0.00    +0.000 C 
ATOM     14  C   UNL     1       1.783  10.310  20.560  0.00  0.00    +0.000 C 
ATOM     15  O   UNL     1       0.910  10.601  21.668  0.00  0.00    +0.000 OA
ATOM     16  C   UNL     1       0.807   9.456  22.528  0.00  0.00    +0.000 C 
ATOM     17  C   UNL     1       0.201   8.256  21.784  0.00  0.00    +0.000 C 
ATOM     18  N   UNL     1       2.767   6.634  19.780  0.00  0.00    +0.000 NA
ATOM     19  C   UNL     1       3.316   5.411  19.636  0.00  0.00    +0.000 A 
ATOM     20  N   UNL     1       4.532   5.299  19.083  0.00  0.00    +0.000 NA
ATOM     21  H   UNL     1       5.970   6.341  18.549  0.00  0.00    +0.000 HD
ATOM     22  H   UNL     1       6.684   3.006  18.124  0.00  0.00    +0.000 HD
ENDROOT
BRANCH   3  23
ATOM     23  C   UNL     1       7.427   7.321  17.337  0.00  0.00    +0.000 C 
BRANCH  23  24
ATOM     24  C   UNL     1       8.290   8.067  18.354  0.00  0.00    +0.000 C 
BRANCH  24  25
ATOM     25  C   UNL     1       8.422   9.561  18.043  0.00  0.00    +0.000 C 
BRANCH  25  26
ATOM     26  C   UNL     1       9.478  10.223  18.936  0.00  0.00    +0.000 C 
BRANCH  26  27
ATOM     27  C   UNL     1       9.274  11.716  19.024  0.00  0.00    +0.000 A 
ATOM     28  C   UNL     1       8.775  12.433  17.929  0.00  0.00    +0.000 A 
ATOM     29  C   UNL     1       8.651  13.823  17.991  0.00  0.00    +0.000 A 
ATOM     30  C   UNL     1       9.015  14.505  19.150  0.00  0.00    +0.000 A 
ATOM     31  C   UNL     1       9.492  13.799  20.253  0.00  0.00    +0.000 A 
ATOM     32  C   UNL     1       9.625  12.411  20.189  0.00  0.00    +0.000 A 
ENDBRANCH  26  27
ENDBRANCH  25  26
ENDBRANCH  24  25
ENDBRANCH  23  24
ENDBRANCH   3  23
TORSDOF 5
ENDMDL
MODEL 5
REMARK VINA RESULT:      -8.0      4.883      9.287
REMARK  Name = 
REMARK  5 active torsions:
REMARK  status: ('A' for Active; 'I' for Inactive)
REMARK    1  A    between atoms: N_3  and  C_4
REMARK    2  A    between atoms: C_4  and  C_5
REMARK    3  A    between atoms: C_5  and  C_6
REMARK    4  A    between atoms: C_6  and  C_7
REMARK    5  A    between atoms: C_7  and  C_8
REMARK                            x       y       z     vdW  Elec       q    Type
REMARK                         _______ _______ _______ _____ _____    ______ ____
ROOT
ATOM      1  O   UNL     1      11.608  11.147  18.067  0.00  0.00    +0.000 OA
ATOM      2  C   UNL     1      10.636  11.901  18.111  0.00  0.00    +0.000 C 
ATOM      3  N   UNL     1       9.396  11.505  18.486  0.00  0.00    +0.000 N 
ATOM      4  N   UNL     1      10.788  13.207  17.754  0.00  0.00    +0.000 N 
ATOM      5  C   UNL     1       9.881  14.266  17.880  0.00  0.00    +0.000 A 
ATOM      6  C   UNL     1      10.318  15.521  17.513  0.00  0.00    +0.000 A 
ATOM      7  C   UNL     1       9.463  16.597  17.711  0.00  0.00    +0.000 A 
ATOM      8  C   UNL     1       8.205  16.402  18.251  0.00  0.00    +0.000 A 
ATOM      9  N   UNL     1       7.418  17.471  18.442  0.00  0.00    +0.000 NA
ATOM     10  C   UNL     1       6.201  17.190  18.950  0.00  0.00    +0.000 A 
ATOM     11  C   UNL     1       5.744  15.906  19.249  0.00  0.00    +0.000 A 
ATOM     12  N   UNL     1       4.458  15.709  19.706  0.00  0.00    +0.000 N 
ATOM     13  C   UNL     1       4.105  14.586  20.577  0.00  0.00    +0.000 C 
ATOM     14  C   UNL     1       2.962  13.757  19.966  0.00  0.00    +0.000 C 
ATOM     15  O   UNL     1       1.845  14.582  19.583  0.00  0.00    +0.000 OA
ATOM     16  C   UNL     1       2.260  15.554  18.612  0.00  0.00    +0.000 C 
ATOM     17  C   UNL     1       3.332  16.492  19.188  0.00  0.00    +0.000 C 
ATOM     18  N   UNL     1       6.580  14.856  19.075  0.00  0.00    +0.000 NA
ATOM     19  C   UNL     1       7.810  15.083  18.572  0.00  0.00    +0.000 A 
ATOM     20  N   UNL     1       8.640  14.049  18.379  0.00  0.00    +0.000 NA
ATOM     21  H   UNL     1       8.653  12.194  18.382  0.00  0.00    +0.000 HD
ATOM     22  H   UNL     1      11.724  13.410  17.433  0.00  0.00    +0.000 HD
ENDROOT
BRANCH   3  23
ATOM     23  C   UNL     1       9.061  10.168  18.912  0.00  0.00    +0.000 C 
BRANCH  23  24
ATOM     24  C   UNL     1       8.255   9.384  17.877  0.00  0.00    +0.000 C 
BRANCH  24  25
ATOM     25  C   UNL     1       8.162   7.889  18.200  0.00  0.00    +0.000 C 
BRANCH  25  26
ATOM     26  C   UNL     1       7.458   7.121  17.076  0.00  0.00    +0.000 C 
BRANCH  26  27
ATOM     27  C   UNL     1       6.242   6.385  17.583  0.00  0.00    +0.000 A 
ATOM     28  C   UNL     1       4.981   6.613  17.014  0.00  0.00    +0.000 A 
ATOM     29  C   UNL     1       3.849   5.980  17.530  0.00  0.00    +0.000 A 
ATOM     30  C   UNL     1       3.966   5.108  18.610  0.00  0.00    +0.000 A 
ATOM     31  C   UNL     1       5.218   4.857  19.169  0.00  0.00    +0.000 A 
ATOM     32  C   UNL     1       6.351   5.495  18.660  0.00  0.00    +0.000 A 
ENDBRANCH  26  27
ENDBRANCH  25  26
ENDBRANCH  24  25
ENDBRANCH  23  24
ENDBRANCH   3  23
TORSDOF 5
ENDMDL
MODEL 6
REMARK VINA RESULT:      -7.8      4.642     10.200
REMARK  Name = 
REMARK  5 active torsions:
REMARK  status: ('A' for Active; 'I' for Inactive)
REMARK    1  A    between atoms: N_3  and  C_4
REMARK    2  A    between atoms: C_4  and  C_5
REMARK    3  A    between atoms: C_5  and  C_6
REMARK    4  A    between atoms: C_6  and  C_7
REMARK    5  A    between atoms: C_7  and  C_8
REMARK                            x       y       z     vdW  Elec       q    Type
REMARK                         _______ _______ _______ _____ _____    ______ ____
ROOT
ATOM      1  O   UNL     1      -0.571   9.814  17.751  0.00  0.00    +0.000 OA
ATOM      2  C   UNL     1       0.236  10.704  18.019  0.00  0.00    +0.000 C 
ATOM      3  N   UNL     1       1.579  10.543  17.957  0.00  0.00    +0.000 N 
ATOM      4  N   UNL     1      -0.223  11.924  18.417  0.00  0.00    +0.000 N 
ATOM      5  C   UNL     1       0.489  13.113  18.611  0.00  0.00    +0.000 A 
ATOM      6  C   UNL     1      -0.236  14.239  18.940  0.00  0.00    +0.000 A 
ATOM      7  C   UNL     1       0.442  15.446  19.052  0.00  0.00    +0.000 A 
ATOM      8  C   UNL     1       1.808  15.503  18.850  0.00  0.00    +0.000 A 
ATOM      9  N   UNL     1       2.421  16.692  18.951  0.00  0.00    +0.000 NA
ATOM     10  C   UNL     1       3.755  16.655  18.762  0.00  0.00    +0.000 A 
ATOM     11  C   UNL     1       4.487  15.496  18.503  0.00  0.00    +0.000 A 
ATOM     12  N   UNL     1       5.861  15.546  18.387  0.00  0.00    +0.000 N 
ATOM     13  C   UNL     1       6.608  14.595  17.562  0.00  0.00    +0.000 C 
ATOM     14  C   UNL     1       7.689  13.881  18.391  0.00  0.00    +0.000 C 
ATOM     15  O   UNL     1       8.516  14.813  19.113  0.00  0.00    +0.000 OA
ATOM     16  C   UNL     1       7.711  15.595  20.008  0.00  0.00    +0.000 C 
ATOM     17  C   UNL     1       6.670  16.423  19.240  0.00  0.00    +0.000 C 
ATOM     18  N   UNL     1       3.829  14.320  18.374  0.00  0.00    +0.000 NA
ATOM     19  C   UNL     1       2.493  14.303  18.550  0.00  0.00    +0.000 A 
ATOM     20  N   UNL     1       1.833  13.142  18.443  0.00  0.00    +0.000 NA
ATOM     21  H   UNL     1       2.143  11.318  18.302  0.00  0.00    +0.000 HD
ATOM     22  H   UNL     1      -1.230  11.948  18.494  0.00  0.00    +0.000 HD
ENDROOT
BRANCH   3  23
ATOM     23  C   UNL     1       2.236   9.328  17.538  0.00  0.00    +0.000 C 
BRANCH  23  24
ATOM     24  C   UNL     1       2.158   8.207  18.574  0.00  0.00    +0.000 C 
BRANCH  24  25
ATOM     25  C   UNL     1       3.014   6.991  18.203  0.00  0.00    +0.000 C 
BRANCH  25  26
ATOM     26  C   UNL     1       3.304   6.122  19.432  0.00  0.00    +0.000 C 
BRANCH  26  27
ATOM     27  C   UNL     1       2.376   4.935  19.504  0.00  0.00    +0.000 A 
ATOM     28  C   UNL     1       1.953   4.434  20.743  0.00  0.00    +0.000 A 
ATOM     29  C   UNL     1       1.148   3.295  20.808  0.00  0.00    +0.000 A 
ATOM     30  C   UNL     1       0.752   2.652  19.637  0.00  0.00    +0.000 A 
ATOM     31  C   UNL     1       1.149   3.154  18.399  0.00  0.00    +0.000 A 
ATOM     32  C   UNL     1       1.960   4.288  18.332  0.00  0.00    +0.000 A 
ENDBRANCH  26  27
ENDBRANCH  25  26
ENDBRANCH  24  25
ENDBRANCH  23  24
ENDBRANCH   3  23
TORSDOF 5
ENDMDL
MODEL 7
REMARK VINA RESULT:      -7.8      4.636     10.321
REMARK  Name = 
REMARK  5 active torsions:
REMARK  status: ('A' for Active; 'I' for Inactive)
REMARK    1  A    between atoms: N_3  and  C_4
REMARK    2  A    between atoms: C_4  and  C_5
REMARK    3  A    between atoms: C_5  and  C_6
REMARK    4  A    between atoms: C_6  and  C_7
REMARK    5  A    between atoms: C_7  and  C_8
REMARK                            x       y       z     vdW  Elec       q    Type
REMARK                         _______ _______ _______ _____ _____    ______ ____
ROOT
ATOM      1  O   UNL     1      -0.577  10.160  17.973  0.00  0.00    +0.000 OA
ATOM      2  C   UNL     1       0.302  10.995  18.178  0.00  0.00    +0.000 C 
ATOM      3  N   UNL     1       1.627  10.716  18.138  0.00  0.00    +0.000 N 
ATOM      4  N   UNL     1      -0.051  12.277  18.480  0.00  0.00    +0.000 N 
ATOM      5  C   UNL     1       0.761  13.412  18.588  0.00  0.00    +0.000 A 
ATOM      6  C   UNL     1       0.135  14.618  18.826  0.00  0.00    +0.000 A 
ATOM      7  C   UNL     1       0.913  15.767  18.852  0.00  0.00    +0.000 A 
ATOM      8  C   UNL     1       2.279  15.692  18.655  0.00  0.00    +0.000 A 
ATOM      9  N   UNL     1       2.991  16.828  18.670  0.00  0.00    +0.000 NA
ATOM     10  C   UNL     1       4.318  16.663  18.493  0.00  0.00    +0.000 A 
ATOM     11  C   UNL     1       4.948  15.430  18.328  0.00  0.00    +0.000 A 
ATOM     12  N   UNL     1       6.321  15.353  18.218  0.00  0.00    +0.000 N 
ATOM     13  C   UNL     1       6.984  14.282  17.471  0.00  0.00    +0.000 C 
ATOM     14  C   UNL     1       8.000  13.544  18.359  0.00  0.00    +0.000 C 
ATOM     15  O   UNL     1       8.903  14.454  19.014  0.00  0.00    +0.000 OA
ATOM     16  C   UNL     1       8.168  15.367  19.843  0.00  0.00    +0.000 C 
ATOM     17  C   UNL     1       7.202  16.221  19.006  0.00  0.00    +0.000 C 
ATOM     18  N   UNL     1       4.192  14.309  18.283  0.00  0.00    +0.000 NA
ATOM     19  C   UNL     1       2.859  14.419  18.451  0.00  0.00    +0.000 A 
ATOM     20  N   UNL     1       2.102  13.313  18.427  0.00  0.00    +0.000 NA
ATOM     21  H   UNL     1       2.255  11.465  18.427  0.00  0.00    +0.000 HD
ATOM     22  H   UNL     1      -1.052  12.392  18.548  0.00  0.00    +0.000 HD
ENDROOT
BRANCH   3  23
ATOM     23  C   UNL     1       2.178   9.422  17.816  0.00  0.00    +0.000 C 
BRANCH  23  24
ATOM     24  C   UNL     1       1.776   8.328  18.806  0.00  0.00    +0.000 C 
BRANCH  24  25
ATOM     25  C   UNL     1       2.855   7.253  18.978  0.00  0.00    +0.000 C 
BRANCH  25  26
ATOM     26  C   UNL     1       2.488   5.973  18.218  0.00  0.00    +0.000 C 
BRANCH  26  27
ATOM     27  C   UNL     1       2.097   4.861  19.160  0.00  0.00    +0.000 A 
ATOM     28  C   UNL     1       1.278   3.811  18.723  0.00  0.00    +0.000 A 
ATOM     29  C   UNL     1       0.863   2.820  19.615  0.00  0.00    +0.000 A 
ATOM     30  C   UNL     1       1.269   2.864  20.948  0.00  0.00    +0.000 A 
ATOM     31  C   UNL     1       2.101   3.892  21.387  0.00  0.00    +0.000 A 
ATOM     32  C   UNL     1       2.510   4.888  20.499  0.00  0.00    +0.000 A 
ENDBRANCH  26  27
ENDBRANCH  25  26
ENDBRANCH  24  25
ENDBRANCH  23  24
ENDBRANCH   3  23
TORSDOF 5
ENDMDL
MODEL 8
REMARK VINA RESULT:      -7.7      4.950      9.468
REMARK  Name = 
REMARK  5 active torsions:
REMARK  status: ('A' for Active; 'I' for Inactive)
REMARK    1  A    between atoms: N_3  and  C_4
REMARK    2  A    between atoms: C_4  and  C_5
REMARK    3  A    between atoms: C_5  and  C_6
REMARK    4  A    between atoms: C_6  and  C_7
REMARK    5  A    between atoms: C_7  and  C_8
REMARK                            x       y       z     vdW  Elec       q    Type
REMARK                         _______ _______ _______ _____ _____    ______ ____
ROOT
ATOM      1  O   UNL     1      -0.604   8.100  21.800  0.00  0.00    +0.000 OA
ATOM      2  C   UNL     1      -0.168   9.244  21.670  0.00  0.00    +0.000 C 
ATOM      3  N   UNL     1       0.855   9.567  20.844  0.00  0.00    +0.000 N 
ATOM      4  N   UNL     1      -0.720  10.256  22.398  0.00  0.00    +0.000 N 
ATOM      5  C   UNL     1      -0.502  11.634  22.295  0.00  0.00    +0.000 A 
ATOM      6  C   UNL     1      -1.257  12.456  23.105  0.00  0.00    +0.000 A 
ATOM      7  C   UNL     1      -1.118  13.830  22.958  0.00  0.00    +0.000 A 
ATOM      8  C   UNL     1      -0.234  14.349  22.030  0.00  0.00    +0.000 A 
ATOM      9  N   UNL     1      -0.143  15.681  21.908  0.00  0.00    +0.000 NA
ATOM     10  C   UNL     1       0.759  16.102  20.999  0.00  0.00    +0.000 A 
ATOM     11  C   UNL     1       1.570  15.260  20.238  0.00  0.00    +0.000 A 
ATOM     12  N   UNL     1       2.512  15.785  19.376  0.00  0.00    +0.000 N 
ATOM     13  C   UNL     1       2.941  15.077  18.168  0.00  0.00    +0.000 C 
ATOM     14  C   UNL     1       4.468  14.895  18.154  0.00  0.00    +0.000 C 
ATOM     15  O   UNL     1       5.160  16.135  18.390  0.00  0.00    +0.000 OA
ATOM     16  C   UNL     1       4.787  16.673  19.667  0.00  0.00    +0.000 C 
ATOM     17  C   UNL     1       3.283  16.982  19.722  0.00  0.00    +0.000 C 
ATOM     18  N   UNL     1       1.425  13.921  20.365  0.00  0.00    +0.000 NA
ATOM     19  C   UNL     1       0.535  13.447  21.258  0.00  0.00    +0.000 A 
ATOM     20  N   UNL     1       0.394  12.122  21.405  0.00  0.00    +0.000 NA
ATOM     21  H   UNL     1       1.195  10.527  20.901  0.00  0.00    +0.000 HD
ATOM     22  H   UNL     1      -1.435   9.926  23.030  0.00  0.00    +0.000 HD
ENDROOT
BRANCH   3  23
ATOM     23  C   UNL     1       1.541   8.629  19.988  0.00  0.00    +0.000 C 
BRANCH  23  24
ATOM     24  C   UNL     1       1.449   8.982  18.504  0.00  0.00    +0.000 C 
BRANCH  24  25
ATOM     25  C   UNL     1       2.474   8.229  17.648  0.00  0.00    +0.000 C 
BRANCH  25  26
ATOM     26  C   UNL     1       3.262   7.217  18.487  0.00  0.00    +0.000 C 
BRANCH  26  27
ATOM     27  C   UNL     1       3.064   5.807  17.987  0.00  0.00    +0.000 A 
ATOM     28  C   UNL     1       1.840   5.150  18.170  0.00  0.00    +0.000 A 
ATOM     29  C   UNL     1       1.682   3.823  17.766  0.00  0.00    +0.000 A 
ATOM     30  C   UNL     1       2.742   3.145  17.167  0.00  0.00    +0.000 A 
ATOM     31  C   UNL     1       3.957   3.796  16.961  0.00  0.00    +0.000 A 
ATOM     32  C   UNL     1       4.119   5.120  17.372  0.00  0.00    +0.000 A 
ENDBRANCH  26  27
ENDBRANCH  25  26
ENDBRANCH  24  25
ENDBRANCH  23  24
ENDBRANCH   3  23
TORSDOF 5
ENDMDL
MODEL 9
REMARK VINA RESULT:      -7.6      4.957      9.195
REMARK  Name = 
REMARK  5 active torsions:
REMARK  status: ('A' for Active; 'I' for Inactive)
REMARK    1  A    between atoms: N_3  and  C_4
REMARK    2  A    between atoms: C_4  and  C_5
REMARK    3  A    between atoms: C_5  and  C_6
REMARK    4  A    between atoms: C_6  and  C_7
REMARK    5  A    between atoms: C_7  and  C_8
REMARK                            x       y       z     vdW  Elec       q    Type
REMARK                         _______ _______ _______ _____ _____    ______ ____
ROOT
ATOM      1  O   UNL     1      -0.708   8.216  21.888  0.00  0.00    +0.000 OA
ATOM      2  C   UNL     1      -0.269   9.358  21.753  0.00  0.00    +0.000 C 
ATOM      3  N   UNL     1       0.741   9.678  20.910  0.00  0.00    +0.000 N 
ATOM      4  N   UNL     1      -0.802  10.370  22.494  0.00  0.00    +0.000 N 
ATOM      5  C   UNL     1      -0.579  11.748  22.393  0.00  0.00    +0.000 A 
ATOM      6  C   UNL     1      -1.315  12.571  23.219  0.00  0.00    +0.000 A 
ATOM      7  C   UNL     1      -1.171  13.945  23.074  0.00  0.00    +0.000 A 
ATOM      8  C   UNL     1      -0.301  14.462  22.131  0.00  0.00    +0.000 A 
ATOM      9  N   UNL     1      -0.205  15.794  22.012  0.00  0.00    +0.000 NA
ATOM     10  C   UNL     1       0.682  16.213  21.087  0.00  0.00    +0.000 A 
ATOM     11  C   UNL     1       1.475  15.369  20.309  0.00  0.00    +0.000 A 
ATOM     12  N   UNL     1       2.403  15.892  19.432  0.00  0.00    +0.000 N 
ATOM     13  C   UNL     1       2.806  15.186  18.214  0.00  0.00    +0.000 C 
ATOM     14  C   UNL     1       4.332  14.995  18.171  0.00  0.00    +0.000 C 
ATOM     15  O   UNL     1       5.034  16.231  18.397  0.00  0.00    +0.000 OA
ATOM     16  C   UNL     1       4.688  16.767  19.683  0.00  0.00    +0.000 C 
ATOM     17  C   UNL     1       3.187  17.084  19.767  0.00  0.00    +0.000 C 
ATOM     18  N   UNL     1       1.325  14.030  20.434  0.00  0.00    +0.000 NA
ATOM     19  C   UNL     1       0.448  13.558  21.342  0.00  0.00    +0.000 A 
ATOM     20  N   UNL     1       0.304  12.234  21.487  0.00  0.00    +0.000 NA
ATOM     21  H   UNL     1       1.086  10.636  20.963  0.00  0.00    +0.000 HD
ATOM     22  H   UNL     1      -1.507  10.042  23.139  0.00  0.00    +0.000 HD
ENDROOT
BRANCH   3  23
ATOM     23  C   UNL     1       1.405   8.739  20.039  0.00  0.00    +0.000 C 
BRANCH  23  24
ATOM     24  C   UNL     1       1.514   9.224  18.593  0.00  0.00    +0.000 C 
BRANCH  24  25
ATOM     25  C   UNL     1       2.454   8.362  17.744  0.00  0.00    +0.000 C 
BRANCH  25  26
ATOM     26  C   UNL     1       2.846   7.076  18.483  0.00  0.00    +0.000 C 
BRANCH  26  27
ATOM     27  C   UNL     1       3.634   6.144  17.596  0.00  0.00    +0.000 A 
ATOM     28  C   UNL     1       3.399   4.763  17.625  0.00  0.00    +0.000 A 
ATOM     29  C   UNL     1       4.175   3.897  16.852  0.00  0.00    +0.000 A 
ATOM     30  C   UNL     1       5.186   4.404  16.037  0.00  0.00    +0.000 A 
ATOM     31  C   UNL     1       5.414   5.778  15.985  0.00  0.00    +0.000 A 
ATOM     32  C   UNL     1       4.644   6.644  16.763  0.00  0.00    +0.000 A 
ENDBRANCH  26  27
ENDBRANCH  25  26
ENDBRANCH  24  25
ENDBRANCH  23  24
ENDBRANCH   3  23
TORSDOF 5
ENDMDL
