MODEL 1
REMARK VINA RESULT:      -9.2      0.000      0.000
REMARK  Name = 
REMARK  5 active torsions:
REMARK  status: ('A' for Active; 'I' for Inactive)
REMARK    1  A    between atoms: C_1  and  O_2
REMARK    2  A    between atoms: O_2  and  C_3
REMARK    3  A    between atoms: C_12  and  C_13
REMARK    4  A    between atoms: C_22  and  C_23
REMARK    5  A    between atoms: C_25  and  C_26
REMARK                            x       y       z     vdW  Elec       q    Type
REMARK                         _______ _______ _______ _____ _____    ______ ____
ROOT
ATOM      1  C   UNL     1       4.659   4.456  18.201  0.00  0.00    +0.000 C 
ATOM      2  O   UNL     1       5.096   3.562  18.933  0.00  0.00    +0.000 OA
ATOM      3  N   UNL     1       3.497   5.142  18.538  0.00  0.00    +0.000 N 
ATOM      4  C   UNL     1       2.909   4.940  19.865  0.00  0.00    +0.000 C 
ATOM      5  C   UNL     1       2.734   6.281  20.603  0.00  0.00    +0.000 C 
ATOM      6  N   UNL     1       1.972   7.233  19.778  0.00  0.00    +0.000 N 
ATOM      7  C   UNL     1       1.357   8.323  20.330  0.00  0.00    +0.000 A 
ATOM      8  N   UNL     1       0.853   9.287  19.593  0.00  0.00    +0.000 NA
ATOM      9  C   UNL     1       0.158  10.209  20.353  0.00  0.00    +0.000 A 
ATOM     10  C   UNL     1      -0.565  11.313  19.847  0.00  0.00    +0.000 A 
ATOM     11  C   UNL     1      -0.662  11.605  18.376  0.00  0.00    +0.000 C 
ATOM     12  C   UNL     1      -1.236  12.147  20.764  0.00  0.00    +0.000 A 
ATOM     13  C   UNL     1      -1.194  11.906  22.141  0.00  0.00    +0.000 A 
ATOM     14  C   UNL     1      -1.920  12.805  23.100  0.00  0.00    +0.000 C 
ATOM     15  C   UNL     1      -0.472  10.813  22.638  0.00  0.00    +0.000 A 
ATOM     16  C   UNL     1       0.189   9.976  21.725  0.00  0.00    +0.000 A 
ATOM     17  S   UNL     1       1.113   8.561  22.027  0.00  0.00    +0.000 S 
ATOM     18  C   UNL     1       2.461   7.398  18.388  0.00  0.00    +0.000 C 
ATOM     19  C   UNL     1       2.692   6.036  17.699  0.00  0.00    +0.000 C 
ENDROOT
BRANCH   1  29
ATOM     20  C   UNL     1       6.698   5.374  16.931  0.00  0.00    +0.000 A 
ATOM     21  C   UNL     1       7.360   5.535  15.704  0.00  0.00    +0.000 A 
ATOM     22  C   UNL     1       6.906   4.912  14.540  0.00  0.00    +0.000 A 
ATOM     23  C   UNL     1       7.674   4.972  13.370  0.00  0.00    +0.000 A 
ATOM     24  C   UNL     1       7.277   4.276  12.231  0.00  0.00    +0.000 A 
ATOM     25  C   UNL     1       6.099   3.544  12.245  0.00  0.00    +0.000 A 
ATOM     26  C   UNL     1       5.307   3.503  13.400  0.00  0.00    +0.000 A 
ATOM     27  C   UNL     1       5.704   4.180  14.568  0.00  0.00    +0.000 A 
ATOM     28  C   UNL     1       4.971   4.133  15.773  0.00  0.00    +0.000 A 
ATOM     29  C   UNL     1       5.449   4.733  16.959  0.00  0.00    +0.000 A 
BRANCH  20  31
ATOM     30  C   UNL     1       7.728   7.169  18.082  0.00  0.00    +0.000 C 
ATOM     31  O   UNL     1       7.256   5.820  18.094  0.00  0.00    +0.000 OA
ENDBRANCH  20  31
ENDBRANCH   1  29
TORSDOF 2
ENDMDL
MODEL 2
REMARK VINA RESULT:      -8.8      1.003      1.113
REMARK  Name = 
REMARK  5 active torsions:
REMARK  status: ('A' for Active; 'I' for Inactive)
REMARK    1  A    between atoms: C_1  and  O_2
REMARK    2  A    between atoms: O_2  and  C_3
REMARK    3  A    between atoms: C_12  and  C_13
REMARK    4  A    between atoms: C_22  and  C_23
REMARK    5  A    between atoms: C_25  and  C_26
REMARK                            x       y       z     vdW  Elec       q    Type
REMARK                         _______ _______ _______ _____ _____    ______ ____
ROOT
ATOM      1  C   UNL     1       3.851   4.803  18.911  0.00  0.00    +0.000 C 
ATOM      2  O   UNL     1       4.052   3.840  19.659  0.00  0.00    +0.000 OA
ATOM      3  N   UNL     1       2.756   5.637  19.108  0.00  0.00    +0.000 N 
ATOM      4  C   UNL     1       1.958   5.490  20.328  0.00  0.00    +0.000 C 
ATOM      5  C   UNL     1       1.860   6.825  21.090  0.00  0.00    +0.000 C 
ATOM      6  N   UNL     1       1.363   7.893  20.206  0.00  0.00    +0.000 N 
ATOM      7  C   UNL     1       0.827   9.046  20.711  0.00  0.00    +0.000 A 
ATOM      8  N   UNL     1       0.572  10.087  19.952  0.00  0.00    +0.000 NA
ATOM      9  C   UNL     1      -0.096  11.080  20.644  0.00  0.00    +0.000 A 
ATOM     10  C   UNL     1      -0.580  12.285  20.088  0.00  0.00    +0.000 A 
ATOM     11  C   UNL     1      -0.420  12.622  18.632  0.00  0.00    +0.000 C 
ATOM     12  C   UNL     1      -1.259  13.185  20.935  0.00  0.00    +0.000 A 
ATOM     13  C   UNL     1      -1.453  12.909  22.292  0.00  0.00    +0.000 A 
ATOM     14  C   UNL     1      -2.183  13.880  23.175  0.00  0.00    +0.000 C 
ATOM     15  C   UNL     1      -0.966  11.715  22.840  0.00  0.00    +0.000 A 
ATOM     16  C   UNL     1      -0.298  10.814  21.995  0.00  0.00    +0.000 A 
ATOM     17  S   UNL     1       0.371   9.277  22.365  0.00  0.00    +0.000 S 
ATOM     18  C   UNL     1       2.068   8.019  18.908  0.00  0.00    +0.000 C 
ATOM     19  C   UNL     1       2.211   6.654  18.202  0.00  0.00    +0.000 C 
ENDROOT
BRANCH   1  29
ATOM     20  C   UNL     1       6.166   5.434  17.986  0.00  0.00    +0.000 A 
ATOM     21  C   UNL     1       7.016   5.530  16.873  0.00  0.00    +0.000 A 
ATOM     22  C   UNL     1       6.648   5.024  15.626  0.00  0.00    +0.000 A 
ATOM     23  C   UNL     1       7.577   5.001  14.578  0.00  0.00    +0.000 A 
ATOM     24  C   UNL     1       7.250   4.413  13.359  0.00  0.00    +0.000 A 
ATOM     25  C   UNL     1       5.987   3.872  13.170  0.00  0.00    +0.000 A 
ATOM     26  C   UNL     1       5.039   3.917  14.201  0.00  0.00    +0.000 A 
ATOM     27  C   UNL     1       5.359   4.486  15.447  0.00  0.00    +0.000 A 
ATOM     28  C   UNL     1       4.460   4.514  16.535  0.00  0.00    +0.000 A 
ATOM     29  C   UNL     1       4.845   4.994  17.807  0.00  0.00    +0.000 A 
BRANCH  20  31
ATOM     30  C   UNL     1       8.028   5.797  19.403  0.00  0.00    +0.000 C 
ATOM     31  O   UNL     1       6.610   5.751  19.237  0.00  0.00    +0.000 OA
ENDBRANCH  20  31
ENDBRANCH   1  29
TORSDOF 2
ENDMDL
MODEL 3
REMARK VINA RESULT:      -7.3      3.354     11.045
REMARK  Name = 
REMARK  5 active torsions:
REMARK  status: ('A' for Active; 'I' for Inactive)
REMARK    1  A    between atoms: C_1  and  O_2
REMARK    2  A    between atoms: O_2  and  C_3
REMARK    3  A    between atoms: C_12  and  C_13
REMARK    4  A    between atoms: C_22  and  C_23
REMARK    5  A    between atoms: C_25  and  C_26
REMARK                            x       y       z     vdW  Elec       q    Type
REMARK                         _______ _______ _______ _____ _____    ______ ____
ROOT
ATOM      1  C   UNL     1      -0.615  12.510  20.076  0.00  0.00    +0.000 C 
ATOM      2  O   UNL     1      -0.200  13.661  19.905  0.00  0.00    +0.000 OA
ATOM      3  N   UNL     1      -0.215  11.480  19.230  0.00  0.00    +0.000 N 
ATOM      4  C   UNL     1       0.859  11.727  18.265  0.00  0.00    +0.000 C 
ATOM      5  C   UNL     1       1.998  10.702  18.429  0.00  0.00    +0.000 C 
ATOM      6  N   UNL     1       1.474   9.328  18.363  0.00  0.00    +0.000 N 
ATOM      7  C   UNL     1       2.291   8.264  18.095  0.00  0.00    +0.000 A 
ATOM      8  N   UNL     1       1.887   7.022  18.236  0.00  0.00    +0.000 NA
ATOM      9  C   UNL     1       2.826   6.119  17.774  0.00  0.00    +0.000 A 
ATOM     10  C   UNL     1       2.656   4.717  17.712  0.00  0.00    +0.000 A 
ATOM     11  C   UNL     1       1.389   4.039  18.153  0.00  0.00    +0.000 C 
ATOM     12  C   UNL     1       3.712   3.940  17.193  0.00  0.00    +0.000 A 
ATOM     13  C   UNL     1       4.903   4.523  16.751  0.00  0.00    +0.000 A 
ATOM     14  C   UNL     1       6.013   3.677  16.197  0.00  0.00    +0.000 C 
ATOM     15  C   UNL     1       5.068   5.913  16.818  0.00  0.00    +0.000 A 
ATOM     16  C   UNL     1       4.014   6.689  17.326  0.00  0.00    +0.000 A 
ATOM     17  S   UNL     1       3.911   8.394  17.499  0.00  0.00    +0.000 S 
ATOM     18  C   UNL     1       0.314   9.050  19.245  0.00  0.00    +0.000 C 
ATOM     19  C   UNL     1      -0.778  10.132  19.108  0.00  0.00    +0.000 C 
ENDROOT
BRANCH   1  29
ATOM     20  C   UNL     1      -1.232  11.662  22.424  0.00  0.00    +0.000 A 
ATOM     21  C   UNL     1      -2.192  11.583  23.445  0.00  0.00    +0.000 A 
ATOM     22  C   UNL     1      -3.391  12.294  23.379  0.00  0.00    +0.000 A 
ATOM     23  C   UNL     1      -4.256  12.310  24.481  0.00  0.00    +0.000 A 
ATOM     24  C   UNL     1      -5.408  13.092  24.459  0.00  0.00    +0.000 A 
ATOM     25  C   UNL     1      -5.718  13.835  23.330  0.00  0.00    +0.000 A 
ATOM     26  C   UNL     1      -4.876  13.801  22.211  0.00  0.00    +0.000 A 
ATOM     27  C   UNL     1      -3.695  13.036  22.222  0.00  0.00    +0.000 A 
ATOM     28  C   UNL     1      -2.786  13.005  21.142  0.00  0.00    +0.000 A 
ATOM     29  C   UNL     1      -1.556  12.315  21.224  0.00  0.00    +0.000 A 
BRANCH  20  31
ATOM     30  C   UNL     1       0.054   9.780  23.063  0.00  0.00    +0.000 C 
ATOM     31  O   UNL     1       0.013  11.126  22.587  0.00  0.00    +0.000 OA
ENDBRANCH  20  31
ENDBRANCH   1  29
TORSDOF 2
ENDMDL
MODEL 4
REMARK VINA RESULT:      -7.2      7.481      8.957
REMARK  Name = 
REMARK  5 active torsions:
REMARK  status: ('A' for Active; 'I' for Inactive)
REMARK    1  A    between atoms: C_1  and  O_2
REMARK    2  A    between atoms: O_2  and  C_3
REMARK    3  A    between atoms: C_12  and  C_13
REMARK    4  A    between atoms: C_22  and  C_23
REMARK    5  A    between atoms: C_25  and  C_26
REMARK                            x       y       z     vdW  Elec       q    Type
REMARK                         _______ _______ _______ _____ _____    ______ ____
ROOT
ATOM      1  C   UNL     1       7.053  15.802  20.788  0.00  0.00    +0.000 C 
ATOM      2  O   UNL     1       7.557  16.930  20.777  0.00  0.00    +0.000 OA
ATOM      3  N   UNL     1       5.904  15.547  21.529  0.00  0.00    +0.000 N 
ATOM      4  C   UNL     1       5.178  16.670  22.129  0.00  0.00    +0.000 C 
ATOM      5  C   UNL     1       3.702  16.672  21.690  0.00  0.00    +0.000 C 
ATOM      6  N   UNL     1       3.074  15.370  21.969  0.00  0.00    +0.000 N 
ATOM      7  C   UNL     1       1.714  15.233  22.038  0.00  0.00    +0.000 A 
ATOM      8  N   UNL     1       1.133  14.055  22.079  0.00  0.00    +0.000 NA
ATOM      9  C   UNL     1      -0.229  14.159  22.291  0.00  0.00    +0.000 A 
ATOM     10  C   UNL     1      -1.117  13.074  22.464  0.00  0.00    +0.000 A 
ATOM     11  C   UNL     1      -0.655  11.643  22.442  0.00  0.00    +0.000 C 
ATOM     12  C   UNL     1      -2.479  13.357  22.690  0.00  0.00    +0.000 A 
ATOM     13  C   UNL     1      -2.957  14.671  22.741  0.00  0.00    +0.000 A 
ATOM     14  C   UNL     1      -4.411  14.950  22.988  0.00  0.00    +0.000 C 
ATOM     15  C   UNL     1      -2.072  15.743  22.563  0.00  0.00    +0.000 A 
ATOM     16  C   UNL     1      -0.713  15.462  22.347  0.00  0.00    +0.000 A 
ATOM     17  S   UNL     1       0.596  16.551  22.132  0.00  0.00    +0.000 S 
ATOM     18  C   UNL     1       3.821  14.188  21.475  0.00  0.00    +0.000 C 
ATOM     19  C   UNL     1       5.311  14.250  21.872  0.00  0.00    +0.000 C 
ENDROOT
BRANCH   1  29
ATOM     20  C   UNL     1       7.524  14.520  18.609  0.00  0.00    +0.000 A 
ATOM     21  C   UNL     1       8.283  13.544  17.945  0.00  0.00    +0.000 A 
ATOM     22  C   UNL     1       9.386  12.938  18.548  0.00  0.00    +0.000 A 
ATOM     23  C   UNL     1      10.208  12.082  17.804  0.00  0.00    +0.000 A 
ATOM     24  C   UNL     1      11.363  11.547  18.368  0.00  0.00    +0.000 A 
ATOM     25  C   UNL     1      11.687  11.840  19.685  0.00  0.00    +0.000 A 
ATOM     26  C   UNL     1      10.856  12.671  20.448  0.00  0.00    +0.000 A 
ATOM     27  C   UNL     1       9.698  13.239  19.887  0.00  0.00    +0.000 A 
ATOM     28  C   UNL     1       8.852  14.121  20.595  0.00  0.00    +0.000 A 
ATOM     29  C   UNL     1       7.757  14.761  19.973  0.00  0.00    +0.000 A 
BRANCH  20  31
ATOM     30  C   UNL     1       5.281  14.649  17.864  0.00  0.00    +0.000 C 
ATOM     31  O   UNL     1       6.577  15.245  17.946  0.00  0.00    +0.000 OA
ENDBRANCH  20  31
ENDBRANCH   1  29
TORSDOF 2
ENDMDL
MODEL 5
REMARK VINA RESULT:      -7.1      4.240      7.466
REMARK  Name = 
REMARK  5 active torsions:
REMARK  status: ('A' for Active; 'I' for Inactive)
REMARK    1  A    between atoms: C_1  and  O_2
REMARK    2  A    between atoms: O_2  and  C_3
REMARK    3  A    between atoms: C_12  and  C_13
REMARK    4  A    between atoms: C_22  and  C_23
REMARK    5  A    between atoms: C_25  and  C_26
REMARK                            x       y       z     vdW  Elec       q    Type
REMARK                         _______ _______ _______ _____ _____    ______ ____
ROOT
ATOM      1  C   UNL     1      -0.255  10.362  18.481  0.00  0.00    +0.000 C 
ATOM      2  O   UNL     1      -0.865  10.059  17.450  0.00  0.00    +0.000 OA
ATOM      3  N   UNL     1      -0.454  11.599  19.085  0.00  0.00    +0.000 N 
ATOM      4  C   UNL     1      -1.542  12.458  18.609  0.00  0.00    +0.000 C 
ATOM      5  C   UNL     1      -2.482  12.852  19.763  0.00  0.00    +0.000 C 
ATOM      6  N   UNL     1      -1.722  13.452  20.872  0.00  0.00    +0.000 N 
ATOM      7  C   UNL     1      -2.334  14.222  21.823  0.00  0.00    +0.000 A 
ATOM      8  N   UNL     1      -1.718  14.591  22.923  0.00  0.00    +0.000 NA
ATOM      9  C   UNL     1      -2.475  15.478  23.666  0.00  0.00    +0.000 A 
ATOM     10  C   UNL     1      -2.059  16.118  24.855  0.00  0.00    +0.000 A 
ATOM     11  C   UNL     1      -0.697  15.898  25.453  0.00  0.00    +0.000 C 
ATOM     12  C   UNL     1      -2.952  17.012  25.479  0.00  0.00    +0.000 A 
ATOM     13  C   UNL     1      -4.221  17.268  24.951  0.00  0.00    +0.000 A 
ATOM     14  C   UNL     1      -5.155  18.228  25.630  0.00  0.00    +0.000 C 
ATOM     15  C   UNL     1      -4.631  16.627  23.774  0.00  0.00    +0.000 A 
ATOM     16  C   UNL     1      -3.738  15.743  23.147  0.00  0.00    +0.000 A 
ATOM     17  S   UNL     1      -3.942  14.849  21.696  0.00  0.00    +0.000 S 
ATOM     18  C   UNL     1      -0.544  12.674  21.326  0.00  0.00    +0.000 C 
ATOM     19  C   UNL     1       0.341  12.235  20.140  0.00  0.00    +0.000 C 
ENDROOT
BRANCH   1  29
ATOM     20  C   UNL     1       0.587   8.721  20.273  0.00  0.00    +0.000 A 
ATOM     21  C   UNL     1       1.512   7.730  20.637  0.00  0.00    +0.000 A 
ATOM     22  C   UNL     1       2.414   7.197  19.715  0.00  0.00    +0.000 A 
ATOM     23  C   UNL     1       3.218   6.107  20.073  0.00  0.00    +0.000 A 
ATOM     24  C   UNL     1       4.052   5.509  19.133  0.00  0.00    +0.000 A 
ATOM     25  C   UNL     1       4.111   6.013  17.841  0.00  0.00    +0.000 A 
ATOM     26  C   UNL     1       3.335   7.122  17.482  0.00  0.00    +0.000 A 
ATOM     27  C   UNL     1       2.468   7.725  18.411  0.00  0.00    +0.000 A 
ATOM     28  C   UNL     1       1.628   8.813  18.089  0.00  0.00    +0.000 A 
ATOM     29  C   UNL     1       0.690   9.328  19.011  0.00  0.00    +0.000 A 
BRANCH  20  31
ATOM     30  C   UNL     1      -0.063   9.178  22.503  0.00  0.00    +0.000 C 
ATOM     31  O   UNL     1      -0.416   9.091  21.122  0.00  0.00    +0.000 OA
ENDBRANCH  20  31
ENDBRANCH   1  29
TORSDOF 2
ENDMDL
MODEL 6
REMARK VINA RESULT:      -7.1      7.597      9.059
REMARK  Name = 
REMARK  5 active torsions:
REMARK  status: ('A' for Active; 'I' for Inactive)
REMARK    1  A    between atoms: C_1  and  O_2
REMARK    2  A    between atoms: O_2  and  C_3
REMARK    3  A    between atoms: C_12  and  C_13
REMARK    4  A    between atoms: C_22  and  C_23
REMARK    5  A    between atoms: C_25  and  C_26
REMARK                            x       y       z     vdW  Elec       q    Type
REMARK                         _______ _______ _______ _____ _____    ______ ____
ROOT
ATOM      1  C   UNL     1       5.687  16.246  20.371  0.00  0.00    +0.000 C 
ATOM      2  O   UNL     1       5.938  17.444  20.204  0.00  0.00    +0.000 OA
ATOM      3  N   UNL     1       4.661  15.849  21.222  0.00  0.00    +0.000 N 
ATOM      4  C   UNL     1       3.747  16.862  21.758  0.00  0.00    +0.000 C 
ATOM      5  C   UNL     1       2.282  16.511  21.438  0.00  0.00    +0.000 C 
ATOM      6  N   UNL     1       1.961  15.149  21.899  0.00  0.00    +0.000 N 
ATOM      7  C   UNL     1       0.668  14.746  22.089  0.00  0.00    +0.000 A 
ATOM      8  N   UNL     1       0.354  13.487  22.296  0.00  0.00    +0.000 NA
ATOM      9  C   UNL     1      -0.985  13.333  22.602  0.00  0.00    +0.000 A 
ATOM     10  C   UNL     1      -1.612  12.117  22.956  0.00  0.00    +0.000 A 
ATOM     11  C   UNL     1      -0.859  10.819  23.046  0.00  0.00    +0.000 C 
ATOM     12  C   UNL     1      -2.989  12.140  23.258  0.00  0.00    +0.000 A 
ATOM     13  C   UNL     1      -3.731  13.325  23.210  0.00  0.00    +0.000 A 
ATOM     14  C   UNL     1      -5.195  13.327  23.540  0.00  0.00    +0.000 C 
ATOM     15  C   UNL     1      -3.105  14.527  22.854  0.00  0.00    +0.000 A 
ATOM     16  C   UNL     1      -1.732  14.507  22.562  0.00  0.00    +0.000 A 
ATOM     17  S   UNL     1      -0.697  15.808  22.133  0.00  0.00    +0.000 S 
ATOM     18  C   UNL     1       2.914  14.096  21.473  0.00  0.00    +0.000 C 
ATOM     19  C   UNL     1       4.377  14.508  21.743  0.00  0.00    +0.000 C 
ENDROOT
BRANCH   1  29
ATOM     20  C   UNL     1       6.284  14.821  18.316  0.00  0.00    +0.000 A 
ATOM     21  C   UNL     1       7.196  13.951  17.696  0.00  0.00    +0.000 A 
ATOM     22  C   UNL     1       8.446  13.683  18.255  0.00  0.00    +0.000 A 
ATOM     23  C   UNL     1       9.387  12.932  17.537  0.00  0.00    +0.000 A 
ATOM     24  C   UNL     1      10.669  12.738  18.045  0.00  0.00    +0.000 A 
ATOM     25  C   UNL     1      11.008  13.265  19.283  0.00  0.00    +0.000 A 
ATOM     26  C   UNL     1      10.065  13.990  20.023  0.00  0.00    +0.000 A 
ATOM     27  C   UNL     1       8.773  14.217  19.516  0.00  0.00    +0.000 A 
ATOM     28  C   UNL     1       7.801  14.981  20.197  0.00  0.00    +0.000 A 
ATOM     29  C   UNL     1       6.549  15.283  19.615  0.00  0.00    +0.000 A 
BRANCH  20  31
ATOM     30  C   UNL     1       3.975  14.467  17.931  0.00  0.00    +0.000 C 
ATOM     31  O   UNL     1       5.155  15.230  17.670  0.00  0.00    +0.000 OA
ENDBRANCH  20  31
ENDBRANCH   1  29
TORSDOF 2
ENDMDL
MODEL 7
REMARK VINA RESULT:      -6.8      5.697     12.220
REMARK  Name = 
REMARK  5 active torsions:
REMARK  status: ('A' for Active; 'I' for Inactive)
REMARK    1  A    between atoms: C_1  and  O_2
REMARK    2  A    between atoms: O_2  and  C_3
REMARK    3  A    between atoms: C_12  and  C_13
REMARK    4  A    between atoms: C_22  and  C_23
REMARK    5  A    between atoms: C_25  and  C_26
REMARK                            x       y       z     vdW  Elec       q    Type
REMARK                         _______ _______ _______ _____ _____    ______ ____
ROOT
ATOM      1  C   UNL     1      -3.687  14.474  22.731  0.00  0.00    +0.000 C 
ATOM      2  O   UNL     1      -4.174  14.490  23.866  0.00  0.00    +0.000 OA
ATOM      3  N   UNL     1      -2.507  13.783  22.476  0.00  0.00    +0.000 N 
ATOM      4  C   UNL     1      -1.956  12.905  23.512  0.00  0.00    +0.000 C 
ATOM      5  C   UNL     1      -1.747  11.477  22.973  0.00  0.00    +0.000 C 
ATOM      6  N   UNL     1      -0.931  11.498  21.748  0.00  0.00    +0.000 N 
ATOM      7  C   UNL     1      -0.286  10.378  21.300  0.00  0.00    +0.000 A 
ATOM      8  N   UNL     1       0.270  10.322  20.111  0.00  0.00    +0.000 NA
ATOM      9  C   UNL     1       0.983   9.152  19.929  0.00  0.00    +0.000 A 
ATOM     10  C   UNL     1       1.759   8.831  18.792  0.00  0.00    +0.000 A 
ATOM     11  C   UNL     1       1.899   9.766  17.624  0.00  0.00    +0.000 C 
ATOM     12  C   UNL     1       2.441   7.597  18.777  0.00  0.00    +0.000 A 
ATOM     13  C   UNL     1       2.360   6.701  19.848  0.00  0.00    +0.000 A 
ATOM     14  C   UNL     1       3.098   5.394  19.812  0.00  0.00    +0.000 C 
ATOM     15  C   UNL     1       1.585   7.022  20.971  0.00  0.00    +0.000 A 
ATOM     16  C   UNL     1       0.913   8.255  20.991  0.00  0.00    +0.000 A 
ATOM     17  S   UNL     1      -0.071   8.931  22.225  0.00  0.00    +0.000 S 
ATOM     18  C   UNL     1      -1.382  12.449  20.703  0.00  0.00    +0.000 C 
ATOM     19  C   UNL     1      -1.650  13.852  21.288  0.00  0.00    +0.000 C 
ENDROOT
BRANCH   1  29
ATOM     20  C   UNL     1      -4.246  16.597  21.393  0.00  0.00    +0.000 A 
ATOM     21  C   UNL     1      -4.983  17.188  20.354  0.00  0.00    +0.000 A 
ATOM     22  C   UNL     1      -5.760  16.425  19.482  0.00  0.00    +0.000 A 
ATOM     23  C   UNL     1      -6.360  17.029  18.369  0.00  0.00    +0.000 A 
ATOM     24  C   UNL     1      -7.059  16.260  17.442  0.00  0.00    +0.000 A 
ATOM     25  C   UNL     1      -7.188  14.892  17.636  0.00  0.00    +0.000 A 
ATOM     26  C   UNL     1      -6.618  14.283  18.763  0.00  0.00    +0.000 A 
ATOM     27  C   UNL     1      -5.889  15.040  19.698  0.00  0.00    +0.000 A 
ATOM     28  C   UNL     1      -5.254  14.471  20.823  0.00  0.00    +0.000 A 
ATOM     29  C   UNL     1      -4.438  15.237  21.684  0.00  0.00    +0.000 A 
BRANCH  20  31
ATOM     30  C   UNL     1      -3.052  18.630  21.613  0.00  0.00    +0.000 C 
ATOM     31  O   UNL     1      -3.340  17.322  22.111  0.00  0.00    +0.000 OA
ENDBRANCH  20  31
ENDBRANCH   1  29
TORSDOF 2
ENDMDL
MODEL 8
REMARK VINA RESULT:      -6.6      2.615      5.312
REMARK  Name = 
REMARK  5 active torsions:
REMARK  status: ('A' for Active; 'I' for Inactive)
REMARK    1  A    between atoms: C_1  and  O_2
REMARK    2  A    between atoms: O_2  and  C_3
REMARK    3  A    between atoms: C_12  and  C_13
REMARK    4  A    between atoms: C_22  and  C_23
REMARK    5  A    between atoms: C_25  and  C_26
REMARK                            x       y       z     vdW  Elec       q    Type
REMARK                         _______ _______ _______ _____ _____    ______ ____
ROOT
ATOM      1  C   UNL     1       2.915   7.617  17.808  0.00  0.00    +0.000 C 
ATOM      2  O   UNL     1       3.271   7.703  16.628  0.00  0.00    +0.000 OA
ATOM      3  N   UNL     1       2.371   8.715  18.466  0.00  0.00    +0.000 N 
ATOM      4  C   UNL     1       2.032   9.913  17.693  0.00  0.00    +0.000 C 
ATOM      5  C   UNL     1       0.557  10.306  17.900  0.00  0.00    +0.000 C 
ATOM      6  N   UNL     1       0.252  10.445  19.334  0.00  0.00    +0.000 N 
ATOM      7  C   UNL     1      -0.840  11.145  19.768  0.00  0.00    +0.000 A 
ATOM      8  N   UNL     1      -1.242  11.106  21.018  0.00  0.00    +0.000 NA
ATOM      9  C   UNL     1      -2.272  11.997  21.257  0.00  0.00    +0.000 A 
ATOM     10  C   UNL     1      -2.864  12.249  22.515  0.00  0.00    +0.000 A 
ATOM     11  C   UNL     1      -2.414  11.555  23.770  0.00  0.00    +0.000 C 
ATOM     12  C   UNL     1      -3.895  13.208  22.587  0.00  0.00    +0.000 A 
ATOM     13  C   UNL     1      -4.335  13.897  21.452  0.00  0.00    +0.000 A 
ATOM     14  C   UNL     1      -5.432  14.917  21.552  0.00  0.00    +0.000 C 
ATOM     15  C   UNL     1      -3.748  13.639  20.206  0.00  0.00    +0.000 A 
ATOM     16  C   UNL     1      -2.715  12.691  20.135  0.00  0.00    +0.000 A 
ATOM     17  S   UNL     1      -1.794  12.194  18.775  0.00  0.00    +0.000 S 
ATOM     18  C   UNL     1       0.670   9.303  20.183  0.00  0.00    +0.000 C 
ATOM     19  C   UNL     1       2.130   8.889  19.902  0.00  0.00    +0.000 C 
ENDROOT
BRANCH   1  29
ATOM     20  C   UNL     1       4.358   5.657  18.640  0.00  0.00    +0.000 A 
ATOM     21  C   UNL     1       4.417   4.423  19.305  0.00  0.00    +0.000 A 
ATOM     22  C   UNL     1       3.304   3.888  19.955  0.00  0.00    +0.000 A 
ATOM     23  C   UNL     1       3.437   2.732  20.734  0.00  0.00    +0.000 A 
ATOM     24  C   UNL     1       2.355   2.244  21.462  0.00  0.00    +0.000 A 
ATOM     25  C   UNL     1       1.129   2.889  21.392  0.00  0.00    +0.000 A 
ATOM     26  C   UNL     1       0.976   4.029  20.591  0.00  0.00    +0.000 A 
ATOM     27  C   UNL     1       2.064   4.550  19.868  0.00  0.00    +0.000 A 
ATOM     28  C   UNL     1       1.979   5.722  19.085  0.00  0.00    +0.000 A 
ATOM     29  C   UNL     1       3.114   6.282  18.458  0.00  0.00    +0.000 A 
BRANCH  20  31
ATOM     30  C   UNL     1       6.190   5.573  17.142  0.00  0.00    +0.000 C 
ATOM     31  O   UNL     1       5.492   6.262  18.181  0.00  0.00    +0.000 OA
ENDBRANCH  20  31
ENDBRANCH   1  29
TORSDOF 2
ENDMDL
MODEL 9
REMARK VINA RESULT:      -6.6      3.894     10.710
REMARK  Name = 
REMARK  5 active torsions:
REMARK  status: ('A' for Active; 'I' for Inactive)
REMARK    1  A    between atoms: C_1  and  O_2
REMARK    2  A    between atoms: O_2  and  C_3
REMARK    3  A    between atoms: C_12  and  C_13
REMARK    4  A    between atoms: C_22  and  C_23
REMARK    5  A    between atoms: C_25  and  C_26
REMARK                            x       y       z     vdW  Elec       q    Type
REMARK                         _______ _______ _______ _____ _____    ______ ____
ROOT
ATOM      1  C   UNL     1      -0.925  11.604  22.495  0.00  0.00    +0.000 C 
ATOM      2  O   UNL     1      -1.736  11.447  23.414  0.00  0.00    +0.000 OA
ATOM      3  N   UNL     1       0.040  10.638  22.229  0.00  0.00    +0.000 N 
ATOM      4  C   UNL     1      -0.042   9.343  22.910  0.00  0.00    +0.000 C 
ATOM      5  C   UNL     1      -0.061   8.184  21.895  0.00  0.00    +0.000 C 
ATOM      6  N   UNL     1       1.088   8.277  20.978  0.00  0.00    +0.000 N 
ATOM      7  C   UNL     1       1.515   7.196  20.257  0.00  0.00    +0.000 A 
ATOM      8  N   UNL     1       2.395   7.309  19.288  0.00  0.00    +0.000 NA
ATOM      9  C   UNL     1       2.783   6.076  18.798  0.00  0.00    +0.000 A 
ATOM     10  C   UNL     1       3.773   5.858  17.813  0.00  0.00    +0.000 A 
ATOM     11  C   UNL     1       4.539   6.985  17.178  0.00  0.00    +0.000 C 
ATOM     12  C   UNL     1       4.062   4.530  17.440  0.00  0.00    +0.000 A 
ATOM     13  C   UNL     1       3.393   3.445  18.015  0.00  0.00    +0.000 A 
ATOM     14  C   UNL     1       3.719   2.038  17.606  0.00  0.00    +0.000 C 
ATOM     15  C   UNL     1       2.409   3.666  18.988  0.00  0.00    +0.000 A 
ATOM     16  C   UNL     1       2.128   4.989  19.367  0.00  0.00    +0.000 A 
ATOM     17  S   UNL     1       1.014   5.564  20.540  0.00  0.00    +0.000 S 
ATOM     18  C   UNL     1       1.281   9.602  20.339  0.00  0.00    +0.000 C 
ATOM     19  C   UNL     1       1.225  10.746  21.373  0.00  0.00    +0.000 C 
ENDROOT
BRANCH   1  29
ATOM     20  C   UNL     1      -1.623  12.980  20.439  0.00  0.00    +0.000 A 
ATOM     21  C   UNL     1      -1.726  14.242  19.831  0.00  0.00    +0.000 A 
ATOM     22  C   UNL     1      -1.452  15.416  20.533  0.00  0.00    +0.000 A 
ATOM     23  C   UNL     1      -1.709  16.660  19.943  0.00  0.00    +0.000 A 
ATOM     24  C   UNL     1      -1.528  17.835  20.668  0.00  0.00    +0.000 A 
ATOM     25  C   UNL     1      -1.061  17.776  21.973  0.00  0.00    +0.000 A 
ATOM     26  C   UNL     1      -0.771  16.539  22.563  0.00  0.00    +0.000 A 
ATOM     27  C   UNL     1      -0.970  15.340  21.854  0.00  0.00    +0.000 A 
ATOM     28  C   UNL     1      -0.741  14.065  22.415  0.00  0.00    +0.000 A 
ATOM     29  C   UNL     1      -1.053  12.877  21.718  0.00  0.00    +0.000 A 
BRANCH  20  31
ATOM     30  C   UNL     1      -1.444  11.533  18.573  0.00  0.00    +0.000 C 
ATOM     31  O   UNL     1      -2.081  11.859  19.810  0.00  0.00    +0.000 OA
ENDBRANCH  20  31
ENDBRANCH   1  29
TORSDOF 2
ENDMDL
