MODEL 1
REMARK VINA RESULT:      -7.7      0.000      0.000
REMARK  Name = 
REMARK  7 active torsions:
REMARK  status: ('A' for Active; 'I' for Inactive)
REMARK    1  A    between atoms: C_1  and  C_2
REMARK    2  A    between atoms: C_2  and  C_3
REMARK    3  A    between atoms: N_5  and  C1*_6
REMARK    4  A    between atoms: C4*_8  and  C5*_9
REMARK    5  A    between atoms: C5*_9  and  O5*_10
REMARK    6  A    between atoms: C3*_11  and  O3*_12
REMARK    7  A    between atoms: C2*_13  and  O2*_14
REMARK                            x       y       z     vdW  Elec       q    Type
REMARK                         _______ _______ _______ _____ _____    ______ ____
ROOT
ATOM      1  C   UNL     1       5.738   4.185  15.092  0.00  0.00    +0.000 A 
ATOM      2  C   UNL     1       5.012   3.670  16.091  0.00  0.00    +0.000 A 
ATOM      3  N   UNL     1       5.370   3.810  17.414  0.00  0.00    +0.000 N 
ATOM      4  C   UNL     1       6.560   4.440  17.774  0.00  0.00    +0.000 A 
ATOM      5  O   UNL     1       6.900   4.526  18.953  0.00  0.00    +0.000 OA
ATOM      6  N   UNL     1       7.326   4.995  16.780  0.00  0.00    +0.000 NA
ATOM      7  C   UNL     1       6.959   4.909  15.539  0.00  0.00    +0.000 A 
ATOM      8  N   UNL     1       7.785   5.552  14.656  0.00  0.00    +0.000 N 
ATOM      9  H   UNL     1       8.633   5.866  15.123  0.00  0.00    +0.000 HD
ATOM     10  H   UNL     1       8.001   5.062  13.798  0.00  0.00    +0.000 HD
ENDROOT
BRANCH   3  11
ATOM     11  C1* UNL     1       4.492   3.369  18.492  0.00  0.00    +0.000 C 
ATOM     12  O4* UNL     1       3.568   4.430  18.834  0.00  0.00    +0.000 OA
ATOM     13  C4* UNL     1       2.235   3.882  18.823  0.00  0.00    +0.000 C 
ATOM     14  C3* UNL     1       2.391   2.382  18.986  0.00  0.00    +0.000 C 
ATOM     15  C2* UNL     1       3.650   2.118  18.166  0.00  0.00    +0.000 C 
BRANCH  14  16
ATOM     16  O3* UNL     1       1.243   1.669  18.547  0.00  0.00    +0.000 OA
ATOM     17  H3* UNL     1       0.943   2.036  17.697  0.00  0.00    +0.000 HD
ENDBRANCH  14  16
BRANCH  15  18
ATOM     18  O2* UNL     1       4.243   0.873  18.518  0.00  0.00    +0.000 OA
ATOM     19  H2* UNL     1       4.604   0.927  19.420  0.00  0.00    +0.000 HD
ENDBRANCH  15  18
BRANCH  13  20
ATOM     20  C5* UNL     1       1.415   4.527  19.934  0.00  0.00    +0.000 C 
BRANCH  20  21
ATOM     21  O5* UNL     1       0.613   3.532  20.571  0.00  0.00    +0.000 OA
ATOM     22  H5* UNL     1      -0.314   3.762  20.367  0.00  0.00    +0.000 HD
ENDBRANCH  20  21
ENDBRANCH  13  20
ENDBRANCH   3  11
BRANCH   1  24
ATOM     23  C   UNL     1       6.088   3.355  12.689  0.00  0.00    +0.000 C 
ATOM     24  C   UNL     1       5.264   4.183  13.665  0.00  0.00    +0.000 C 
ENDBRANCH   1  24
TORSDOF 6
ENDMDL
MODEL 2
REMARK VINA RESULT:      -7.4      1.186      1.276
REMARK  Name = 
REMARK  7 active torsions:
REMARK  status: ('A' for Active; 'I' for Inactive)
REMARK    1  A    between atoms: C_1  and  C_2
REMARK    2  A    between atoms: C_2  and  C_3
REMARK    3  A    between atoms: N_5  and  C1*_6
REMARK    4  A    between atoms: C4*_8  and  C5*_9
REMARK    5  A    between atoms: C5*_9  and  O5*_10
REMARK    6  A    between atoms: C3*_11  and  O3*_12
REMARK    7  A    between atoms: C2*_13  and  O2*_14
REMARK                            x       y       z     vdW  Elec       q    Type
REMARK                         _______ _______ _______ _____ _____    ______ ____
ROOT
ATOM      1  C   UNL     1       5.738   4.402  15.550  0.00  0.00    +0.000 A 
ATOM      2  C   UNL     1       5.137   4.077  16.700  0.00  0.00    +0.000 A 
ATOM      3  N   UNL     1       5.702   4.341  17.929  0.00  0.00    +0.000 N 
ATOM      4  C   UNL     1       6.974   4.899  18.031  0.00  0.00    +0.000 A 
ATOM      5  O   UNL     1       7.495   5.095  19.128  0.00  0.00    +0.000 OA
ATOM      6  N   UNL     1       7.618   5.261  16.874  0.00  0.00    +0.000 NA
ATOM      7  C   UNL     1       7.062   5.061  15.719  0.00  0.00    +0.000 A 
ATOM      8  N   UNL     1       7.787   5.516  14.651  0.00  0.00    +0.000 N 
ATOM      9  H   UNL     1       8.716   5.806  14.948  0.00  0.00    +0.000 HD
ATOM     10  H   UNL     1       7.835   4.910  13.844  0.00  0.00    +0.000 HD
ENDROOT
BRANCH   3  11
ATOM     11  C1* UNL     1       4.969   4.113  19.169  0.00  0.00    +0.000 C 
ATOM     12  O4* UNL     1       3.962   5.140  19.337  0.00  0.00    +0.000 OA
ATOM     13  C4* UNL     1       2.703   4.490  19.602  0.00  0.00    +0.000 C 
ATOM     14  C3* UNL     1       3.040   3.101  20.112  0.00  0.00    +0.000 C 
ATOM     15  C2* UNL     1       4.250   2.750  19.252  0.00  0.00    +0.000 C 
BRANCH  14  16
ATOM     16  O3* UNL     1       1.949   2.200  19.986  0.00  0.00    +0.000 OA
ATOM     17  H3* UNL     1       2.284   1.286  19.996  0.00  0.00    +0.000 HD
ENDBRANCH  14  16
BRANCH  15  18
ATOM     18  O2* UNL     1       5.007   1.694  19.834  0.00  0.00    +0.000 OA
ATOM     19  H2* UNL     1       4.422   1.130  20.367  0.00  0.00    +0.000 HD
ENDBRANCH  15  18
BRANCH  13  20
ATOM     20  C5* UNL     1       1.907   5.321  20.603  0.00  0.00    +0.000 C 
BRANCH  20  21
ATOM     21  O5* UNL     1       2.286   6.692  20.489  0.00  0.00    +0.000 OA
ATOM     22  H5* UNL     1       1.458   7.190  20.347  0.00  0.00    +0.000 HD
ENDBRANCH  20  21
ENDBRANCH  13  20
ENDBRANCH   3  11
BRANCH   1  24
ATOM     23  C   UNL     1       5.835   3.542  13.134  0.00  0.00    +0.000 C 
ATOM     24  C   UNL     1       5.053   4.272  14.217  0.00  0.00    +0.000 C 
ENDBRANCH   1  24
TORSDOF 6
ENDMDL
MODEL 3
REMARK VINA RESULT:      -7.2      3.079      5.850
REMARK  Name = 
REMARK  7 active torsions:
REMARK  status: ('A' for Active; 'I' for Inactive)
REMARK    1  A    between atoms: C_1  and  C_2
REMARK    2  A    between atoms: C_2  and  C_3
REMARK    3  A    between atoms: N_5  and  C1*_6
REMARK    4  A    between atoms: C4*_8  and  C5*_9
REMARK    5  A    between atoms: C5*_9  and  O5*_10
REMARK    6  A    between atoms: C3*_11  and  O3*_12
REMARK    7  A    between atoms: C2*_13  and  O2*_14
REMARK                            x       y       z     vdW  Elec       q    Type
REMARK                         _______ _______ _______ _____ _____    ______ ____
ROOT
ATOM      1  C   UNL     1       2.930   6.453  18.441  0.00  0.00    +0.000 A 
ATOM      2  C   UNL     1       3.815   5.933  17.583  0.00  0.00    +0.000 A 
ATOM      3  N   UNL     1       4.608   4.853  17.903  0.00  0.00    +0.000 N 
ATOM      4  C   UNL     1       4.577   4.290  19.177  0.00  0.00    +0.000 A 
ATOM      5  O   UNL     1       5.317   3.352  19.474  0.00  0.00    +0.000 OA
ATOM      6  N   UNL     1       3.672   4.784  20.082  0.00  0.00    +0.000 NA
ATOM      7  C   UNL     1       2.888   5.767  19.762  0.00  0.00    +0.000 A 
ATOM      8  N   UNL     1       1.998   6.126  20.738  0.00  0.00    +0.000 N 
ATOM      9  H   UNL     1       2.210   5.646  21.610  0.00  0.00    +0.000 HD
ATOM     10  H   UNL     1       1.867   7.117  20.890  0.00  0.00    +0.000 HD
ENDROOT
BRANCH   3  11
ATOM     11  C1* UNL     1       5.459   4.211  16.907  0.00  0.00    +0.000 C 
ATOM     12  O4* UNL     1       4.754   4.124  15.645  0.00  0.00    +0.000 OA
ATOM     13  C4* UNL     1       5.608   4.667  14.619  0.00  0.00    +0.000 C 
ATOM     14  C3* UNL     1       7.023   4.604  15.165  0.00  0.00    +0.000 C 
ATOM     15  C2* UNL     1       6.794   4.938  16.635  0.00  0.00    +0.000 C 
BRANCH  14  16
ATOM     16  O3* UNL     1       7.902   5.494  14.490  0.00  0.00    +0.000 OA
ATOM     17  H3* UNL     1       8.819   5.187  14.604  0.00  0.00    +0.000 HD
ENDBRANCH  14  16
BRANCH  15  18
ATOM     18  O2* UNL     1       7.892   4.518  17.437  0.00  0.00    +0.000 OA
ATOM     19  H2* UNL     1       7.606   4.429  18.362  0.00  0.00    +0.000 HD
ENDBRANCH  15  18
BRANCH  13  20
ATOM     20  C5* UNL     1       5.423   3.868  13.334  0.00  0.00    +0.000 C 
BRANCH  20  21
ATOM     21  O5* UNL     1       6.650   3.221  12.996  0.00  0.00    +0.000 OA
ATOM     22  H5* UNL     1       7.041   2.927  13.841  0.00  0.00    +0.000 HD
ENDBRANCH  20  21
ENDBRANCH  13  20
ENDBRANCH   3  11
BRANCH   1  24
ATOM     23  C   UNL     1       2.522   8.908  17.817  0.00  0.00    +0.000 C 
ATOM     24  C   UNL     1       1.946   7.517  18.041  0.00  0.00    +0.000 C 
ENDBRANCH   1  24
TORSDOF 6
ENDMDL
MODEL 4
REMARK VINA RESULT:      -7.2      1.588      2.183
REMARK  Name = 
REMARK  7 active torsions:
REMARK  status: ('A' for Active; 'I' for Inactive)
REMARK    1  A    between atoms: C_1  and  C_2
REMARK    2  A    between atoms: C_2  and  C_3
REMARK    3  A    between atoms: N_5  and  C1*_6
REMARK    4  A    between atoms: C4*_8  and  C5*_9
REMARK    5  A    between atoms: C5*_9  and  O5*_10
REMARK    6  A    between atoms: C3*_11  and  O3*_12
REMARK    7  A    between atoms: C2*_13  and  O2*_14
REMARK                            x       y       z     vdW  Elec       q    Type
REMARK                         _______ _______ _______ _____ _____    ______ ____
ROOT
ATOM      1  C   UNL     1       6.357   4.053  14.174  0.00  0.00    +0.000 A 
ATOM      2  C   UNL     1       5.582   3.897  15.253  0.00  0.00    +0.000 A 
ATOM      3  N   UNL     1       5.698   4.696  16.369  0.00  0.00    +0.000 N 
ATOM      4  C   UNL     1       6.690   5.671  16.456  0.00  0.00    +0.000 A 
ATOM      5  O   UNL     1       6.819   6.355  17.470  0.00  0.00    +0.000 OA
ATOM      6  N   UNL     1       7.497   5.873  15.364  0.00  0.00    +0.000 NA
ATOM      7  C   UNL     1       7.351   5.156  14.294  0.00  0.00    +0.000 A 
ATOM      8  N   UNL     1       8.183   5.497  13.262  0.00  0.00    +0.000 N 
ATOM      9  H   UNL     1       8.880   6.170  13.573  0.00  0.00    +0.000 HD
ATOM     10  H   UNL     1       8.613   4.736  12.755  0.00  0.00    +0.000 HD
ENDROOT
BRANCH   3  11
ATOM     11  C1* UNL     1       4.749   4.606  17.473  0.00  0.00    +0.000 C 
ATOM     12  O4* UNL     1       3.581   3.859  17.054  0.00  0.00    +0.000 OA
ATOM     13  C4* UNL     1       3.338   2.826  18.028  0.00  0.00    +0.000 C 
ATOM     14  C3* UNL     1       4.038   3.268  19.300  0.00  0.00    +0.000 C 
ATOM     15  C2* UNL     1       5.299   3.919  18.741  0.00  0.00    +0.000 C 
BRANCH  14  16
ATOM     16  O3* UNL     1       4.280   2.185  20.188  0.00  0.00    +0.000 OA
ATOM     17  H3* UNL     1       5.082   1.712  19.906  0.00  0.00    +0.000 HD
ENDBRANCH  14  16
BRANCH  15  18
ATOM     18  O2* UNL     1       5.899   4.787  19.695  0.00  0.00    +0.000 OA
ATOM     19  H2* UNL     1       6.334   4.260  20.387  0.00  0.00    +0.000 HD
ENDBRANCH  15  18
BRANCH  13  20
ATOM     20  C5* UNL     1       1.835   2.639  18.202  0.00  0.00    +0.000 C 
BRANCH  20  21
ATOM     21  O5* UNL     1       1.146   3.718  17.571  0.00  0.00    +0.000 OA
ATOM     22  H5* UNL     1       0.240   3.397  17.402  0.00  0.00    +0.000 HD
ENDBRANCH  20  21
ENDBRANCH  13  20
ENDBRANCH   3  11
BRANCH   1  24
ATOM     23  C   UNL     1       4.844   3.645  12.142  0.00  0.00    +0.000 C 
ATOM     24  C   UNL     1       6.122   3.300  12.894  0.00  0.00    +0.000 C 
ENDBRANCH   1  24
TORSDOF 6
ENDMDL
MODEL 5
REMARK VINA RESULT:      -7.1      2.722      6.261
REMARK  Name = 
REMARK  7 active torsions:
REMARK  status: ('A' for Active; 'I' for Inactive)
REMARK    1  A    between atoms: C_1  and  C_2
REMARK    2  A    between atoms: C_2  and  C_3
REMARK    3  A    between atoms: N_5  and  C1*_6
REMARK    4  A    between atoms: C4*_8  and  C5*_9
REMARK    5  A    between atoms: C5*_9  and  O5*_10
REMARK    6  A    between atoms: C3*_11  and  O3*_12
REMARK    7  A    between atoms: C2*_13  and  O2*_14
REMARK                            x       y       z     vdW  Elec       q    Type
REMARK                         _______ _______ _______ _____ _____    ______ ____
ROOT
ATOM      1  C   UNL     1       2.498   4.946  20.357  0.00  0.00    +0.000 A 
ATOM      2  C   UNL     1       3.666   5.106  19.725  0.00  0.00    +0.000 A 
ATOM      3  N   UNL     1       4.509   4.051  19.452  0.00  0.00    +0.000 N 
ATOM      4  C   UNL     1       4.214   2.762  19.891  0.00  0.00    +0.000 A 
ATOM      5  O   UNL     1       4.988   1.828  19.683  0.00  0.00    +0.000 OA
ATOM      6  N   UNL     1       3.018   2.553  20.530  0.00  0.00    +0.000 NA
ATOM      7  C   UNL     1       2.200   3.538  20.739  0.00  0.00    +0.000 A 
ATOM      8  N   UNL     1       1.021   3.182  21.337  0.00  0.00    +0.000 N 
ATOM      9  H   UNL     1       1.056   2.214  21.648  0.00  0.00    +0.000 HD
ATOM     10  H   UNL     1       0.684   3.789  22.072  0.00  0.00    +0.000 HD
ENDROOT
BRANCH   3  11
ATOM     11  C1* UNL     1       5.705   4.223  18.635  0.00  0.00    +0.000 C 
ATOM     12  O4* UNL     1       5.351   4.163  17.232  0.00  0.00    +0.000 OA
ATOM     13  C4* UNL     1       5.911   5.321  16.581  0.00  0.00    +0.000 C 
ATOM     14  C3* UNL     1       7.036   5.809  17.474  0.00  0.00    +0.000 C 
ATOM     15  C2* UNL     1       6.453   5.554  18.861  0.00  0.00    +0.000 C 
BRANCH  14  16
ATOM     16  O3* UNL     1       7.377   7.165  17.221  0.00  0.00    +0.000 OA
ATOM     17  H3* UNL     1       6.897   7.739  17.844  0.00  0.00    +0.000 HD
ENDBRANCH  14  16
BRANCH  15  18
ATOM     18  O2* UNL     1       7.474   5.520  19.852  0.00  0.00    +0.000 OA
ATOM     19  H2* UNL     1       7.085   5.693  20.726  0.00  0.00    +0.000 HD
ENDBRANCH  15  18
BRANCH  13  20
ATOM     20  C5* UNL     1       6.377   4.938  15.181  0.00  0.00    +0.000 C 
BRANCH  20  21
ATOM     21  O5* UNL     1       7.704   5.420  14.974  0.00  0.00    +0.000 OA
ATOM     22  H5* UNL     1       8.152   5.359  15.839  0.00  0.00    +0.000 HD
ENDBRANCH  20  21
ENDBRANCH  13  20
ENDBRANCH   3  11
BRANCH   1  24
ATOM     23  C   UNL     1       1.991   7.450  20.121  0.00  0.00    +0.000 C 
ATOM     24  C   UNL     1       1.500   6.061  20.505  0.00  0.00    +0.000 C 
ENDBRANCH   1  24
TORSDOF 6
ENDMDL
MODEL 6
REMARK VINA RESULT:      -7.1      1.149      1.179
REMARK  Name = 
REMARK  7 active torsions:
REMARK  status: ('A' for Active; 'I' for Inactive)
REMARK    1  A    between atoms: C_1  and  C_2
REMARK    2  A    between atoms: C_2  and  C_3
REMARK    3  A    between atoms: N_5  and  C1*_6
REMARK    4  A    between atoms: C4*_8  and  C5*_9
REMARK    5  A    between atoms: C5*_9  and  O5*_10
REMARK    6  A    between atoms: C3*_11  and  O3*_12
REMARK    7  A    between atoms: C2*_13  and  O2*_14
REMARK                            x       y       z     vdW  Elec       q    Type
REMARK                         _______ _______ _______ _____ _____    ______ ____
ROOT
ATOM      1  C   UNL     1       5.840   4.285  14.474  0.00  0.00    +0.000 A 
ATOM      2  C   UNL     1       5.202   3.966  15.606  0.00  0.00    +0.000 A 
ATOM      3  N   UNL     1       5.678   4.323  16.848  0.00  0.00    +0.000 N 
ATOM      4  C   UNL     1       6.900   4.977  16.990  0.00  0.00    +0.000 A 
ATOM      5  O   UNL     1       7.345   5.257  18.103  0.00  0.00    +0.000 OA
ATOM      6  N   UNL     1       7.579   5.335  15.852  0.00  0.00    +0.000 NA
ATOM      7  C   UNL     1       7.102   5.046  14.681  0.00  0.00    +0.000 A 
ATOM      8  N   UNL     1       7.852   5.508  13.632  0.00  0.00    +0.000 N 
ATOM      9  H   UNL     1       8.740   5.878  13.962  0.00  0.00    +0.000 HD
ATOM     10  H   UNL     1       7.986   4.873  12.857  0.00  0.00    +0.000 HD
ENDROOT
BRANCH   3  11
ATOM     11  C1* UNL     1       4.896   4.095  18.058  0.00  0.00    +0.000 C 
ATOM     12  O4* UNL     1       4.294   5.338  18.492  0.00  0.00    +0.000 OA
ATOM     13  C4* UNL     1       2.886   5.105  18.696  0.00  0.00    +0.000 C 
ATOM     14  C3* UNL     1       2.726   3.609  18.889  0.00  0.00    +0.000 C 
ATOM     15  C2* UNL     1       3.757   3.065  17.905  0.00  0.00    +0.000 C 
BRANCH  14  16
ATOM     16  O3* UNL     1       1.396   3.172  18.649  0.00  0.00    +0.000 OA
ATOM     17  H3* UNL     1       1.393   2.207  18.522  0.00  0.00    +0.000 HD
ENDBRANCH  14  16
BRANCH  15  18
ATOM     18  O2* UNL     1       4.104   1.719  18.212  0.00  0.00    +0.000 OA
ATOM     19  H2* UNL     1       5.054   1.666  18.412  0.00  0.00    +0.000 HD
ENDBRANCH  15  18
BRANCH  13  20
ATOM     20  C5* UNL     1       2.407   5.921  19.890  0.00  0.00    +0.000 C 
BRANCH  20  21
ATOM     21  O5* UNL     1       2.435   5.108  21.063  0.00  0.00    +0.000 OA
ATOM     22  H5* UNL     1       2.222   4.202  20.768  0.00  0.00    +0.000 HD
ENDBRANCH  20  21
ENDBRANCH  13  20
ENDBRANCH   3  11
BRANCH   1  24
ATOM     23  C   UNL     1       5.993   3.080  12.213  0.00  0.00    +0.000 C 
ATOM     24  C   UNL     1       5.241   4.049  13.115  0.00  0.00    +0.000 C 
ENDBRANCH   1  24
TORSDOF 6
ENDMDL
MODEL 7
REMARK VINA RESULT:      -6.9      2.578      6.004
REMARK  Name = 
REMARK  7 active torsions:
REMARK  status: ('A' for Active; 'I' for Inactive)
REMARK    1  A    between atoms: C_1  and  C_2
REMARK    2  A    between atoms: C_2  and  C_3
REMARK    3  A    between atoms: N_5  and  C1*_6
REMARK    4  A    between atoms: C4*_8  and  C5*_9
REMARK    5  A    between atoms: C5*_9  and  O5*_10
REMARK    6  A    between atoms: C3*_11  and  O3*_12
REMARK    7  A    between atoms: C2*_13  and  O2*_14
REMARK                            x       y       z     vdW  Elec       q    Type
REMARK                         _______ _______ _______ _____ _____    ______ ____
ROOT
ATOM      1  C   UNL     1       2.593   5.192  19.571  0.00  0.00    +0.000 A 
ATOM      2  C   UNL     1       3.696   5.032  18.831  0.00  0.00    +0.000 A 
ATOM      3  N   UNL     1       4.038   3.823  18.265  0.00  0.00    +0.000 N 
ATOM      4  C   UNL     1       3.280   2.679  18.502  0.00  0.00    +0.000 A 
ATOM      5  O   UNL     1       3.610   1.591  18.031  0.00  0.00    +0.000 OA
ATOM      6  N   UNL     1       2.132   2.803  19.244  0.00  0.00    +0.000 NA
ATOM      7  C   UNL     1       1.783   3.954  19.731  0.00  0.00    +0.000 A 
ATOM      8  N   UNL     1       0.591   3.948  20.404  0.00  0.00    +0.000 N 
ATOM      9  H   UNL     1       0.255   2.996  20.530  0.00  0.00    +0.000 HD
ATOM     10  H   UNL     1       0.559   4.464  21.273  0.00  0.00    +0.000 HD
ENDROOT
BRANCH   3  11
ATOM     11  C1* UNL     1       5.162   3.704  17.343  0.00  0.00    +0.000 C 
ATOM     12  O4* UNL     1       4.702   3.903  15.985  0.00  0.00    +0.000 OA
ATOM     13  C4* UNL     1       5.548   4.894  15.368  0.00  0.00    +0.000 C 
ATOM     14  C3* UNL     1       6.834   4.917  16.173  0.00  0.00    +0.000 C 
ATOM     15  C2* UNL     1       6.307   4.709  17.590  0.00  0.00    +0.000 C 
BRANCH  14  16
ATOM     16  O3* UNL     1       7.565   6.121  15.989  0.00  0.00    +0.000 OA
ATOM     17  H3* UNL     1       8.436   5.912  15.607  0.00  0.00    +0.000 HD
ENDBRANCH  14  16
BRANCH  15  18
ATOM     18  O2* UNL     1       7.337   4.260  18.463  0.00  0.00    +0.000 OA
ATOM     19  H2* UNL     1       8.161   4.141  17.960  0.00  0.00    +0.000 HD
ENDBRANCH  15  18
BRANCH  13  20
ATOM     20  C5* UNL     1       5.762   4.534  13.903  0.00  0.00    +0.000 C 
BRANCH  20  21
ATOM     21  O5* UNL     1       6.360   3.241  13.814  0.00  0.00    +0.000 OA
ATOM     22  H5* UNL     1       6.148   2.788  14.652  0.00  0.00    +0.000 HD
ENDBRANCH  20  21
ENDBRANCH  13  20
ENDBRANCH   3  11
BRANCH   1  24
ATOM     23  C   UNL     1       2.223   7.674  19.033  0.00  0.00    +0.000 C 
ATOM     24  C   UNL     1       2.127   6.541  20.046  0.00  0.00    +0.000 C 
ENDBRANCH   1  24
TORSDOF 6
ENDMDL
MODEL 8
REMARK VINA RESULT:      -6.5      1.768      2.698
REMARK  Name = 
REMARK  7 active torsions:
REMARK  status: ('A' for Active; 'I' for Inactive)
REMARK    1  A    between atoms: C_1  and  C_2
REMARK    2  A    between atoms: C_2  and  C_3
REMARK    3  A    between atoms: N_5  and  C1*_6
REMARK    4  A    between atoms: C4*_8  and  C5*_9
REMARK    5  A    between atoms: C5*_9  and  O5*_10
REMARK    6  A    between atoms: C3*_11  and  O3*_12
REMARK    7  A    between atoms: C2*_13  and  O2*_14
REMARK                            x       y       z     vdW  Elec       q    Type
REMARK                         _______ _______ _______ _____ _____    ______ ____
ROOT
ATOM      1  C   UNL     1       6.846   5.875  17.790  0.00  0.00    +0.000 A 
ATOM      2  C   UNL     1       5.973   5.299  18.624  0.00  0.00    +0.000 A 
ATOM      3  N   UNL     1       5.073   4.343  18.207  0.00  0.00    +0.000 N 
ATOM      4  C   UNL     1       4.979   3.979  16.866  0.00  0.00    +0.000 A 
ATOM      5  O   UNL     1       4.145   3.157  16.488  0.00  0.00    +0.000 OA
ATOM      6  N   UNL     1       5.867   4.536  15.980  0.00  0.00    +0.000 NA
ATOM      7  C   UNL     1       6.750   5.396  16.384  0.00  0.00    +0.000 A 
ATOM      8  N   UNL     1       7.607   5.832  15.409  0.00  0.00    +0.000 N 
ATOM      9  H   UNL     1       7.303   5.508  14.494  0.00  0.00    +0.000 HD
ATOM     10  H   UNL     1       7.812   6.822  15.395  0.00  0.00    +0.000 HD
ENDROOT
BRANCH   3  11
ATOM     11  C1* UNL     1       4.231   3.623  19.157  0.00  0.00    +0.000 C 
ATOM     12  O4* UNL     1       3.102   4.447  19.533  0.00  0.00    +0.000 OA
ATOM     13  C4* UNL     1       1.902   3.669  19.354  0.00  0.00    +0.000 C 
ATOM     14  C3* UNL     1       2.333   2.214  19.370  0.00  0.00    +0.000 C 
ATOM     15  C2* UNL     1       3.666   2.286  18.632  0.00  0.00    +0.000 C 
BRANCH  14  16
ATOM     16  O3* UNL     1       1.372   1.360  18.765  0.00  0.00    +0.000 OA
ATOM     17  H3* UNL     1       1.560   1.289  17.812  0.00  0.00    +0.000 HD
ENDBRANCH  14  16
BRANCH  15  18
ATOM     18  O2* UNL     1       4.465   1.138  18.897  0.00  0.00    +0.000 OA
ATOM     19  H2* UNL     1       3.889   0.380  19.099  0.00  0.00    +0.000 HD
ENDBRANCH  15  18
BRANCH  13  20
ATOM     20  C5* UNL     1       0.908   4.014  20.457  0.00  0.00    +0.000 C 
BRANCH  20  21
ATOM     21  O5* UNL     1       0.793   2.911  21.355  0.00  0.00    +0.000 OA
ATOM     22  H5* UNL     1       0.441   2.169  20.828  0.00  0.00    +0.000 HD
ENDBRANCH  20  21
ENDBRANCH  13  20
ENDBRANCH   3  11
BRANCH   1  24
ATOM     23  C   UNL     1       7.878   8.224  17.768  0.00  0.00    +0.000 C 
ATOM     24  C   UNL     1       7.940   6.788  18.271  0.00  0.00    +0.000 C 
ENDBRANCH   1  24
TORSDOF 6
ENDMDL
MODEL 9
REMARK VINA RESULT:      -6.5      2.771      6.037
REMARK  Name = 
REMARK  7 active torsions:
REMARK  status: ('A' for Active; 'I' for Inactive)
REMARK    1  A    between atoms: C_1  and  C_2
REMARK    2  A    between atoms: C_2  and  C_3
REMARK    3  A    between atoms: N_5  and  C1*_6
REMARK    4  A    between atoms: C4*_8  and  C5*_9
REMARK    5  A    between atoms: C5*_9  and  O5*_10
REMARK    6  A    between atoms: C3*_11  and  O3*_12
REMARK    7  A    between atoms: C2*_13  and  O2*_14
REMARK                            x       y       z     vdW  Elec       q    Type
REMARK                         _______ _______ _______ _____ _____    ______ ____
ROOT
ATOM      1  C   UNL     1       2.184   4.447  19.764  0.00  0.00    +0.000 A 
ATOM      2  C   UNL     1       2.992   3.922  18.837  0.00  0.00    +0.000 A 
ATOM      3  N   UNL     1       3.876   4.687  18.108  0.00  0.00    +0.000 N 
ATOM      4  C   UNL     1       3.919   6.072  18.253  0.00  0.00    +0.000 A 
ATOM      5  O   UNL     1       4.679   6.758  17.571  0.00  0.00    +0.000 OA
ATOM      6  N   UNL     1       3.116   6.649  19.206  0.00  0.00    +0.000 NA
ATOM      7  C   UNL     1       2.323   5.920  19.929  0.00  0.00    +0.000 A 
ATOM      8  N   UNL     1       1.619   6.614  20.876  0.00  0.00    +0.000 N 
ATOM      9  H   UNL     1       1.737   7.617  20.746  0.00  0.00    +0.000 HD
ATOM     10  H   UNL     1       0.643   6.373  20.983  0.00  0.00    +0.000 HD
ENDROOT
BRANCH   3  11
ATOM     11  C1* UNL     1       4.850   4.077  17.208  0.00  0.00    +0.000 C 
ATOM     12  O4* UNL     1       4.356   4.128  15.848  0.00  0.00    +0.000 OA
ATOM     13  C4* UNL     1       5.388   4.700  15.020  0.00  0.00    +0.000 C 
ATOM     14  C3* UNL     1       6.691   4.516  15.776  0.00  0.00    +0.000 C 
ATOM     15  C2* UNL     1       6.240   4.746  17.215  0.00  0.00    +0.000 C 
BRANCH  14  16
ATOM     16  O3* UNL     1       7.706   5.404  15.329  0.00  0.00    +0.000 OA
ATOM     17  H3* UNL     1       7.455   6.317  15.553  0.00  0.00    +0.000 HD
ENDBRANCH  14  16
BRANCH  15  18
ATOM     18  O2* UNL     1       7.175   4.204  18.142  0.00  0.00    +0.000 OA
ATOM     19  H2* UNL     1       7.671   3.482  17.719  0.00  0.00    +0.000 HD
ENDBRANCH  15  18
BRANCH  13  20
ATOM     20  C5* UNL     1       5.380   4.015  13.658  0.00  0.00    +0.000 C 
BRANCH  20  21
ATOM     21  O5* UNL     1       6.573   3.245  13.507  0.00  0.00    +0.000 OA
ATOM     22  H5* UNL     1       6.758   2.859  14.385  0.00  0.00    +0.000 HD
ENDBRANCH  20  21
ENDBRANCH  13  20
ENDBRANCH   3  11
BRANCH   1  24
ATOM     23  C   UNL     1       2.095   2.846  21.768  0.00  0.00    +0.000 C 
ATOM     24  C   UNL     1       1.344   3.598  20.678  0.00  0.00    +0.000 C 
ENDBRANCH   1  24
TORSDOF 6
ENDMDL
