MODEL 1
REMARK VINA RESULT:      -7.3      0.000      0.000
REMARK  Name = 
REMARK  5 active torsions:
REMARK  status: ('A' for Active; 'I' for Inactive)
REMARK    1  A    between atoms: C_2  and  CA_3
REMARK    2  A    between atoms: CA_3  and  CB_4
REMARK    3  A    between atoms: CA_3  and  N_11
REMARK    4  A    between atoms: CB_4  and  CG_5
REMARK    5  A    between atoms: C_12  and  C_14
REMARK                            x       y       z     vdW  Elec       q    Type
REMARK                         _______ _______ _______ _____ _____    ______ ____
ROOT
ATOM      1  CA  PHE A   1       6.136   6.071  16.587  0.00  0.00    +0.000 C 
ENDROOT
BRANCH   1   2
ATOM      2  N   PHE A   1       5.056   5.429  17.326  0.00  0.00    +0.000 N 
ATOM      3  C   UNK A   0       3.899   6.112  17.627  0.00  0.00    +0.000 C 
ATOM      4  O   UNK A   0       3.670   7.254  17.242  0.00  0.00    +0.000 OA
ATOM      5  H   PHE A   1       5.317   4.669  17.942  0.00  0.00    +0.000 HD
BRANCH   3   6
ATOM      6  C   UNK A   0       2.930   5.388  18.497  0.00  0.00    +0.000 A 
ATOM      7  C   UNK A   0       2.170   4.352  17.943  0.00  0.00    +0.000 A 
ATOM      8  C   UNK A   0       1.247   3.663  18.731  0.00  0.00    +0.000 A 
ATOM      9  C   UNK A   0       1.085   4.004  20.076  0.00  0.00    +0.000 A 
ATOM     10  C   UNK A   0       1.852   5.023  20.637  0.00  0.00    +0.000 A 
ATOM     11  C   UNK A   0       2.779   5.712  19.853  0.00  0.00    +0.000 A 
ENDBRANCH   3   6
ENDBRANCH   1   2
BRANCH   1  13
ATOM     12  O   PHE A   1       7.649   7.908  17.131  0.00  0.00    +0.000 OA
ATOM     13  C   PHE A   1       6.857   7.048  17.508  0.00  0.00    +0.000 C 
ENDBRANCH   1  13
BRANCH   1  14
ATOM     14  CB  PHE A   1       7.151   5.047  16.059  0.00  0.00    +0.000 C 
BRANCH  14  15
ATOM     15  CG  PHE A   1       6.964   4.729  14.592  0.00  0.00    +0.000 A 
ATOM     16  CD1 PHE A   1       5.993   3.806  14.179  0.00  0.00    +0.000 A 
ATOM     17  CE1 PHE A   1       5.865   3.467  12.830  0.00  0.00    +0.000 A 
ATOM     18  CZ  PHE A   1       6.696   4.057  11.881  0.00  0.00    +0.000 A 
ATOM     19  CE2 PHE A   1       7.646   4.996  12.277  0.00  0.00    +0.000 A 
ATOM     20  CD2 PHE A   1       7.779   5.333  13.625  0.00  0.00    +0.000 A 
ENDBRANCH  14  15
ENDBRANCH   1  14
TORSDOF 5
ENDMDL
MODEL 2
REMARK VINA RESULT:      -7.2      0.144      1.117
REMARK  Name = 
REMARK  5 active torsions:
REMARK  status: ('A' for Active; 'I' for Inactive)
REMARK    1  A    between atoms: C_2  and  CA_3
REMARK    2  A    between atoms: CA_3  and  CB_4
REMARK    3  A    between atoms: CA_3  and  N_11
REMARK    4  A    between atoms: CB_4  and  CG_5
REMARK    5  A    between atoms: C_12  and  C_14
REMARK                            x       y       z     vdW  Elec       q    Type
REMARK                         _______ _______ _______ _____ _____    ______ ____
ROOT
ATOM      1  CA  PHE A   1       6.067   5.933  16.572  0.00  0.00    +0.000 C 
ENDROOT
BRANCH   1   2
ATOM      2  N   PHE A   1       4.963   5.323  17.302  0.00  0.00    +0.000 N 
ATOM      3  C   UNK A   0       3.855   6.059  17.659  0.00  0.00    +0.000 C 
ATOM      4  O   UNK A   0       3.690   7.230  17.333  0.00  0.00    +0.000 OA
ATOM      5  H   PHE A   1       5.187   4.519  17.876  0.00  0.00    +0.000 HD
BRANCH   3   6
ATOM      6  C   UNK A   0       2.859   5.354  18.513  0.00  0.00    +0.000 A 
ATOM      7  C   UNK A   0       2.653   5.805  19.821  0.00  0.00    +0.000 A 
ATOM      8  C   UNK A   0       1.733   5.158  20.647  0.00  0.00    +0.000 A 
ATOM      9  C   UNK A   0       1.013   4.062  20.168  0.00  0.00    +0.000 A 
ATOM     10  C   UNK A   0       1.201   3.620  18.859  0.00  0.00    +0.000 A 
ATOM     11  C   UNK A   0       2.117   4.266  18.028  0.00  0.00    +0.000 A 
ENDBRANCH   3   6
ENDBRANCH   1   2
BRANCH   1  13
ATOM     12  O   PHE A   1       7.388   7.907  17.135  0.00  0.00    +0.000 OA
ATOM     13  C   PHE A   1       6.810   6.887  17.501  0.00  0.00    +0.000 C 
ENDBRANCH   1  13
BRANCH   1  14
ATOM     14  CB  PHE A   1       7.055   4.879  16.052  0.00  0.00    +0.000 C 
BRANCH  14  15
ATOM     15  CG  PHE A   1       6.936   4.639  14.563  0.00  0.00    +0.000 A 
ATOM     16  CD1 PHE A   1       6.002   3.723  14.059  0.00  0.00    +0.000 A 
ATOM     17  CE1 PHE A   1       5.936   3.457  12.690  0.00  0.00    +0.000 A 
ATOM     18  CZ  PHE A   1       6.794   4.113  11.811  0.00  0.00    +0.000 A 
ATOM     19  CE2 PHE A   1       7.709   5.045  12.297  0.00  0.00    +0.000 A 
ATOM     20  CD2 PHE A   1       7.778   5.310  13.666  0.00  0.00    +0.000 A 
ENDBRANCH  14  15
ENDBRANCH   1  14
TORSDOF 5
ENDMDL
MODEL 3
REMARK VINA RESULT:      -7.2      3.052      4.779
REMARK  Name = 
REMARK  5 active torsions:
REMARK  status: ('A' for Active; 'I' for Inactive)
REMARK    1  A    between atoms: C_2  and  CA_3
REMARK    2  A    between atoms: CA_3  and  CB_4
REMARK    3  A    between atoms: CA_3  and  N_11
REMARK    4  A    between atoms: CB_4  and  CG_5
REMARK    5  A    between atoms: C_12  and  C_14
REMARK                            x       y       z     vdW  Elec       q    Type
REMARK                         _______ _______ _______ _____ _____    ______ ____
ROOT
ATOM      1  CA  PHE A   1       3.733   4.322  17.784  0.00  0.00    +0.000 C 
ENDROOT
BRANCH   1   2
ATOM      2  N   PHE A   1       3.143   5.648  17.911  0.00  0.00    +0.000 N 
ATOM      3  C   UNK A   0       2.939   6.218  19.148  0.00  0.00    +0.000 C 
ATOM      4  O   UNK A   0       3.298   5.697  20.199  0.00  0.00    +0.000 OA
ATOM      5  H   PHE A   1       2.535   5.949  17.159  0.00  0.00    +0.000 HD
BRANCH   3   6
ATOM      6  C   UNK A   0       2.211   7.518  19.148  0.00  0.00    +0.000 A 
ATOM      7  C   UNK A   0       1.634   7.968  20.341  0.00  0.00    +0.000 A 
ATOM      8  C   UNK A   0       0.937   9.176  20.369  0.00  0.00    +0.000 A 
ATOM      9  C   UNK A   0       0.819   9.942  19.207  0.00  0.00    +0.000 A 
ATOM     10  C   UNK A   0       1.408   9.508  18.020  0.00  0.00    +0.000 A 
ATOM     11  C   UNK A   0       2.109   8.301  17.989  0.00  0.00    +0.000 A 
ENDBRANCH   3   6
ENDBRANCH   1   2
BRANCH   1  13
ATOM     12  O   PHE A   1       1.590   3.165  17.620  0.00  0.00    +0.000 OA
ATOM     13  C   PHE A   1       2.709   3.380  17.161  0.00  0.00    +0.000 C 
ENDBRANCH   1  13
BRANCH   1  14
ATOM     14  CB  PHE A   1       4.988   4.341  16.900  0.00  0.00    +0.000 C 
BRANCH  14  15
ATOM     15  CG  PHE A   1       6.084   5.231  17.446  0.00  0.00    +0.000 A 
ATOM     16  CD1 PHE A   1       6.730   4.913  18.649  0.00  0.00    +0.000 A 
ATOM     17  CE1 PHE A   1       7.696   5.769  19.183  0.00  0.00    +0.000 A 
ATOM     18  CZ  PHE A   1       8.034   6.943  18.513  0.00  0.00    +0.000 A 
ATOM     19  CE2 PHE A   1       7.417   7.255  17.303  0.00  0.00    +0.000 A 
ATOM     20  CD2 PHE A   1       6.448   6.404  16.770  0.00  0.00    +0.000 A 
ENDBRANCH  14  15
ENDBRANCH   1  14
TORSDOF 5
ENDMDL
MODEL 4
REMARK VINA RESULT:      -7.2      3.393      5.728
REMARK  Name = 
REMARK  5 active torsions:
REMARK  status: ('A' for Active; 'I' for Inactive)
REMARK    1  A    between atoms: C_2  and  CA_3
REMARK    2  A    between atoms: CA_3  and  CB_4
REMARK    3  A    between atoms: CA_3  and  N_11
REMARK    4  A    between atoms: CB_4  and  CG_5
REMARK    5  A    between atoms: C_12  and  C_14
REMARK                            x       y       z     vdW  Elec       q    Type
REMARK                         _______ _______ _______ _____ _____    ______ ____
ROOT
ATOM      1  CA  PHE A   1       4.657   4.480  17.817  0.00  0.00    +0.000 C 
ENDROOT
BRANCH   1   2
ATOM      2  N   PHE A   1       3.706   5.465  18.318  0.00  0.00    +0.000 N 
ATOM      3  C   UNK A   0       3.606   6.711  17.742  0.00  0.00    +0.000 C 
ATOM      4  O   UNK A   0       4.239   7.047  16.746  0.00  0.00    +0.000 OA
ATOM      5  H   PHE A   1       3.440   5.384  19.292  0.00  0.00    +0.000 HD
BRANCH   3   6
ATOM      6  C   UNK A   0       2.692   7.668  18.427  0.00  0.00    +0.000 A 
ATOM      7  C   UNK A   0       2.251   7.371  19.721  0.00  0.00    +0.000 A 
ATOM      8  C   UNK A   0       1.387   8.243  20.383  0.00  0.00    +0.000 A 
ATOM      9  C   UNK A   0       0.965   9.418  19.757  0.00  0.00    +0.000 A 
ATOM     10  C   UNK A   0       1.416   9.728  18.475  0.00  0.00    +0.000 A 
ATOM     11  C   UNK A   0       2.283   8.859  17.811  0.00  0.00    +0.000 A 
ENDBRANCH   3   6
ENDBRANCH   1   2
BRANCH   1  13
ATOM     12  O   PHE A   1       6.108   5.144  19.665  0.00  0.00    +0.000 OA
ATOM     13  C   PHE A   1       5.985   4.657  18.544  0.00  0.00    +0.000 C 
ENDBRANCH   1  13
BRANCH   1  14
ATOM     14  CB  PHE A   1       4.158   3.045  18.040  0.00  0.00    +0.000 C 
BRANCH  14  15
ATOM     15  CG  PHE A   1       3.121   2.941  19.137  0.00  0.00    +0.000 A 
ATOM     16  CD1 PHE A   1       1.760   3.120  18.852  0.00  0.00    +0.000 A 
ATOM     17  CE1 PHE A   1       0.811   3.087  19.875  0.00  0.00    +0.000 A 
ATOM     18  CZ  PHE A   1       1.211   2.860  21.190  0.00  0.00    +0.000 A 
ATOM     19  CE2 PHE A   1       2.559   2.654  21.481  0.00  0.00    +0.000 A 
ATOM     20  CD2 PHE A   1       3.509   2.691  20.460  0.00  0.00    +0.000 A 
ENDBRANCH  14  15
ENDBRANCH   1  14
TORSDOF 5
ENDMDL
MODEL 5
REMARK VINA RESULT:      -7.2      1.686      6.599
REMARK  Name = 
REMARK  5 active torsions:
REMARK  status: ('A' for Active; 'I' for Inactive)
REMARK    1  A    between atoms: C_2  and  CA_3
REMARK    2  A    between atoms: CA_3  and  CB_4
REMARK    3  A    between atoms: CA_3  and  N_11
REMARK    4  A    between atoms: CB_4  and  CG_5
REMARK    5  A    between atoms: C_12  and  C_14
REMARK                            x       y       z     vdW  Elec       q    Type
REMARK                         _______ _______ _______ _____ _____    ______ ____
ROOT
ATOM      1  CA  PHE A   1       5.896   5.162  18.167  0.00  0.00    +0.000 C 
ENDROOT
BRANCH   1   2
ATOM      2  N   PHE A   1       6.232   5.196  16.749  0.00  0.00    +0.000 N 
ATOM      3  C   UNK A   0       5.797   4.209  15.893  0.00  0.00    +0.000 C 
ATOM      4  O   UNK A   0       5.055   3.295  16.238  0.00  0.00    +0.000 OA
ATOM      5  H   PHE A   1       7.081   5.685  16.496  0.00  0.00    +0.000 HD
BRANCH   3   6
ATOM      6  C   UNK A   0       6.316   4.288  14.499  0.00  0.00    +0.000 A 
ATOM      7  C   UNK A   0       7.376   5.158  14.222  0.00  0.00    +0.000 A 
ATOM      8  C   UNK A   0       7.876   5.261  12.924  0.00  0.00    +0.000 A 
ATOM      9  C   UNK A   0       7.322   4.492  11.899  0.00  0.00    +0.000 A 
ATOM     10  C   UNK A   0       6.278   3.609  12.172  0.00  0.00    +0.000 A 
ATOM     11  C   UNK A   0       5.778   3.501  13.471  0.00  0.00    +0.000 A 
ENDBRANCH   3   6
ENDBRANCH   1   2
BRANCH   1  13
ATOM     12  O   PHE A   1       7.346   5.413  20.114  0.00  0.00    +0.000 OA
ATOM     13  C   PHE A   1       7.056   5.741  18.967  0.00  0.00    +0.000 C 
ENDBRANCH   1  13
BRANCH   1  14
ATOM     14  CB  PHE A   1       4.630   5.976  18.471  0.00  0.00    +0.000 C 
BRANCH  14  15
ATOM     15  CG  PHE A   1       3.438   5.111  18.818  0.00  0.00    +0.000 A 
ATOM     16  CD1 PHE A   1       2.486   4.781  17.842  0.00  0.00    +0.000 A 
ATOM     17  CE1 PHE A   1       1.355   4.036  18.179  0.00  0.00    +0.000 A 
ATOM     18  CZ  PHE A   1       1.170   3.603  19.490  0.00  0.00    +0.000 A 
ATOM     19  CE2 PHE A   1       2.123   3.902  20.462  0.00  0.00    +0.000 A 
ATOM     20  CD2 PHE A   1       3.253   4.650  20.128  0.00  0.00    +0.000 A 
ENDBRANCH  14  15
ENDBRANCH   1  14
TORSDOF 5
ENDMDL
MODEL 6
REMARK VINA RESULT:      -7.2      1.651      2.181
REMARK  Name = 
REMARK  5 active torsions:
REMARK  status: ('A' for Active; 'I' for Inactive)
REMARK    1  A    between atoms: C_2  and  CA_3
REMARK    2  A    between atoms: CA_3  and  CB_4
REMARK    3  A    between atoms: CA_3  and  N_11
REMARK    4  A    between atoms: CB_4  and  CG_5
REMARK    5  A    between atoms: C_12  and  C_14
REMARK                            x       y       z     vdW  Elec       q    Type
REMARK                         _______ _______ _______ _____ _____    ______ ____
ROOT
ATOM      1  CA  PHE A   1       4.758   4.842  16.322  0.00  0.00    +0.000 C 
ENDROOT
BRANCH   1   2
ATOM      2  N   PHE A   1       4.234   4.355  17.592  0.00  0.00    +0.000 N 
ATOM      3  C   UNK A   0       3.037   3.678  17.653  0.00  0.00    +0.000 C 
ATOM      4  O   UNK A   0       2.379   3.380  16.662  0.00  0.00    +0.000 OA
ATOM      5  H   PHE A   1       4.526   4.854  18.424  0.00  0.00    +0.000 HD
BRANCH   3   6
ATOM      6  C   UNK A   0       2.550   3.349  19.022  0.00  0.00    +0.000 A 
ATOM      7  C   UNK A   0       3.471   2.904  19.977  0.00  0.00    +0.000 A 
ATOM      8  C   UNK A   0       3.043   2.579  21.264  0.00  0.00    +0.000 A 
ATOM      9  C   UNK A   0       1.694   2.703  21.604  0.00  0.00    +0.000 A 
ATOM     10  C   UNK A   0       0.775   3.164  20.662  0.00  0.00    +0.000 A 
ATOM     11  C   UNK A   0       1.200   3.493  19.374  0.00  0.00    +0.000 A 
ENDBRANCH   3   6
ENDBRANCH   1   2
BRANCH   1  13
ATOM     12  O   PHE A   1       4.298   7.088  17.158  0.00  0.00    +0.000 OA
ATOM     13  C   PHE A   1       4.928   6.354  16.401  0.00  0.00    +0.000 C 
ENDBRANCH   1  13
BRANCH   1  14
ATOM     14  CB  PHE A   1       6.115   4.208  15.986  0.00  0.00    +0.000 C 
BRANCH  14  15
ATOM     15  CG  PHE A   1       6.451   4.272  14.512  0.00  0.00    +0.000 A 
ATOM     16  CD1 PHE A   1       5.769   3.467  13.588  0.00  0.00    +0.000 A 
ATOM     17  CE1 PHE A   1       6.123   3.481  12.238  0.00  0.00    +0.000 A 
ATOM     18  CZ  PHE A   1       7.153   4.309  11.796  0.00  0.00    +0.000 A 
ATOM     19  CE2 PHE A   1       7.819   5.133  12.701  0.00  0.00    +0.000 A 
ATOM     20  CD2 PHE A   1       7.470   5.117  14.051  0.00  0.00    +0.000 A 
ENDBRANCH  14  15
ENDBRANCH   1  14
TORSDOF 5
ENDMDL
MODEL 7
REMARK VINA RESULT:      -7.2      3.037      4.649
REMARK  Name = 
REMARK  5 active torsions:
REMARK  status: ('A' for Active; 'I' for Inactive)
REMARK    1  A    between atoms: C_2  and  CA_3
REMARK    2  A    between atoms: CA_3  and  CB_4
REMARK    3  A    between atoms: CA_3  and  N_11
REMARK    4  A    between atoms: CB_4  and  CG_5
REMARK    5  A    between atoms: C_12  and  C_14
REMARK                            x       y       z     vdW  Elec       q    Type
REMARK                         _______ _______ _______ _____ _____    ______ ____
ROOT
ATOM      1  CA  PHE A   1       3.651   4.260  17.721  0.00  0.00    +0.000 C 
ENDROOT
BRANCH   1   2
ATOM      2  N   PHE A   1       3.050   5.580  17.869  0.00  0.00    +0.000 N 
ATOM      3  C   UNK A   0       3.026   6.215  19.091  0.00  0.00    +0.000 C 
ATOM      4  O   UNK A   0       3.560   5.761  20.098  0.00  0.00    +0.000 OA
ATOM      5  H   PHE A   1       2.324   5.825  17.207  0.00  0.00    +0.000 HD
BRANCH   3   6
ATOM      6  C   UNK A   0       2.270   7.498  19.137  0.00  0.00    +0.000 A 
ATOM      7  C   UNK A   0       2.161   8.259  17.968  0.00  0.00    +0.000 A 
ATOM      8  C   UNK A   0       1.467   9.470  17.984  0.00  0.00    +0.000 A 
ATOM      9  C   UNK A   0       0.875   9.920  19.166  0.00  0.00    +0.000 A 
ATOM     10  C   UNK A   0       0.964   9.157  20.328  0.00  0.00    +0.000 A 
ATOM     11  C   UNK A   0       1.655   7.944  20.316  0.00  0.00    +0.000 A 
ENDBRANCH   3   6
ENDBRANCH   1   2
BRANCH   1  13
ATOM     12  O   PHE A   1       1.414   3.363  17.338  0.00  0.00    +0.000 OA
ATOM     13  C   PHE A   1       2.621   3.310  17.122  0.00  0.00    +0.000 C 
ENDBRANCH   1  13
BRANCH   1  14
ATOM     14  CB  PHE A   1       4.883   4.297  16.805  0.00  0.00    +0.000 C 
BRANCH  14  15
ATOM     15  CG  PHE A   1       5.973   5.216  17.313  0.00  0.00    +0.000 A 
ATOM     16  CD1 PHE A   1       6.822   4.811  18.352  0.00  0.00    +0.000 A 
ATOM     17  CE1 PHE A   1       7.785   5.684  18.862  0.00  0.00    +0.000 A 
ATOM     18  CZ  PHE A   1       7.917   6.964  18.329  0.00  0.00    +0.000 A 
ATOM     19  CE2 PHE A   1       7.097   7.367  17.277  0.00  0.00    +0.000 A 
ATOM     20  CD2 PHE A   1       6.131   6.498  16.769  0.00  0.00    +0.000 A 
ENDBRANCH  14  15
ENDBRANCH   1  14
TORSDOF 5
ENDMDL
MODEL 8
REMARK VINA RESULT:      -7.2      0.217      1.128
REMARK  Name = 
REMARK  5 active torsions:
REMARK  status: ('A' for Active; 'I' for Inactive)
REMARK    1  A    between atoms: C_2  and  CA_3
REMARK    2  A    between atoms: CA_3  and  CB_4
REMARK    3  A    between atoms: CA_3  and  N_11
REMARK    4  A    between atoms: CB_4  and  CG_5
REMARK    5  A    between atoms: C_12  and  C_14
REMARK                            x       y       z     vdW  Elec       q    Type
REMARK                         _______ _______ _______ _____ _____    ______ ____
ROOT
ATOM      1  CA  PHE A   1       5.871   6.039  16.467  0.00  0.00    +0.000 C 
ENDROOT
BRANCH   1   2
ATOM      2  N   PHE A   1       4.799   5.379  17.202  0.00  0.00    +0.000 N 
ATOM      3  C   UNK A   0       3.720   6.090  17.674  0.00  0.00    +0.000 C 
ATOM      4  O   UNK A   0       3.550   7.285  17.454  0.00  0.00    +0.000 OA
ATOM      5  H   PHE A   1       5.044   4.529  17.696  0.00  0.00    +0.000 HD
BRANCH   3   6
ATOM      6  C   UNK A   0       2.761   5.325  18.520  0.00  0.00    +0.000 A 
ATOM      7  C   UNK A   0       2.126   4.204  17.973  0.00  0.00    +0.000 A 
ATOM      8  C   UNK A   0       1.216   3.474  18.738  0.00  0.00    +0.000 A 
ATOM      9  C   UNK A   0       0.941   3.857  20.052  0.00  0.00    +0.000 A 
ATOM     10  C   UNK A   0       1.585   4.961  20.608  0.00  0.00    +0.000 A 
ATOM     11  C   UNK A   0       2.499   5.693  19.847  0.00  0.00    +0.000 A 
ENDBRANCH   3   6
ENDBRANCH   1   2
BRANCH   1  13
ATOM     12  O   PHE A   1       7.378   7.885  16.996  0.00  0.00    +0.000 OA
ATOM     13  C   PHE A   1       6.491   7.114  17.352  0.00  0.00    +0.000 C 
ENDBRANCH   1  13
BRANCH   1  14
ATOM     14  CB  PHE A   1       6.967   5.049  16.050  0.00  0.00    +0.000 C 
BRANCH  14  15
ATOM     15  CG  PHE A   1       6.924   4.703  14.577  0.00  0.00    +0.000 A 
ATOM     16  CD1 PHE A   1       7.777   5.342  13.667  0.00  0.00    +0.000 A 
ATOM     17  CE1 PHE A   1       7.692   5.067  12.301  0.00  0.00    +0.000 A 
ATOM     18  CZ  PHE A   1       6.762   4.141  11.833  0.00  0.00    +0.000 A 
ATOM     19  CE2 PHE A   1       5.927   3.479  12.732  0.00  0.00    +0.000 A 
ATOM     20  CD2 PHE A   1       6.008   3.756  14.097  0.00  0.00    +0.000 A 
ENDBRANCH  14  15
ENDBRANCH   1  14
TORSDOF 5
ENDMDL
MODEL 9
REMARK VINA RESULT:      -7.2      1.568      7.156
REMARK  Name = 
REMARK  5 active torsions:
REMARK  status: ('A' for Active; 'I' for Inactive)
REMARK    1  A    between atoms: C_2  and  CA_3
REMARK    2  A    between atoms: CA_3  and  CB_4
REMARK    3  A    between atoms: CA_3  and  N_11
REMARK    4  A    between atoms: CB_4  and  CG_5
REMARK    5  A    between atoms: C_12  and  C_14
REMARK                            x       y       z     vdW  Elec       q    Type
REMARK                         _______ _______ _______ _____ _____    ______ ____
ROOT
ATOM      1  CA  PHE A   1       4.147   4.492  17.363  0.00  0.00    +0.000 C 
ENDROOT
BRANCH   1   2
ATOM      2  N   PHE A   1       4.697   4.383  16.017  0.00  0.00    +0.000 N 
ATOM      3  C   UNK A   0       6.057   4.323  15.810  0.00  0.00    +0.000 C 
ATOM      4  O   UNK A   0       6.878   4.283  16.720  0.00  0.00    +0.000 OA
ATOM      5  H   PHE A   1       4.131   4.755  15.264  0.00  0.00    +0.000 HD
BRANCH   3   6
ATOM      6  C   UNK A   0       6.494   4.346  14.386  0.00  0.00    +0.000 A 
ATOM      7  C   UNK A   0       7.500   5.240  14.003  0.00  0.00    +0.000 A 
ATOM      8  C   UNK A   0       7.923   5.290  12.674  0.00  0.00    +0.000 A 
ATOM      9  C   UNK A   0       7.346   4.444  11.725  0.00  0.00    +0.000 A 
ATOM     10  C   UNK A   0       6.357   3.538  12.104  0.00  0.00    +0.000 A 
ATOM     11  C   UNK A   0       5.934   3.482  13.433  0.00  0.00    +0.000 A 
ENDBRANCH   3   6
ENDBRANCH   1   2
BRANCH   1  13
ATOM     12  O   PHE A   1       4.283   6.900  16.987  0.00  0.00    +0.000 OA
ATOM     13  C   PHE A   1       3.901   5.962  17.682  0.00  0.00    +0.000 C 
ENDBRANCH   1  13
BRANCH   1  14
ATOM     14  CB  PHE A   1       2.822   3.728  17.498  0.00  0.00    +0.000 C 
BRANCH  14  15
ATOM     15  CG  PHE A   1       2.469   3.404  18.934  0.00  0.00    +0.000 A 
ATOM     16  CD1 PHE A   1       1.230   3.784  19.468  0.00  0.00    +0.000 A 
ATOM     17  CE1 PHE A   1       0.931   3.541  20.810  0.00  0.00    +0.000 A 
ATOM     18  CZ  PHE A   1       1.862   2.902  21.626  0.00  0.00    +0.000 A 
ATOM     19  CE2 PHE A   1       3.086   2.496  21.099  0.00  0.00    +0.000 A 
ATOM     20  CD2 PHE A   1       3.388   2.742  19.759  0.00  0.00    +0.000 A 
ENDBRANCH  14  15
ENDBRANCH   1  14
TORSDOF 5
ENDMDL
