MODEL 1
REMARK VINA RESULT:      -7.2      0.000      0.000
REMARK  Name = 
REMARK  4 active torsions:
REMARK  status: ('A' for Active; 'I' for Inactive)
REMARK    1  A    between atoms: C_1  and  C_2
REMARK    2  A    between atoms: C_4  and  O_5
REMARK    3  A    between atoms: N_10  and  C_11
REMARK    4  A    between atoms: C_11  and  C_12
REMARK                            x       y       z     vdW  Elec       q    Type
REMARK                         _______ _______ _______ _____ _____    ______ ____
ROOT
ATOM      1  C   UNL     1       1.449  11.977  20.713  0.00  0.00    +0.000 C 
ATOM      2  C   UNL     1       0.060  11.336  20.647  0.00  0.00    +0.000 C 
ATOM      3  C   UNL     1      -0.448  10.852  22.022  0.00  0.00    +0.000 C 
ATOM      4  C   UNL     1       0.117   9.498  22.473  0.00  0.00    +0.000 C 
ATOM      5  C   UNL     1       0.074   8.456  21.347  0.00  0.00    +0.000 C 
ATOM      6  N   UNL     1       0.691   8.999  20.128  0.00  0.00    +0.000 N 
ATOM      7  C   UNL     1       1.689   8.406  19.370  0.00  0.00    +0.000 C 
ATOM      8  O   UNL     1       2.056   8.850  18.289  0.00  0.00    +0.000 OA
ATOM      9  N   UNL     1       2.239   7.270  19.916  0.00  0.00    +0.000 N 
ATOM     10  C   UNL     1       0.030  10.199  19.615  0.00  0.00    +0.000 C 
ATOM     11  H   UNL     1       2.294   7.254  20.919  0.00  0.00    +0.000 HD
ENDROOT
BRANCH   4  12
ATOM     12  O   UNL     1       1.457   9.647  22.942  0.00  0.00    +0.000 OA
ATOM     13  H   UNL     1       1.449  10.355  23.607  0.00  0.00    +0.000 HD
ENDBRANCH   4  12
BRANCH   9  14
ATOM     14  C   UNL     1       3.301   6.534  19.241  0.00  0.00    +0.000 C 
BRANCH  14  15
ATOM     15  C   UNL     1       2.734   5.632  18.128  0.00  0.00    +0.000 C 
ATOM     16  C   UNL     1       3.843   4.949  17.316  0.00  0.00    +0.000 C 
ATOM     17  C   UNL     1       4.536   3.861  18.124  0.00  0.00    +0.000 C 
ATOM     18  O   UNL     1       3.587   2.921  18.612  0.00  0.00    +0.000 OA
ATOM     19  C   UNL     1       2.470   3.421  19.388  0.00  0.00    +0.000 C 
ATOM     20  C   UNL     1       1.535   2.246  19.853  0.00  0.00    +0.000 C 
ATOM     21  C   UNL     1       1.328   3.006  21.170  0.00  0.00    +0.000 C 
ATOM     22  C   UNL     1       2.703   3.661  20.915  0.00  0.00    +0.000 C 
ATOM     23  C   UNL     1       1.754   4.558  18.642  0.00  0.00    +0.000 C 
ENDBRANCH  14  15
ENDBRANCH   9  14
TORSDOF 3
ENDMDL
MODEL 2
REMARK VINA RESULT:      -7.0      1.562      7.224
REMARK  Name = 
REMARK  4 active torsions:
REMARK  status: ('A' for Active; 'I' for Inactive)
REMARK    1  A    between atoms: C_1  and  C_2
REMARK    2  A    between atoms: C_4  and  O_5
REMARK    3  A    between atoms: N_10  and  C_11
REMARK    4  A    between atoms: C_11  and  C_12
REMARK                            x       y       z     vdW  Elec       q    Type
REMARK                         _______ _______ _______ _____ _____    ______ ____
ROOT
ATOM      1  C   UNL     1       1.440   3.902  17.421  0.00  0.00    +0.000 C 
ATOM      2  C   UNL     1       2.644   3.469  18.261  0.00  0.00    +0.000 C 
ATOM      3  C   UNL     1       2.269   2.506  19.407  0.00  0.00    +0.000 C 
ATOM      4  C   UNL     1       1.691   3.189  20.653  0.00  0.00    +0.000 C 
ATOM      5  C   UNL     1       2.511   4.418  21.065  0.00  0.00    +0.000 C 
ATOM      6  N   UNL     1       2.700   5.312  19.913  0.00  0.00    +0.000 N 
ATOM      7  C   UNL     1       2.429   6.671  19.864  0.00  0.00    +0.000 C 
ATOM      8  O   UNL     1       2.743   7.379  18.916  0.00  0.00    +0.000 OA
ATOM      9  N   UNL     1       1.782   7.176  20.968  0.00  0.00    +0.000 N 
ATOM     10  C   UNL     1       3.409   4.690  18.793  0.00  0.00    +0.000 C 
ATOM     11  H   UNL     1       1.137   6.550  21.416  0.00  0.00    +0.000 HD
ENDROOT
BRANCH   4  12
ATOM     12  O   UNL     1       0.332   3.566  20.432  0.00  0.00    +0.000 OA
ATOM     13  H   UNL     1      -0.224   2.852  20.785  0.00  0.00    +0.000 HD
ENDBRANCH   4  12
BRANCH   9  14
ATOM     14  C   UNL     1       1.425   8.586  21.067  0.00  0.00    +0.000 C 
BRANCH  14  15
ATOM     15  C   UNL     1      -0.103   8.780  21.037  0.00  0.00    +0.000 C 
ATOM     16  C   UNL     1      -0.698   8.908  22.445  0.00  0.00    +0.000 C 
ATOM     17  C   UNL     1      -0.338  10.242  23.083  0.00  0.00    +0.000 C 
ATOM     18  O   UNL     1      -0.736  11.319  22.244  0.00  0.00    +0.000 OA
ATOM     19  C   UNL     1      -0.261  11.328  20.875  0.00  0.00    +0.000 C 
ATOM     20  C   UNL     1      -0.786  12.593  20.104  0.00  0.00    +0.000 C 
ATOM     21  C   UNL     1       0.566  12.645  19.381  0.00  0.00    +0.000 C 
ATOM     22  C   UNL     1       1.160  11.922  20.609  0.00  0.00    +0.000 C 
ATOM     23  C   UNL     1      -0.555   9.986  20.188  0.00  0.00    +0.000 C 
ENDBRANCH  14  15
ENDBRANCH   9  14
TORSDOF 3
ENDMDL
MODEL 3
REMARK VINA RESULT:      -6.9      0.928      1.066
REMARK  Name = 
REMARK  4 active torsions:
REMARK  status: ('A' for Active; 'I' for Inactive)
REMARK    1  A    between atoms: C_1  and  C_2
REMARK    2  A    between atoms: C_4  and  O_5
REMARK    3  A    between atoms: N_10  and  C_11
REMARK    4  A    between atoms: C_11  and  C_12
REMARK                            x       y       z     vdW  Elec       q    Type
REMARK                         _______ _______ _______ _____ _____    ______ ____
ROOT
ATOM      1  C   UNL     1       1.705  12.432  18.938  0.00  0.00    +0.000 C 
ATOM      2  C   UNL     1       0.280  11.875  18.915  0.00  0.00    +0.000 C 
ATOM      3  C   UNL     1      -0.363  11.796  20.315  0.00  0.00    +0.000 C 
ATOM      4  C   UNL     1       0.061  10.579  21.147  0.00  0.00    +0.000 C 
ATOM      5  C   UNL     1       0.019   9.282  20.327  0.00  0.00    +0.000 C 
ATOM      6  N   UNL     1       0.763   9.452  19.070  0.00  0.00    +0.000 N 
ATOM      7  C   UNL     1       1.765   8.626  18.582  0.00  0.00    +0.000 C 
ATOM      8  O   UNL     1       2.242   8.750  17.462  0.00  0.00    +0.000 OA
ATOM      9  N   UNL     1       2.184   7.644  19.449  0.00  0.00    +0.000 N 
ATOM     10  C   UNL     1       0.236  10.511  18.209  0.00  0.00    +0.000 C 
ATOM     11  H   UNL     1       2.165   7.887  20.422  0.00  0.00    +0.000 HD
ENDROOT
BRANCH   4  12
ATOM     12  O   UNL     1       1.371  10.770  21.682  0.00  0.00    +0.000 OA
ATOM     13  H   UNL     1       1.264  11.100  22.589  0.00  0.00    +0.000 HD
ENDBRANCH   4  12
BRANCH   9  14
ATOM     14  C   UNL     1       3.231   6.698  19.083  0.00  0.00    +0.000 C 
BRANCH  14  15
ATOM     15  C   UNL     1       2.769   5.763  17.949  0.00  0.00    +0.000 C 
ATOM     16  C   UNL     1       3.950   5.084  17.241  0.00  0.00    +0.000 C 
ATOM     17  C   UNL     1       4.596   4.027  18.124  0.00  0.00    +0.000 C 
ATOM     18  O   UNL     1       3.628   3.079  18.557  0.00  0.00    +0.000 OA
ATOM     19  C   UNL     1       2.445   3.574  19.234  0.00  0.00    +0.000 C 
ATOM     20  C   UNL     1       1.498   2.391  19.651  0.00  0.00    +0.000 C 
ATOM     21  C   UNL     1       1.175   3.174  20.930  0.00  0.00    +0.000 C 
ATOM     22  C   UNL     1       2.554   3.850  20.769  0.00  0.00    +0.000 C 
ATOM     23  C   UNL     1       1.771   4.681  18.410  0.00  0.00    +0.000 C 
ENDBRANCH  14  15
ENDBRANCH   9  14
TORSDOF 3
ENDMDL
MODEL 4
REMARK VINA RESULT:      -6.8      0.913      1.063
REMARK  Name = 
REMARK  4 active torsions:
REMARK  status: ('A' for Active; 'I' for Inactive)
REMARK    1  A    between atoms: C_1  and  C_2
REMARK    2  A    between atoms: C_4  and  O_5
REMARK    3  A    between atoms: N_10  and  C_11
REMARK    4  A    between atoms: C_11  and  C_12
REMARK                            x       y       z     vdW  Elec       q    Type
REMARK                         _______ _______ _______ _____ _____    ______ ____
ROOT
ATOM      1  C   UNL     1       1.170  12.035  21.151  0.00  0.00    +0.000 C 
ATOM      2  C   UNL     1      -0.228  11.424  21.026  0.00  0.00    +0.000 C 
ATOM      3  C   UNL     1      -0.803  10.947  22.376  0.00  0.00    +0.000 C 
ATOM      4  C   UNL     1      -0.286   9.580  22.845  0.00  0.00    +0.000 C 
ATOM      5  C   UNL     1      -0.306   8.542  21.714  0.00  0.00    +0.000 C 
ATOM      6  N   UNL     1       0.373   9.075  20.524  0.00  0.00    +0.000 N 
ATOM      7  C   UNL     1       1.389   8.463  19.805  0.00  0.00    +0.000 C 
ATOM      8  O   UNL     1       1.809   8.902  18.742  0.00  0.00    +0.000 OA
ATOM      9  N   UNL     1       1.892   7.314  20.369  0.00  0.00    +0.000 N 
ATOM     10  C   UNL     1      -0.240  10.291  19.988  0.00  0.00    +0.000 C 
ATOM     11  H   UNL     1       1.904   7.294  21.373  0.00  0.00    +0.000 HD
ENDROOT
BRANCH   4  12
ATOM     12  O   UNL     1       1.036   9.699  23.370  0.00  0.00    +0.000 OA
ATOM     13  H   UNL     1       1.390   8.798  23.458  0.00  0.00    +0.000 HD
ENDBRANCH   4  12
BRANCH   9  14
ATOM     14  C   UNL     1       2.964   6.557  19.735  0.00  0.00    +0.000 C 
BRANCH  14  15
ATOM     15  C   UNL     1       2.645   6.267  18.256  0.00  0.00    +0.000 C 
ATOM     16  C   UNL     1       3.893   6.354  17.368  0.00  0.00    +0.000 C 
ATOM     17  C   UNL     1       4.830   5.178  17.606  0.00  0.00    +0.000 C 
ATOM     18  O   UNL     1       4.140   3.947  17.426  0.00  0.00    +0.000 OA
ATOM     19  C   UNL     1       2.930   3.726  18.191  0.00  0.00    +0.000 C 
ATOM     20  C   UNL     1       2.314   2.314  17.876  0.00  0.00    +0.000 C 
ATOM     21  C   UNL     1       1.917   2.219  19.355  0.00  0.00    +0.000 C 
ATOM     22  C   UNL     1       3.088   3.182  19.649  0.00  0.00    +0.000 C 
ATOM     23  C   UNL     1       1.959   4.905  18.027  0.00  0.00    +0.000 C 
ENDBRANCH  14  15
ENDBRANCH   9  14
TORSDOF 3
ENDMDL
MODEL 5
REMARK VINA RESULT:      -6.8      1.705      3.019
REMARK  Name = 
REMARK  4 active torsions:
REMARK  status: ('A' for Active; 'I' for Inactive)
REMARK    1  A    between atoms: C_1  and  C_2
REMARK    2  A    between atoms: C_4  and  O_5
REMARK    3  A    between atoms: N_10  and  C_11
REMARK    4  A    between atoms: C_11  and  C_12
REMARK                            x       y       z     vdW  Elec       q    Type
REMARK                         _______ _______ _______ _____ _____    ______ ____
ROOT
ATOM      1  C   UNL     1       1.762  12.534  20.230  0.00  0.00    +0.000 C 
ATOM      2  C   UNL     1       0.321  12.022  20.154  0.00  0.00    +0.000 C 
ATOM      3  C   UNL     1      -0.197  11.471  21.499  0.00  0.00    +0.000 C 
ATOM      4  C   UNL     1       0.256  10.041  21.823  0.00  0.00    +0.000 C 
ATOM      5  C   UNL     1       0.096   9.104  20.618  0.00  0.00    +0.000 C 
ATOM      6  N   UNL     1       0.731   9.691  19.430  0.00  0.00    +0.000 N 
ATOM      7  C   UNL     1       1.656   9.079  18.597  0.00  0.00    +0.000 C 
ATOM      8  O   UNL     1       2.036   9.577  17.545  0.00  0.00    +0.000 OA
ATOM      9  N   UNL     1       2.116   7.858  19.033  0.00  0.00    +0.000 N 
ATOM     10  C   UNL     1       0.167  10.982  19.034  0.00  0.00    +0.000 C 
ATOM     11  H   UNL     1       2.191   7.754  20.029  0.00  0.00    +0.000 HD
ENDROOT
BRANCH   4  12
ATOM     12  O   UNL     1       1.614  10.035  22.263  0.00  0.00    +0.000 OA
ATOM     13  H   UNL     1       1.611  10.276  23.204  0.00  0.00    +0.000 HD
ENDBRANCH   4  12
BRANCH   9  14
ATOM     14  C   UNL     1       3.093   7.092  18.269  0.00  0.00    +0.000 C 
BRANCH  14  15
ATOM     15  C   UNL     1       3.472   5.787  18.996  0.00  0.00    +0.000 C 
ATOM     16  C   UNL     1       2.988   4.543  18.240  0.00  0.00    +0.000 C 
ATOM     17  C   UNL     1       3.798   4.310  16.973  0.00  0.00    +0.000 C 
ATOM     18  O   UNL     1       5.186   4.235  17.275  0.00  0.00    +0.000 OA
ATOM     19  C   UNL     1       5.785   5.337  18.001  0.00  0.00    +0.000 C 
ATOM     20  C   UNL     1       7.320   5.091  18.233  0.00  0.00    +0.000 C 
ATOM     21  C   UNL     1       7.537   6.595  18.021  0.00  0.00    +0.000 C 
ATOM     22  C   UNL     1       6.247   6.581  17.173  0.00  0.00    +0.000 C 
ATOM     23  C   UNL     1       4.983   5.651  19.273  0.00  0.00    +0.000 C 
ENDBRANCH  14  15
ENDBRANCH   9  14
TORSDOF 3
ENDMDL
MODEL 6
REMARK VINA RESULT:      -6.7      1.718      6.893
REMARK  Name = 
REMARK  4 active torsions:
REMARK  status: ('A' for Active; 'I' for Inactive)
REMARK    1  A    between atoms: C_1  and  C_2
REMARK    2  A    between atoms: C_4  and  O_5
REMARK    3  A    between atoms: N_10  and  C_11
REMARK    4  A    between atoms: C_11  and  C_12
REMARK                            x       y       z     vdW  Elec       q    Type
REMARK                         _______ _______ _______ _____ _____    ______ ____
ROOT
ATOM      1  C   UNL     1       1.323   4.139  17.427  0.00  0.00    +0.000 C 
ATOM      2  C   UNL     1       2.558   3.666  18.199  0.00  0.00    +0.000 C 
ATOM      3  C   UNL     1       2.227   2.636  19.300  0.00  0.00    +0.000 C 
ATOM      4  C   UNL     1       1.689   3.243  20.602  0.00  0.00    +0.000 C 
ATOM      5  C   UNL     1       2.518   4.452  21.056  0.00  0.00    +0.000 C 
ATOM      6  N   UNL     1       2.663   5.411  19.951  0.00  0.00    +0.000 N 
ATOM      7  C   UNL     1       2.384   6.769  19.990  0.00  0.00    +0.000 C 
ATOM      8  O   UNL     1       2.663   7.532  19.075  0.00  0.00    +0.000 OA
ATOM      9  N   UNL     1       1.773   7.206  21.143  0.00  0.00    +0.000 N 
ATOM     10  C   UNL     1       3.335   4.860  18.774  0.00  0.00    +0.000 C 
ATOM     11  H   UNL     1       1.147   6.552  21.576  0.00  0.00    +0.000 HD
ENDROOT
BRANCH   4  12
ATOM     12  O   UNL     1       0.321   3.624  20.449  0.00  0.00    +0.000 OA
ATOM     13  H   UNL     1       0.053   3.370  19.551  0.00  0.00    +0.000 HD
ENDBRANCH   4  12
BRANCH   9  14
ATOM     14  C   UNL     1       1.414   8.605  21.335  0.00  0.00    +0.000 C 
BRANCH  14  15
ATOM     15  C   UNL     1      -0.081   8.758  21.670  0.00  0.00    +0.000 C 
ATOM     16  C   UNL     1      -0.340   9.913  22.647  0.00  0.00    +0.000 C 
ATOM     17  C   UNL     1      -0.144  11.265  21.977  0.00  0.00    +0.000 C 
ATOM     18  O   UNL     1      -0.958  11.367  20.815  0.00  0.00    +0.000 OA
ATOM     19  C   UNL     1      -0.834  10.337  19.803  0.00  0.00    +0.000 C 
ATOM     20  C   UNL     1      -1.794  10.619  18.590  0.00  0.00    +0.000 C 
ATOM     21  C   UNL     1      -0.697  10.072  17.667  0.00  0.00    +0.000 C 
ATOM     22  C   UNL     1       0.316  10.490  18.755  0.00  0.00    +0.000 C 
ATOM     23  C   UNL     1      -0.977   8.941  20.428  0.00  0.00    +0.000 C 
ENDBRANCH  14  15
ENDBRANCH   9  14
TORSDOF 3
ENDMDL
MODEL 7
REMARK VINA RESULT:      -6.7      3.995      6.336
REMARK  Name = 
REMARK  4 active torsions:
REMARK  status: ('A' for Active; 'I' for Inactive)
REMARK    1  A    between atoms: C_1  and  C_2
REMARK    2  A    between atoms: C_4  and  O_5
REMARK    3  A    between atoms: N_10  and  C_11
REMARK    4  A    between atoms: C_11  and  C_12
REMARK                            x       y       z     vdW  Elec       q    Type
REMARK                         _______ _______ _______ _____ _____    ______ ____
ROOT
ATOM      1  C   UNL     1       1.719   2.508  21.609  0.00  0.00    +0.000 C 
ATOM      2  C   UNL     1       0.684   2.902  20.552  0.00  0.00    +0.000 C 
ATOM      3  C   UNL     1       0.616   1.909  19.372  0.00  0.00    +0.000 C 
ATOM      4  C   UNL     1       1.714   2.095  18.316  0.00  0.00    +0.000 C 
ATOM      5  C   UNL     1       1.893   3.569  17.930  0.00  0.00    +0.000 C 
ATOM      6  N   UNL     1       2.063   4.393  19.136  0.00  0.00    +0.000 N 
ATOM      7  C   UNL     1       3.080   5.302  19.383  0.00  0.00    +0.000 C 
ATOM      8  O   UNL     1       3.080   6.055  20.348  0.00  0.00    +0.000 OA
ATOM      9  N   UNL     1       4.097   5.305  18.456  0.00  0.00    +0.000 N 
ATOM     10  C   UNL     1       0.926   4.335  20.056  0.00  0.00    +0.000 C 
ATOM     11  H   UNL     1       4.308   4.416  18.042  0.00  0.00    +0.000 HD
ENDROOT
BRANCH   4  12
ATOM     12  O   UNL     1       2.953   1.563  18.783  0.00  0.00    +0.000 OA
ATOM     13  H   UNL     1       3.661   2.017  18.297  0.00  0.00    +0.000 HD
ENDBRANCH   4  12
BRANCH   9  14
ATOM     14  C   UNL     1       5.239   6.203  18.578  0.00  0.00    +0.000 C 
BRANCH  14  15
ATOM     15  C   UNL     1       5.388   7.091  17.328  0.00  0.00    +0.000 C 
ATOM     16  C   UNL     1       6.702   7.883  17.334  0.00  0.00    +0.000 C 
ATOM     17  C   UNL     1       7.899   6.979  17.083  0.00  0.00    +0.000 C 
ATOM     18  O   UNL     1       7.729   6.252  15.872  0.00  0.00    +0.000 OA
ATOM     19  C   UNL     1       6.524   5.463  15.714  0.00  0.00    +0.000 C 
ATOM     20  C   UNL     1       6.513   4.721  14.328  0.00  0.00    +0.000 C 
ATOM     21  C   UNL     1       5.842   3.534  15.032  0.00  0.00    +0.000 C 
ATOM     22  C   UNL     1       6.516   4.026  16.331  0.00  0.00    +0.000 C 
ATOM     23  C   UNL     1       5.276   6.313  16.001  0.00  0.00    +0.000 C 
ENDBRANCH  14  15
ENDBRANCH   9  14
TORSDOF 3
ENDMDL
MODEL 8
REMARK VINA RESULT:      -6.6      1.251      2.844
REMARK  Name = 
REMARK  4 active torsions:
REMARK  status: ('A' for Active; 'I' for Inactive)
REMARK    1  A    between atoms: C_1  and  C_2
REMARK    2  A    between atoms: C_4  and  O_5
REMARK    3  A    between atoms: N_10  and  C_11
REMARK    4  A    between atoms: C_11  and  C_12
REMARK                            x       y       z     vdW  Elec       q    Type
REMARK                         _______ _______ _______ _____ _____    ______ ____
ROOT
ATOM      1  C   UNL     1       1.127  12.093  20.672  0.00  0.00    +0.000 C 
ATOM      2  C   UNL     1      -0.191  11.322  20.777  0.00  0.00    +0.000 C 
ATOM      3  C   UNL     1      -0.434  10.726  22.180  0.00  0.00    +0.000 C 
ATOM      4  C   UNL     1       0.314   9.415  22.457  0.00  0.00    +0.000 C 
ATOM      5  C   UNL     1       0.190   8.428  21.289  0.00  0.00    +0.000 C 
ATOM      6  N   UNL     1       0.560   9.085  20.027  0.00  0.00    +0.000 N 
ATOM      7  C   UNL     1       1.477   8.629  19.092  0.00  0.00    +0.000 C 
ATOM      8  O   UNL     1       1.630   9.157  17.998  0.00  0.00    +0.000 OA
ATOM      9  N   UNL     1       2.206   7.529  19.480  0.00  0.00    +0.000 N 
ATOM     10  C   UNL     1      -0.279  10.237  19.693  0.00  0.00    +0.000 C 
ATOM     11  H   UNL     1       2.416   7.471  20.459  0.00  0.00    +0.000 HD
ENDROOT
BRANCH   4  12
ATOM     12  O   UNL     1       1.692   9.674  22.729  0.00  0.00    +0.000 OA
ATOM     13  H   UNL     1       2.162   8.828  22.647  0.00  0.00    +0.000 HD
ENDBRANCH   4  12
BRANCH   9  14
ATOM     14  C   UNL     1       3.211   6.932  18.609  0.00  0.00    +0.000 C 
BRANCH  14  15
ATOM     15  C   UNL     1       3.673   5.563  19.143  0.00  0.00    +0.000 C 
ATOM     16  C   UNL     1       2.618   4.471  18.925  0.00  0.00    +0.000 C 
ATOM     17  C   UNL     1       2.508   4.087  17.457  0.00  0.00    +0.000 C 
ATOM     18  O   UNL     1       3.778   3.701  16.946  0.00  0.00    +0.000 OA
ATOM     19  C   UNL     1       4.882   4.629  17.091  0.00  0.00    +0.000 C 
ATOM     20  C   UNL     1       6.197   4.044  16.460  0.00  0.00    +0.000 C 
ATOM     21  C   UNL     1       6.542   5.466  15.998  0.00  0.00    +0.000 C 
ATOM     22  C   UNL     1       5.025   5.753  16.014  0.00  0.00    +0.000 C 
ATOM     23  C   UNL     1       5.016   5.090  18.550  0.00  0.00    +0.000 C 
ENDBRANCH  14  15
ENDBRANCH   9  14
TORSDOF 3
ENDMDL
MODEL 9
REMARK VINA RESULT:      -6.5      2.104      6.978
REMARK  Name = 
REMARK  4 active torsions:
REMARK  status: ('A' for Active; 'I' for Inactive)
REMARK    1  A    between atoms: C_1  and  C_2
REMARK    2  A    between atoms: C_4  and  O_5
REMARK    3  A    between atoms: N_10  and  C_11
REMARK    4  A    between atoms: C_11  and  C_12
REMARK                            x       y       z     vdW  Elec       q    Type
REMARK                         _______ _______ _______ _____ _____    ______ ____
ROOT
ATOM      1  C   UNL     1       2.155   3.452  17.670  0.00  0.00    +0.000 C 
ATOM      2  C   UNL     1       3.158   3.499  18.825  0.00  0.00    +0.000 C 
ATOM      3  C   UNL     1       2.552   3.051  20.172  0.00  0.00    +0.000 C 
ATOM      4  C   UNL     1       1.727   4.126  20.891  0.00  0.00    +0.000 C 
ATOM      5  C   UNL     1       2.444   5.482  20.908  0.00  0.00    +0.000 C 
ATOM      6  N   UNL     1       2.870   5.848  19.549  0.00  0.00    +0.000 N 
ATOM      7  C   UNL     1       2.615   7.044  18.895  0.00  0.00    +0.000 C 
ATOM      8  O   UNL     1       3.120   7.334  17.818  0.00  0.00    +0.000 OA
ATOM      9  N   UNL     1       1.752   7.894  19.548  0.00  0.00    +0.000 N 
ATOM     10  C   UNL     1       3.795   4.891  18.942  0.00  0.00    +0.000 C 
ATOM     11  H   UNL     1       1.028   7.450  20.082  0.00  0.00    +0.000 HD
ENDROOT
BRANCH   4  12
ATOM     12  O   UNL     1       0.444   4.265  20.280  0.00  0.00    +0.000 OA
ATOM     13  H   UNL     1       0.590   4.621  19.389  0.00  0.00    +0.000 HD
ENDBRANCH   4  12
BRANCH   9  14
ATOM     14  C   UNL     1       1.384   9.188  18.987  0.00  0.00    +0.000 C 
BRANCH  14  15
ATOM     15  C   UNL     1       0.655  10.061  20.026  0.00  0.00    +0.000 C 
ATOM     16  C   UNL     1       1.169  11.506  20.031  0.00  0.00    +0.000 C 
ATOM     17  C   UNL     1       0.724  12.260  18.786  0.00  0.00    +0.000 C 
ATOM     18  O   UNL     1      -0.691  12.206  18.651  0.00  0.00    +0.000 OA
ATOM     19  C   UNL     1      -1.325  10.903  18.643  0.00  0.00    +0.000 C 
ATOM     20  C   UNL     1      -2.883  11.034  18.471  0.00  0.00    +0.000 C 
ATOM     21  C   UNL     1      -2.839   9.765  17.611  0.00  0.00    +0.000 C 
ATOM     22  C   UNL     1      -1.376  10.133  17.283  0.00  0.00    +0.000 C 
ATOM     23  C   UNL     1      -0.878  10.073  19.856  0.00  0.00    +0.000 C 
ENDBRANCH  14  15
ENDBRANCH   9  14
TORSDOF 3
ENDMDL
