MODEL 1
REMARK VINA RESULT:      -7.2      0.000      0.000
REMARK  Name = 
REMARK  7 active torsions:
REMARK  status: ('A' for Active; 'I' for Inactive)
REMARK    1  A    between atoms: C_2  and  C_3
REMARK    2  A    between atoms: C_3  and  C_4
REMARK    3  A    between atoms: C_8  and  O_9
REMARK    4  A    between atoms: N_11  and  C_12
REMARK    5  A    between atoms: C_12  and  C_13
REMARK    6  A    between atoms: C_13  and  N_14
REMARK    7  A    between atoms: N_14  and  C_15
REMARK                            x       y       z     vdW  Elec       q    Type
REMARK                         _______ _______ _______ _____ _____    ______ ____
ROOT
ATOM      1  O   UNL     1       4.911   7.095  16.937  0.00  0.00    +0.000 OA
ATOM      2  C   UNL     1       4.420   6.297  17.728  0.00  0.00    +0.000 C 
ATOM      3  N   UNL     1       5.171   5.449  18.514  0.00  0.00    +0.000 N 
ATOM      4  H   UNL     1       4.691   4.772  19.095  0.00  0.00    +0.000 HD
ENDROOT
BRANCH   2   5
ATOM      5  C   UNL     1       2.919   6.168  17.934  0.00  0.00    +0.000 C 
BRANCH   5   6
ATOM      6  C   UNL     1       2.475   4.766  18.273  0.00  0.00    +0.000 A 
ATOM      7  C   UNL     1       2.744   3.701  17.399  0.00  0.00    +0.000 A 
ATOM      8  C   UNL     1       2.358   2.398  17.726  0.00  0.00    +0.000 A 
ATOM      9  C   UNL     1       1.703   2.140  18.928  0.00  0.00    +0.000 A 
ATOM     10  C   UNL     1       1.441   3.193  19.799  0.00  0.00    +0.000 A 
ATOM     11  C   UNL     1       1.821   4.495  19.483  0.00  0.00    +0.000 A 
BRANCH  10  12
ATOM     12  O   UNL     1       0.808   2.987  20.989  0.00  0.00    +0.000 OA
ATOM     13  H   UNL     1       1.368   3.342  21.700  0.00  0.00    +0.000 HD
ENDBRANCH  10  12
ENDBRANCH   5   6
ENDBRANCH   2   5
BRANCH   3  14
ATOM     14  C   UNL     1       6.624   5.392  18.429  0.00  0.00    +0.000 C 
BRANCH  14  15
ATOM     15  C   UNL     1       7.099   4.521  17.254  0.00  0.00    +0.000 C 
BRANCH  15  16
ATOM     16  N   UNL     1       7.381   5.340  16.076  0.00  0.00    +0.000 N 
ATOM     17  H   UNL     1       7.147   6.320  16.214  0.00  0.00    +0.000 HD
BRANCH  16  18
ATOM     18  C   UNL     1       6.963   4.887  14.820  0.00  0.00    +0.000 A 
ATOM     19  C   UNL     1       7.749   5.194  13.698  0.00  0.00    +0.000 A 
ATOM     20  C   UNL     1       7.436   4.711  12.423  0.00  0.00    +0.000 A 
ATOM     21  C   UNL     1       6.333   3.880  12.254  0.00  0.00    +0.000 A 
ATOM     22  C   UNL     1       5.557   3.533  13.353  0.00  0.00    +0.000 A 
ATOM     23  C   UNL     1       5.872   4.027  14.625  0.00  0.00    +0.000 A 
ENDBRANCH  16  18
ENDBRANCH  15  16
ENDBRANCH  14  15
ENDBRANCH   3  14
TORSDOF 7
ENDMDL
MODEL 2
REMARK VINA RESULT:      -7.0      2.627      6.579
REMARK  Name = 
REMARK  7 active torsions:
REMARK  status: ('A' for Active; 'I' for Inactive)
REMARK    1  A    between atoms: C_2  and  C_3
REMARK    2  A    between atoms: C_3  and  C_4
REMARK    3  A    between atoms: C_8  and  O_9
REMARK    4  A    between atoms: N_11  and  C_12
REMARK    5  A    between atoms: C_12  and  C_13
REMARK    6  A    between atoms: C_13  and  N_14
REMARK    7  A    between atoms: N_14  and  C_15
REMARK                            x       y       z     vdW  Elec       q    Type
REMARK                         _______ _______ _______ _____ _____    ______ ____
ROOT
ATOM      1  O   UNL     1       1.831   4.095  17.231  0.00  0.00    +0.000 OA
ATOM      2  C   UNL     1       2.700   3.557  17.909  0.00  0.00    +0.000 C 
ATOM      3  N   UNL     1       2.588   3.362  19.270  0.00  0.00    +0.000 N 
ATOM      4  H   UNL     1       3.376   2.970  19.771  0.00  0.00    +0.000 HD
ENDROOT
BRANCH   2   5
ATOM      5  C   UNL     1       3.997   3.035  17.312  0.00  0.00    +0.000 C 
BRANCH   5   6
ATOM      6  C   UNL     1       5.080   4.082  17.214  0.00  0.00    +0.000 A 
ATOM      7  C   UNL     1       5.433   4.851  18.334  0.00  0.00    +0.000 A 
ATOM      8  C   UNL     1       6.454   5.802  18.251  0.00  0.00    +0.000 A 
ATOM      9  C   UNL     1       7.138   5.995  17.053  0.00  0.00    +0.000 A 
ATOM     10  C   UNL     1       6.795   5.230  15.943  0.00  0.00    +0.000 A 
ATOM     11  C   UNL     1       5.779   4.280  16.015  0.00  0.00    +0.000 A 
BRANCH  10  12
ATOM     12  O   UNL     1       7.441   5.379  14.751  0.00  0.00    +0.000 OA
ATOM     13  H   UNL     1       8.196   4.768  14.733  0.00  0.00    +0.000 HD
ENDBRANCH  10  12
ENDBRANCH   5   6
ENDBRANCH   2   5
BRANCH   3  14
ATOM     14  C   UNL     1       1.438   3.832  20.031  0.00  0.00    +0.000 C 
BRANCH  14  15
ATOM     15  C   UNL     1       1.807   4.986  20.977  0.00  0.00    +0.000 C 
BRANCH  15  16
ATOM     16  N   UNL     1       2.770   5.890  20.350  0.00  0.00    +0.000 N 
ATOM     17  H   UNL     1       3.553   6.114  20.958  0.00  0.00    +0.000 HD
BRANCH  16  18
ATOM     18  C   UNL     1       2.299   7.027  19.685  0.00  0.00    +0.000 A 
ATOM     19  C   UNL     1       1.560   7.975  20.412  0.00  0.00    +0.000 A 
ATOM     20  C   UNL     1       1.123   9.171  19.834  0.00  0.00    +0.000 A 
ATOM     21  C   UNL     1       1.447   9.455  18.511  0.00  0.00    +0.000 A 
ATOM     22  C   UNL     1       2.206   8.550  17.778  0.00  0.00    +0.000 A 
ATOM     23  C   UNL     1       2.634   7.350  18.361  0.00  0.00    +0.000 A 
ENDBRANCH  16  18
ENDBRANCH  15  16
ENDBRANCH  14  15
ENDBRANCH   3  14
TORSDOF 7
ENDMDL
MODEL 3
REMARK VINA RESULT:      -6.9      2.674      6.485
REMARK  Name = 
REMARK  7 active torsions:
REMARK  status: ('A' for Active; 'I' for Inactive)
REMARK    1  A    between atoms: C_2  and  C_3
REMARK    2  A    between atoms: C_3  and  C_4
REMARK    3  A    between atoms: C_8  and  O_9
REMARK    4  A    between atoms: N_11  and  C_12
REMARK    5  A    between atoms: C_12  and  C_13
REMARK    6  A    between atoms: C_13  and  N_14
REMARK    7  A    between atoms: N_14  and  C_15
REMARK                            x       y       z     vdW  Elec       q    Type
REMARK                         _______ _______ _______ _____ _____    ______ ____
ROOT
ATOM      1  O   UNL     1       1.809   4.022  17.372  0.00  0.00    +0.000 OA
ATOM      2  C   UNL     1       2.680   3.466  18.034  0.00  0.00    +0.000 C 
ATOM      3  N   UNL     1       2.567   3.225  19.387  0.00  0.00    +0.000 N 
ATOM      4  H   UNL     1       3.356   2.822  19.876  0.00  0.00    +0.000 HD
ENDROOT
BRANCH   2   5
ATOM      5  C   UNL     1       3.981   2.972  17.422  0.00  0.00    +0.000 C 
BRANCH   5   6
ATOM      6  C   UNL     1       5.065   4.022  17.381  0.00  0.00    +0.000 A 
ATOM      7  C   UNL     1       5.424   4.722  18.542  0.00  0.00    +0.000 A 
ATOM      8  C   UNL     1       6.447   5.675  18.511  0.00  0.00    +0.000 A 
ATOM      9  C   UNL     1       7.126   5.937  17.323  0.00  0.00    +0.000 A 
ATOM     10  C   UNL     1       6.776   5.239  16.171  0.00  0.00    +0.000 A 
ATOM     11  C   UNL     1       5.758   4.288  16.192  0.00  0.00    +0.000 A 
BRANCH  10  12
ATOM     12  O   UNL     1       7.416   5.458  14.987  0.00  0.00    +0.000 OA
ATOM     13  H   UNL     1       8.125   6.105  15.137  0.00  0.00    +0.000 HD
ENDBRANCH  10  12
ENDBRANCH   5   6
ENDBRANCH   2   5
BRANCH   3  14
ATOM     14  C   UNL     1       1.413   3.664  20.161  0.00  0.00    +0.000 C 
BRANCH  14  15
ATOM     15  C   UNL     1       1.689   4.978  20.911  0.00  0.00    +0.000 C 
BRANCH  15  16
ATOM     16  N   UNL     1       2.706   5.771  20.222  0.00  0.00    +0.000 N 
ATOM     17  H   UNL     1       3.579   5.825  20.739  0.00  0.00    +0.000 HD
BRANCH  16  18
ATOM     18  C   UNL     1       2.350   7.015  19.689  0.00  0.00    +0.000 A 
ATOM     19  C   UNL     1       2.658   7.286  18.346  0.00  0.00    +0.000 A 
ATOM     20  C   UNL     1       2.265   8.475  17.725  0.00  0.00    +0.000 A 
ATOM     21  C   UNL     1       1.524   9.412  18.438  0.00  0.00    +0.000 A 
ATOM     22  C   UNL     1       1.176   9.155  19.758  0.00  0.00    +0.000 A 
ATOM     23  C   UNL     1       1.579   7.965  20.377  0.00  0.00    +0.000 A 
ENDBRANCH  16  18
ENDBRANCH  15  16
ENDBRANCH  14  15
ENDBRANCH   3  14
TORSDOF 7
ENDMDL
MODEL 4
REMARK VINA RESULT:      -6.9      1.513      2.044
REMARK  Name = 
REMARK  7 active torsions:
REMARK  status: ('A' for Active; 'I' for Inactive)
REMARK    1  A    between atoms: C_2  and  C_3
REMARK    2  A    between atoms: C_3  and  C_4
REMARK    3  A    between atoms: C_8  and  O_9
REMARK    4  A    between atoms: N_11  and  C_12
REMARK    5  A    between atoms: C_12  and  C_13
REMARK    6  A    between atoms: C_13  and  N_14
REMARK    7  A    between atoms: N_14  and  C_15
REMARK                            x       y       z     vdW  Elec       q    Type
REMARK                         _______ _______ _______ _____ _____    ______ ____
ROOT
ATOM      1  O   UNL     1       4.481   5.225  18.801  0.00  0.00    +0.000 OA
ATOM      2  C   UNL     1       5.182   4.228  18.667  0.00  0.00    +0.000 C 
ATOM      3  N   UNL     1       6.494   4.274  18.245  0.00  0.00    +0.000 N 
ATOM      4  H   UNL     1       6.986   3.402  18.095  0.00  0.00    +0.000 HD
ENDROOT
BRANCH   2   5
ATOM      5  C   UNL     1       4.674   2.826  18.966  0.00  0.00    +0.000 C 
BRANCH   5   6
ATOM      6  C   UNL     1       3.220   2.784  19.371  0.00  0.00    +0.000 A 
ATOM      7  C   UNL     1       2.212   2.708  18.398  0.00  0.00    +0.000 A 
ATOM      8  C   UNL     1       0.867   2.642  18.773  0.00  0.00    +0.000 A 
ATOM      9  C   UNL     1       0.512   2.646  20.120  0.00  0.00    +0.000 A 
ATOM     10  C   UNL     1       1.510   2.715  21.086  0.00  0.00    +0.000 A 
ATOM     11  C   UNL     1       2.854   2.781  20.723  0.00  0.00    +0.000 A 
BRANCH  10  12
ATOM     12  O   UNL     1       1.211   2.715  22.416  0.00  0.00    +0.000 OA
ATOM     13  H   UNL     1       1.961   2.331  22.900  0.00  0.00    +0.000 HD
ENDBRANCH  10  12
ENDBRANCH   5   6
ENDBRANCH   2   5
BRANCH   3  14
ATOM     14  C   UNL     1       7.146   5.520  17.867  0.00  0.00    +0.000 C 
BRANCH  14  15
ATOM     15  C   UNL     1       6.676   6.022  16.492  0.00  0.00    +0.000 C 
BRANCH  15  16
ATOM     16  N   UNL     1       7.600   5.604  15.439  0.00  0.00    +0.000 N 
ATOM     17  H   UNL     1       8.222   6.351  15.141  0.00  0.00    +0.000 HD
BRANCH  16  18
ATOM     18  C   UNL     1       7.102   4.889  14.344  0.00  0.00    +0.000 A 
ATOM     19  C   UNL     1       5.888   4.199  14.486  0.00  0.00    +0.000 A 
ATOM     20  C   UNL     1       5.291   3.527  13.415  0.00  0.00    +0.000 A 
ATOM     21  C   UNL     1       5.892   3.560  12.161  0.00  0.00    +0.000 A 
ATOM     22  C   UNL     1       7.077   4.264  11.983  0.00  0.00    +0.000 A 
ATOM     23  C   UNL     1       7.673   4.928  13.063  0.00  0.00    +0.000 A 
ENDBRANCH  16  18
ENDBRANCH  15  16
ENDBRANCH  14  15
ENDBRANCH   3  14
TORSDOF 7
ENDMDL
MODEL 5
REMARK VINA RESULT:      -6.8      2.516      6.403
REMARK  Name = 
REMARK  7 active torsions:
REMARK  status: ('A' for Active; 'I' for Inactive)
REMARK    1  A    between atoms: C_2  and  C_3
REMARK    2  A    between atoms: C_3  and  C_4
REMARK    3  A    between atoms: C_8  and  O_9
REMARK    4  A    between atoms: N_11  and  C_12
REMARK    5  A    between atoms: C_12  and  C_13
REMARK    6  A    between atoms: C_13  and  N_14
REMARK    7  A    between atoms: N_14  and  C_15
REMARK                            x       y       z     vdW  Elec       q    Type
REMARK                         _______ _______ _______ _____ _____    ______ ____
ROOT
ATOM      1  O   UNL     1       5.955   3.382  15.746  0.00  0.00    +0.000 OA
ATOM      2  C   UNL     1       6.703   4.291  15.405  0.00  0.00    +0.000 C 
ATOM      3  N   UNL     1       7.591   4.906  16.262  0.00  0.00    +0.000 N 
ATOM      4  H   UNL     1       8.128   5.694  15.922  0.00  0.00    +0.000 HD
ENDROOT
BRANCH   2   5
ATOM      5  C   UNL     1       6.737   4.832  13.984  0.00  0.00    +0.000 C 
BRANCH   5   6
ATOM      6  C   UNL     1       6.098   3.911  12.972  0.00  0.00    +0.000 A 
ATOM      7  C   UNL     1       4.788   4.141  12.525  0.00  0.00    +0.000 A 
ATOM      8  C   UNL     1       4.206   3.305  11.569  0.00  0.00    +0.000 A 
ATOM      9  C   UNL     1       4.923   2.232  11.044  0.00  0.00    +0.000 A 
ATOM     10  C   UNL     1       6.224   2.005  11.481  0.00  0.00    +0.000 A 
ATOM     11  C   UNL     1       6.814   2.833  12.434  0.00  0.00    +0.000 A 
BRANCH  10  12
ATOM     12  O   UNL     1       6.967   0.972  10.991  0.00  0.00    +0.000 OA
ATOM     13  H   UNL     1       7.217   0.395  11.732  0.00  0.00    +0.000 HD
ENDBRANCH  10  12
ENDBRANCH   5   6
ENDBRANCH   2   5
BRANCH   3  14
ATOM     14  C   UNL     1       7.676   4.558  17.674  0.00  0.00    +0.000 C 
BRANCH  14  15
ATOM     15  C   UNL     1       6.437   5.022  18.457  0.00  0.00    +0.000 C 
BRANCH  15  16
ATOM     16  N   UNL     1       5.618   3.882  18.865  0.00  0.00    +0.000 N 
ATOM     17  H   UNL     1       6.034   2.989  18.613  0.00  0.00    +0.000 HD
BRANCH  16  18
ATOM     18  C   UNL     1       4.246   3.900  18.592  0.00  0.00    +0.000 A 
ATOM     19  C   UNL     1       3.602   5.140  18.455  0.00  0.00    +0.000 A 
ATOM     20  C   UNL     1       2.251   5.235  18.107  0.00  0.00    +0.000 A 
ATOM     21  C   UNL     1       1.521   4.078  17.859  0.00  0.00    +0.000 A 
ATOM     22  C   UNL     1       2.141   2.838  17.954  0.00  0.00    +0.000 A 
ATOM     23  C   UNL     1       3.493   2.749  18.311  0.00  0.00    +0.000 A 
ENDBRANCH  16  18
ENDBRANCH  15  16
ENDBRANCH  14  15
ENDBRANCH   3  14
TORSDOF 7
ENDMDL
MODEL 6
REMARK VINA RESULT:      -6.8      2.533      6.451
REMARK  Name = 
REMARK  7 active torsions:
REMARK  status: ('A' for Active; 'I' for Inactive)
REMARK    1  A    between atoms: C_2  and  C_3
REMARK    2  A    between atoms: C_3  and  C_4
REMARK    3  A    between atoms: C_8  and  O_9
REMARK    4  A    between atoms: N_11  and  C_12
REMARK    5  A    between atoms: C_12  and  C_13
REMARK    6  A    between atoms: C_13  and  N_14
REMARK    7  A    between atoms: N_14  and  C_15
REMARK                            x       y       z     vdW  Elec       q    Type
REMARK                         _______ _______ _______ _____ _____    ______ ____
ROOT
ATOM      1  O   UNL     1       6.026   3.291  15.708  0.00  0.00    +0.000 OA
ATOM      2  C   UNL     1       6.709   4.252  15.373  0.00  0.00    +0.000 C 
ATOM      3  N   UNL     1       7.542   4.929  16.239  0.00  0.00    +0.000 N 
ATOM      4  H   UNL     1       8.023   5.755  15.904  0.00  0.00    +0.000 HD
ENDROOT
BRANCH   2   5
ATOM      5  C   UNL     1       6.715   4.796  13.953  0.00  0.00    +0.000 C 
BRANCH   5   6
ATOM      6  C   UNL     1       6.051   3.880  12.954  0.00  0.00    +0.000 A 
ATOM      7  C   UNL     1       4.732   4.117  12.536  0.00  0.00    +0.000 A 
ATOM      8  C   UNL     1       4.125   3.285  11.591  0.00  0.00    +0.000 A 
ATOM      9  C   UNL     1       4.826   2.211  11.047  0.00  0.00    +0.000 A 
ATOM     10  C   UNL     1       6.136   1.979  11.454  0.00  0.00    +0.000 A 
ATOM     11  C   UNL     1       6.750   2.801  12.396  0.00  0.00    +0.000 A 
BRANCH  10  12
ATOM     12  O   UNL     1       6.864   0.944  10.946  0.00  0.00    +0.000 OA
ATOM     13  H   UNL     1       7.228   0.431  11.686  0.00  0.00    +0.000 HD
ENDBRANCH  10  12
ENDBRANCH   5   6
ENDBRANCH   2   5
BRANCH   3  14
ATOM     14  C   UNL     1       7.640   4.587  17.651  0.00  0.00    +0.000 C 
BRANCH  14  15
ATOM     15  C   UNL     1       6.398   5.032  18.439  0.00  0.00    +0.000 C 
BRANCH  15  16
ATOM     16  N   UNL     1       5.559   3.886  18.786  0.00  0.00    +0.000 N 
ATOM     17  H   UNL     1       5.993   2.997  18.552  0.00  0.00    +0.000 HD
BRANCH  16  18
ATOM     18  C   UNL     1       4.206   3.903  18.428  0.00  0.00    +0.000 A 
ATOM     19  C   UNL     1       3.498   2.691  18.415  0.00  0.00    +0.000 A 
ATOM     20  C   UNL     1       2.127   2.640  18.143  0.00  0.00    +0.000 A 
ATOM     21  C   UNL     1       1.429   3.820  17.905  0.00  0.00    +0.000 A 
ATOM     22  C   UNL     1       2.098   5.037  17.946  0.00  0.00    +0.000 A 
ATOM     23  C   UNL     1       3.473   5.079  18.211  0.00  0.00    +0.000 A 
ENDBRANCH  16  18
ENDBRANCH  15  16
ENDBRANCH  14  15
ENDBRANCH   3  14
TORSDOF 7
ENDMDL
MODEL 7
REMARK VINA RESULT:      -6.8      2.825      6.551
REMARK  Name = 
REMARK  7 active torsions:
REMARK  status: ('A' for Active; 'I' for Inactive)
REMARK    1  A    between atoms: C_2  and  C_3
REMARK    2  A    between atoms: C_3  and  C_4
REMARK    3  A    between atoms: C_8  and  O_9
REMARK    4  A    between atoms: N_11  and  C_12
REMARK    5  A    between atoms: C_12  and  C_13
REMARK    6  A    between atoms: C_13  and  N_14
REMARK    7  A    between atoms: N_14  and  C_15
REMARK                            x       y       z     vdW  Elec       q    Type
REMARK                         _______ _______ _______ _____ _____    ______ ____
ROOT
ATOM      1  O   UNL     1       2.793   3.968  17.276  0.00  0.00    +0.000 OA
ATOM      2  C   UNL     1       3.685   4.810  17.284  0.00  0.00    +0.000 C 
ATOM      3  N   UNL     1       3.516   6.090  17.768  0.00  0.00    +0.000 N 
ATOM      4  H   UNL     1       4.281   6.747  17.679  0.00  0.00    +0.000 HD
ENDROOT
BRANCH   2   5
ATOM      5  C   UNL     1       5.085   4.522  16.765  0.00  0.00    +0.000 C 
BRANCH   5   6
ATOM      6  C   UNL     1       6.157   5.348  17.435  0.00  0.00    +0.000 A 
ATOM      7  C   UNL     1       6.646   6.513  16.824  0.00  0.00    +0.000 A 
ATOM      8  C   UNL     1       7.619   7.293  17.456  0.00  0.00    +0.000 A 
ATOM      9  C   UNL     1       8.114   6.923  18.704  0.00  0.00    +0.000 A 
ATOM     10  C   UNL     1       7.627   5.771  19.314  0.00  0.00    +0.000 A 
ATOM     11  C   UNL     1       6.657   4.987  18.693  0.00  0.00    +0.000 A 
BRANCH  10  12
ATOM     12  O   UNL     1       8.076   5.373  20.539  0.00  0.00    +0.000 OA
ATOM     13  H   UNL     1       8.914   4.897  20.418  0.00  0.00    +0.000 HD
ENDBRANCH  10  12
ENDBRANCH   5   6
ENDBRANCH   2   5
BRANCH   3  14
ATOM     14  C   UNL     1       2.234   6.570  18.267  0.00  0.00    +0.000 C 
BRANCH  14  15
ATOM     15  C   UNL     1       2.369   7.252  19.638  0.00  0.00    +0.000 C 
BRANCH  15  16
ATOM     16  N   UNL     1       1.865   6.388  20.704  0.00  0.00    +0.000 N 
ATOM     17  H   UNL     1       2.238   6.632  21.618  0.00  0.00    +0.000 HD
BRANCH  16  18
ATOM     18  C   UNL     1       1.860   5.002  20.509  0.00  0.00    +0.000 A 
ATOM     19  C   UNL     1       3.008   4.270  20.852  0.00  0.00    +0.000 A 
ATOM     20  C   UNL     1       3.050   2.876  20.757  0.00  0.00    +0.000 A 
ATOM     21  C   UNL     1       1.919   2.181  20.340  0.00  0.00    +0.000 A 
ATOM     22  C   UNL     1       0.758   2.877  20.027  0.00  0.00    +0.000 A 
ATOM     23  C   UNL     1       0.727   4.275  20.116  0.00  0.00    +0.000 A 
ENDBRANCH  16  18
ENDBRANCH  15  16
ENDBRANCH  14  15
ENDBRANCH   3  14
TORSDOF 7
ENDMDL
MODEL 8
REMARK VINA RESULT:      -6.8      1.192      1.639
REMARK  Name = 
REMARK  7 active torsions:
REMARK  status: ('A' for Active; 'I' for Inactive)
REMARK    1  A    between atoms: C_2  and  C_3
REMARK    2  A    between atoms: C_3  and  C_4
REMARK    3  A    between atoms: C_8  and  O_9
REMARK    4  A    between atoms: N_11  and  C_12
REMARK    5  A    between atoms: C_12  and  C_13
REMARK    6  A    between atoms: C_13  and  N_14
REMARK    7  A    between atoms: N_14  and  C_15
REMARK                            x       y       z     vdW  Elec       q    Type
REMARK                         _______ _______ _______ _____ _____    ______ ____
ROOT
ATOM      1  O   UNL     1       5.129   5.550  19.454  0.00  0.00    +0.000 OA
ATOM      2  C   UNL     1       4.317   6.198  18.802  0.00  0.00    +0.000 C 
ATOM      3  N   UNL     1       4.638   6.867  17.640  0.00  0.00    +0.000 N 
ATOM      4  H   UNL     1       3.928   7.435  17.194  0.00  0.00    +0.000 HD
ENDROOT
BRANCH   2   5
ATOM      5  C   UNL     1       2.856   6.322  19.206  0.00  0.00    +0.000 C 
BRANCH   5   6
ATOM      6  C   UNL     1       2.136   4.997  19.280  0.00  0.00    +0.000 A 
ATOM      7  C   UNL     1       1.796   4.304  18.109  0.00  0.00    +0.000 A 
ATOM      8  C   UNL     1       1.154   3.064  18.177  0.00  0.00    +0.000 A 
ATOM      9  C   UNL     1       0.847   2.500  19.413  0.00  0.00    +0.000 A 
ATOM     10  C   UNL     1       1.189   3.182  20.576  0.00  0.00    +0.000 A 
ATOM     11  C   UNL     1       1.829   4.418  20.519  0.00  0.00    +0.000 A 
BRANCH  10  12
ATOM     12  O   UNL     1       0.915   2.666  21.808  0.00  0.00    +0.000 OA
ATOM     13  H   UNL     1       0.051   2.224  21.770  0.00  0.00    +0.000 HD
ENDBRANCH  10  12
ENDBRANCH   5   6
ENDBRANCH   2   5
BRANCH   3  14
ATOM     14  C   UNL     1       5.996   6.904  17.114  0.00  0.00    +0.000 C 
BRANCH  14  15
ATOM     15  C   UNL     1       6.481   5.513  16.674  0.00  0.00    +0.000 C 
BRANCH  15  16
ATOM     16  N   UNL     1       7.404   5.613  15.544  0.00  0.00    +0.000 N 
ATOM     17  H   UNL     1       7.696   6.569  15.359  0.00  0.00    +0.000 HD
BRANCH  16  18
ATOM     18  C   UNL     1       7.102   4.934  14.359  0.00  0.00    +0.000 A 
ATOM     19  C   UNL     1       5.987   4.082  14.337  0.00  0.00    +0.000 A 
ATOM     20  C   UNL     1       5.580   3.430  13.168  0.00  0.00    +0.000 A 
ATOM     21  C   UNL     1       6.274   3.646  11.982  0.00  0.00    +0.000 A 
ATOM     22  C   UNL     1       7.362   4.511  11.968  0.00  0.00    +0.000 A 
ATOM     23  C   UNL     1       7.768   5.154  13.144  0.00  0.00    +0.000 A 
ENDBRANCH  16  18
ENDBRANCH  15  16
ENDBRANCH  14  15
ENDBRANCH   3  14
TORSDOF 7
ENDMDL
MODEL 9
REMARK VINA RESULT:      -6.8      4.117      5.609
REMARK  Name = 
REMARK  7 active torsions:
REMARK  status: ('A' for Active; 'I' for Inactive)
REMARK    1  A    between atoms: C_2  and  C_3
REMARK    2  A    between atoms: C_3  and  C_4
REMARK    3  A    between atoms: C_8  and  O_9
REMARK    4  A    between atoms: N_11  and  C_12
REMARK    5  A    between atoms: C_12  and  C_13
REMARK    6  A    between atoms: C_13  and  N_14
REMARK    7  A    between atoms: N_14  and  C_15
REMARK                            x       y       z     vdW  Elec       q    Type
REMARK                         _______ _______ _______ _____ _____    ______ ____
ROOT
ATOM      1  O   UNL     1       5.567   5.438  19.096  0.00  0.00    +0.000 OA
ATOM      2  C   UNL     1       5.214   6.042  18.089  0.00  0.00    +0.000 C 
ATOM      3  N   UNL     1       6.068   6.807  17.323  0.00  0.00    +0.000 N 
ATOM      4  H   UNL     1       5.687   7.328  16.544  0.00  0.00    +0.000 HD
ENDROOT
BRANCH   2   5
ATOM      5  C   UNL     1       3.785   5.999  17.569  0.00  0.00    +0.000 C 
BRANCH   5   6
ATOM      6  C   UNL     1       3.055   4.723  17.916  0.00  0.00    +0.000 A 
ATOM      7  C   UNL     1       3.369   3.521  17.264  0.00  0.00    +0.000 A 
ATOM      8  C   UNL     1       2.713   2.335  17.604  0.00  0.00    +0.000 A 
ATOM      9  C   UNL     1       1.739   2.332  18.600  0.00  0.00    +0.000 A 
ATOM     10  C   UNL     1       1.430   3.521  19.252  0.00  0.00    +0.000 A 
ATOM     11  C   UNL     1       2.078   4.709  18.921  0.00  0.00    +0.000 A 
BRANCH  10  12
ATOM     12  O   UNL     1       0.489   3.566  20.238  0.00  0.00    +0.000 OA
ATOM     13  H   UNL     1      -0.250   2.989  19.983  0.00  0.00    +0.000 HD
ENDBRANCH  10  12
ENDBRANCH   5   6
ENDBRANCH   2   5
BRANCH   3  14
ATOM     14  C   UNL     1       7.465   7.007  17.683  0.00  0.00    +0.000 C 
BRANCH  14  15
ATOM     15  C   UNL     1       7.833   8.498  17.755  0.00  0.00    +0.000 C 
BRANCH  15  16
ATOM     16  N   UNL     1       8.776   8.753  18.844  0.00  0.00    +0.000 N 
ATOM     17  H   UNL     1       8.510   8.292  19.710  0.00  0.00    +0.000 HD
BRANCH  16  18
ATOM     18  C   UNL     1       9.207  10.064  19.075  0.00  0.00    +0.000 A 
ATOM     19  C   UNL     1       9.308  10.942  17.984  0.00  0.00    +0.000 A 
ATOM     20  C   UNL     1       9.657  12.286  18.149  0.00  0.00    +0.000 A 
ATOM     21  C   UNL     1       9.887  12.786  19.427  0.00  0.00    +0.000 A 
ATOM     22  C   UNL     1       9.761  11.946  20.528  0.00  0.00    +0.000 A 
ATOM     23  C   UNL     1       9.418  10.600  20.354  0.00  0.00    +0.000 A 
ENDBRANCH  16  18
ENDBRANCH  15  16
ENDBRANCH  14  15
ENDBRANCH   3  14
TORSDOF 7
ENDMDL
