MODEL 1
REMARK VINA RESULT:      -8.4      0.000      0.000
REMARK  Name = 
REMARK  5 active torsions:
REMARK  status: ('A' for Active; 'I' for Inactive)
REMARK    1  A    between atoms: C_3  and  N_4
REMARK    2  A    between atoms: N_4  and  C_5
REMARK    3  A    between atoms: C_5  and  C_6
REMARK    4  A    between atoms: C_12  and  C_13
REMARK    5  A    between atoms: C_16  and  N_17
REMARK                            x       y       z     vdW  Elec       q    Type
REMARK                         _______ _______ _______ _____ _____    ______ ____
ROOT
ATOM      1  O   UNL     1       6.561   4.038  15.727  0.00  0.00    +0.000 OA
ATOM      2  C   UNL     1       5.704   4.689  16.269  0.00  0.00    +0.000 C 
ATOM      3  C   UNL     1       4.354   4.481  16.867  0.00  0.00    +0.000 C 
ATOM      4  C   UNL     1       4.332   5.769  17.302  0.00  0.00    +0.000 C 
ATOM      5  C   UNL     1       5.659   6.088  16.791  0.00  0.00    +0.000 C 
ATOM      6  O   UNL     1       6.465   6.982  16.799  0.00  0.00    +0.000 OA
ENDROOT
BRANCH   4   7
ATOM      7  C   UNL     1       3.426   6.647  18.062  0.00  0.00    +0.000 A 
ATOM      8  C   UNL     1       2.956   6.227  19.301  0.00  0.00    +0.000 A 
ATOM      9  C   UNL     1       2.189   7.091  20.082  0.00  0.00    +0.000 A 
ATOM     10  C   UNL     1       1.827   8.371  19.637  0.00  0.00    +0.000 A 
ATOM     11  C   UNL     1       2.240   8.732  18.347  0.00  0.00    +0.000 A 
ATOM     12  C   UNL     1       3.046   7.891  17.569  0.00  0.00    +0.000 A 
BRANCH  10  13
ATOM     13  N   UNL     1       1.065   9.197  20.430  0.00  0.00    +0.000 N 
ATOM     14  C   UNL     1       0.971   9.002  21.887  0.00  0.00    +0.000 C 
ATOM     15  C   UNL     1      -0.485   9.227  22.326  0.00  0.00    +0.000 C 
ATOM     16  O   UNL     1      -0.975  10.513  21.905  0.00  0.00    +0.000 OA
ATOM     17  C   UNL     1      -0.888  10.640  20.473  0.00  0.00    +0.000 C 
ATOM     18  C   UNL     1       0.562  10.498  19.980  0.00  0.00    +0.000 C 
ENDBRANCH  10  13
ENDBRANCH   4   7
BRANCH   3  19
ATOM     19  N   UNL     1       3.576   3.416  16.852  0.00  0.00    +0.000 N 
ATOM     20  H   UNL     1       3.425   2.937  15.958  0.00  0.00    +0.000 HD
BRANCH  19  21
ATOM     21  C   UNL     1       3.765   2.339  17.839  0.00  0.00    +0.000 C 
BRANCH  21  22
ATOM     22  C   UNL     1       2.913   2.602  19.067  0.00  0.00    +0.000 A 
ATOM     23  C   UNL     1       1.546   2.845  18.933  0.00  0.00    +0.000 A 
ATOM     24  C   UNL     1       0.785   3.057  20.077  0.00  0.00    +0.000 A 
ATOM     25  C   UNL     1       1.400   3.021  21.322  0.00  0.00    +0.000 A 
ATOM     26  C   UNL     1       2.763   2.782  21.370  0.00  0.00    +0.000 A 
ATOM     27  N   UNL     1       3.533   2.580  20.278  0.00  0.00    +0.000 NA
ENDBRANCH  21  22
ENDBRANCH  19  21
ENDBRANCH   3  19
TORSDOF 5
ENDMDL
MODEL 2
REMARK VINA RESULT:      -8.4      1.050      1.594
REMARK  Name = 
REMARK  5 active torsions:
REMARK  status: ('A' for Active; 'I' for Inactive)
REMARK    1  A    between atoms: C_3  and  N_4
REMARK    2  A    between atoms: N_4  and  C_5
REMARK    3  A    between atoms: C_5  and  C_6
REMARK    4  A    between atoms: C_12  and  C_13
REMARK    5  A    between atoms: C_16  and  N_17
REMARK                            x       y       z     vdW  Elec       q    Type
REMARK                         _______ _______ _______ _____ _____    ______ ____
ROOT
ATOM      1  O   UNL     1       7.768   4.373  16.604  0.00  0.00    +0.000 OA
ATOM      2  C   UNL     1       6.747   4.914  16.946  0.00  0.00    +0.000 C 
ATOM      3  C   UNL     1       5.437   4.545  17.557  0.00  0.00    +0.000 C 
ATOM      4  C   UNL     1       5.091   5.857  17.641  0.00  0.00    +0.000 C 
ATOM      5  C   UNL     1       6.345   6.347  17.085  0.00  0.00    +0.000 C 
ATOM      6  O   UNL     1       6.924   7.381  16.872  0.00  0.00    +0.000 OA
ENDROOT
BRANCH   4   7
ATOM      7  C   UNL     1       3.953   6.654  18.133  0.00  0.00    +0.000 A 
ATOM      8  C   UNL     1       3.375   6.327  19.355  0.00  0.00    +0.000 A 
ATOM      9  C   UNL     1       2.373   7.138  19.887  0.00  0.00    +0.000 A 
ATOM     10  C   UNL     1       1.885   8.260  19.203  0.00  0.00    +0.000 A 
ATOM     11  C   UNL     1       2.423   8.512  17.934  0.00  0.00    +0.000 A 
ATOM     12  C   UNL     1       3.460   7.732  17.406  0.00  0.00    +0.000 A 
BRANCH  10  13
ATOM     13  N   UNL     1       0.891   9.036  19.753  0.00  0.00    +0.000 N 
ATOM     14  C   UNL     1       0.046   9.916  18.927  0.00  0.00    +0.000 C 
ATOM     15  C   UNL     1      -0.158  11.247  19.668  0.00  0.00    +0.000 C 
ATOM     16  O   UNL     1      -0.693  11.044  20.989  0.00  0.00    +0.000 OA
ATOM     17  C   UNL     1       0.183  10.203  21.762  0.00  0.00    +0.000 C 
ATOM     18  C   UNL     1       0.367   8.824  21.106  0.00  0.00    +0.000 C 
ENDBRANCH  10  13
ENDBRANCH   4   7
BRANCH   3  19
ATOM     19  N   UNL     1       4.925   3.356  17.807  0.00  0.00    +0.000 N 
ATOM     20  H   UNL     1       5.101   2.935  18.725  0.00  0.00    +0.000 HD
BRANCH  19  21
ATOM     21  C   UNL     1       3.507   3.077  17.520  0.00  0.00    +0.000 C 
BRANCH  21  22
ATOM     22  C   UNL     1       2.711   3.041  18.810  0.00  0.00    +0.000 A 
ATOM     23  C   UNL     1       3.324   2.651  20.001  0.00  0.00    +0.000 A 
ATOM     24  C   UNL     1       2.578   2.653  21.175  0.00  0.00    +0.000 A 
ATOM     25  C   UNL     1       1.245   3.041  21.134  0.00  0.00    +0.000 A 
ATOM     26  C   UNL     1       0.708   3.406  19.911  0.00  0.00    +0.000 A 
ATOM     27  N   UNL     1       1.402   3.408  18.752  0.00  0.00    +0.000 NA
ENDBRANCH  21  22
ENDBRANCH  19  21
ENDBRANCH   3  19
TORSDOF 5
ENDMDL
MODEL 3
REMARK VINA RESULT:      -8.3      0.789      1.528
REMARK  Name = 
REMARK  5 active torsions:
REMARK  status: ('A' for Active; 'I' for Inactive)
REMARK    1  A    between atoms: C_3  and  N_4
REMARK    2  A    between atoms: N_4  and  C_5
REMARK    3  A    between atoms: C_5  and  C_6
REMARK    4  A    between atoms: C_12  and  C_13
REMARK    5  A    between atoms: C_16  and  N_17
REMARK                            x       y       z     vdW  Elec       q    Type
REMARK                         _______ _______ _______ _____ _____    ______ ____
ROOT
ATOM      1  O   UNL     1       6.479   3.851  15.393  0.00  0.00    +0.000 OA
ATOM      2  C   UNL     1       5.699   4.445  16.094  0.00  0.00    +0.000 C 
ATOM      3  C   UNL     1       5.034   4.276  17.419  0.00  0.00    +0.000 C 
ATOM      4  C   UNL     1       4.495   5.520  17.323  0.00  0.00    +0.000 C 
ATOM      5  C   UNL     1       5.116   5.820  16.039  0.00  0.00    +0.000 C 
ATOM      6  O   UNL     1       5.240   6.728  15.259  0.00  0.00    +0.000 OA
ENDROOT
BRANCH   4   7
ATOM      7  C   UNL     1       3.640   6.402  18.136  0.00  0.00    +0.000 A 
ATOM      8  C   UNL     1       3.266   7.641  17.628  0.00  0.00    +0.000 A 
ATOM      9  C   UNL     1       2.368   8.440  18.335  0.00  0.00    +0.000 A 
ATOM     10  C   UNL     1       1.858   8.055  19.584  0.00  0.00    +0.000 A 
ATOM     11  C   UNL     1       2.323   6.844  20.112  0.00  0.00    +0.000 A 
ATOM     12  C   UNL     1       3.191   6.012  19.393  0.00  0.00    +0.000 A 
BRANCH  10  13
ATOM     13  N   UNL     1       0.978   8.870  20.259  0.00  0.00    +0.000 N 
ATOM     14  C   UNL     1       0.589  10.191  19.738  0.00  0.00    +0.000 C 
ATOM     15  C   UNL     1       0.540  11.190  20.905  0.00  0.00    +0.000 C 
ATOM     16  O   UNL     1      -0.325  10.734  21.961  0.00  0.00    +0.000 OA
ATOM     17  C   UNL     1       0.116   9.454  22.453  0.00  0.00    +0.000 C 
ATOM     18  C   UNL     1       0.114   8.390  21.343  0.00  0.00    +0.000 C 
ENDBRANCH  10  13
ENDBRANCH   4   7
BRANCH   3  19
ATOM     19  N   UNL     1       5.020   3.238  18.232  0.00  0.00    +0.000 N 
ATOM     20  H   UNL     1       5.202   3.399  19.228  0.00  0.00    +0.000 HD
BRANCH  19  21
ATOM     21  C   UNL     1       3.906   2.274  18.195  0.00  0.00    +0.000 C 
BRANCH  21  22
ATOM     22  C   UNL     1       2.918   2.576  19.305  0.00  0.00    +0.000 A 
ATOM     23  C   UNL     1       1.592   2.883  18.999  0.00  0.00    +0.000 A 
ATOM     24  C   UNL     1       0.701   3.130  20.038  0.00  0.00    +0.000 A 
ATOM     25  C   UNL     1       1.150   3.064  21.351  0.00  0.00    +0.000 A 
ATOM     26  C   UNL     1       2.483   2.761  21.572  0.00  0.00    +0.000 A 
ATOM     27  N   UNL     1       3.376   2.524  20.586  0.00  0.00    +0.000 NA
ENDBRANCH  21  22
ENDBRANCH  19  21
ENDBRANCH   3  19
TORSDOF 5
ENDMDL
MODEL 4
REMARK VINA RESULT:      -8.2      0.851      1.133
REMARK  Name = 
REMARK  5 active torsions:
REMARK  status: ('A' for Active; 'I' for Inactive)
REMARK    1  A    between atoms: C_3  and  N_4
REMARK    2  A    between atoms: N_4  and  C_5
REMARK    3  A    between atoms: C_5  and  C_6
REMARK    4  A    between atoms: C_12  and  C_13
REMARK    5  A    between atoms: C_16  and  N_17
REMARK                            x       y       z     vdW  Elec       q    Type
REMARK                         _______ _______ _______ _____ _____    ______ ____
ROOT
ATOM      1  O   UNL     1       6.438   3.751  15.173  0.00  0.00    +0.000 OA
ATOM      2  C   UNL     1       5.626   4.347  15.835  0.00  0.00    +0.000 C 
ATOM      3  C   UNL     1       4.741   4.098  17.009  0.00  0.00    +0.000 C 
ATOM      4  C   UNL     1       4.366   5.405  17.022  0.00  0.00    +0.000 C 
ATOM      5  C   UNL     1       5.216   5.783  15.901  0.00  0.00    +0.000 C 
ATOM      6  O   UNL     1       5.566   6.760  15.291  0.00  0.00    +0.000 OA
ENDROOT
BRANCH   4   7
ATOM      7  C   UNL     1       3.495   6.280  17.825  0.00  0.00    +0.000 A 
ATOM      8  C   UNL     1       3.243   5.951  19.152  0.00  0.00    +0.000 A 
ATOM      9  C   UNL     1       2.513   6.826  19.958  0.00  0.00    +0.000 A 
ATOM     10  C   UNL     1       1.975   8.021  19.457  0.00  0.00    +0.000 A 
ATOM     11  C   UNL     1       2.169   8.281  18.095  0.00  0.00    +0.000 A 
ATOM     12  C   UNL     1       2.936   7.433  17.285  0.00  0.00    +0.000 A 
BRANCH  10  13
ATOM     13  N   UNL     1       1.255   8.859  20.277  0.00  0.00    +0.000 N 
ATOM     14  C   UNL     1       1.112   8.598  21.720  0.00  0.00    +0.000 C 
ATOM     15  C   UNL     1      -0.334   8.908  22.140  0.00  0.00    +0.000 C 
ATOM     16  O   UNL     1      -0.719  10.246  21.777  0.00  0.00    +0.000 OA
ATOM     17  C   UNL     1      -0.588  10.439  20.356  0.00  0.00    +0.000 C 
ATOM     18  C   UNL     1       0.859  10.216  19.886  0.00  0.00    +0.000 C 
ENDBRANCH  10  13
ENDBRANCH   4   7
BRANCH   3  19
ATOM     19  N   UNL     1       4.479   2.975  17.649  0.00  0.00    +0.000 N 
ATOM     20  H   UNL     1       4.823   2.871  18.609  0.00  0.00    +0.000 HD
BRANCH  19  21
ATOM     21  C   UNL     1       3.112   2.426  17.667  0.00  0.00    +0.000 C 
BRANCH  21  22
ATOM     22  C   UNL     1       2.482   2.641  19.029  0.00  0.00    +0.000 A 
ATOM     23  C   UNL     1       3.262   2.558  20.183  0.00  0.00    +0.000 A 
ATOM     24  C   UNL     1       2.663   2.786  21.418  0.00  0.00    +0.000 A 
ATOM     25  C   UNL     1       1.310   3.092  21.473  0.00  0.00    +0.000 A 
ATOM     26  C   UNL     1       0.603   3.148  20.284  0.00  0.00    +0.000 A 
ATOM     27  N   UNL     1       1.151   2.923  19.069  0.00  0.00    +0.000 NA
ENDBRANCH  21  22
ENDBRANCH  19  21
ENDBRANCH   3  19
TORSDOF 5
ENDMDL
MODEL 5
REMARK VINA RESULT:      -8.1      0.802      1.556
REMARK  Name = 
REMARK  5 active torsions:
REMARK  status: ('A' for Active; 'I' for Inactive)
REMARK    1  A    between atoms: C_3  and  N_4
REMARK    2  A    between atoms: N_4  and  C_5
REMARK    3  A    between atoms: C_5  and  C_6
REMARK    4  A    between atoms: C_12  and  C_13
REMARK    5  A    between atoms: C_16  and  N_17
REMARK                            x       y       z     vdW  Elec       q    Type
REMARK                         _______ _______ _______ _____ _____    ______ ____
ROOT
ATOM      1  O   UNL     1       6.918   4.060  16.637  0.00  0.00    +0.000 OA
ATOM      2  C   UNL     1       6.011   4.765  17.001  0.00  0.00    +0.000 C 
ATOM      3  C   UNL     1       4.537   4.674  17.205  0.00  0.00    +0.000 C 
ATOM      4  C   UNL     1       4.520   5.922  17.744  0.00  0.00    +0.000 C 
ATOM      5  C   UNL     1       5.958   6.121  17.628  0.00  0.00    +0.000 C 
ATOM      6  O   UNL     1       6.812   6.913  17.931  0.00  0.00    +0.000 OA
ENDROOT
BRANCH   4   7
ATOM      7  C   UNL     1       3.529   6.844  18.325  0.00  0.00    +0.000 A 
ATOM      8  C   UNL     1       3.209   8.013  17.644  0.00  0.00    +0.000 A 
ATOM      9  C   UNL     1       2.193   8.840  18.124  0.00  0.00    +0.000 A 
ATOM     10  C   UNL     1       1.504   8.556  19.312  0.00  0.00    +0.000 A 
ATOM     11  C   UNL     1       1.910   7.419  20.023  0.00  0.00    +0.000 A 
ATOM     12  C   UNL     1       2.899   6.557  19.532  0.00  0.00    +0.000 A 
BRANCH  10  13
ATOM     13  N   UNL     1       0.510   9.396  19.760  0.00  0.00    +0.000 N 
ATOM     14  C   UNL     1      -0.244  10.264  18.840  0.00  0.00    +0.000 C 
ATOM     15  C   UNL     1      -0.440  11.637  19.502  0.00  0.00    +0.000 C 
ATOM     16  O   UNL     1      -1.065  11.522  20.794  0.00  0.00    +0.000 OA
ATOM     17  C   UNL     1      -0.273  10.688  21.661  0.00  0.00    +0.000 C 
ATOM     18  C   UNL     1      -0.105   9.272  21.085  0.00  0.00    +0.000 C 
ENDBRANCH  10  13
ENDBRANCH   4   7
BRANCH   3  19
ATOM     19  N   UNL     1       3.696   3.710  16.885  0.00  0.00    +0.000 N 
ATOM     20  H   UNL     1       3.699   3.363  15.920  0.00  0.00    +0.000 HD
BRANCH  19  21
ATOM     21  C   UNL     1       3.584   2.506  17.726  0.00  0.00    +0.000 C 
BRANCH  21  22
ATOM     22  C   UNL     1       2.810   2.824  18.992  0.00  0.00    +0.000 A 
ATOM     23  C   UNL     1       1.533   3.379  18.911  0.00  0.00    +0.000 A 
ATOM     24  C   UNL     1       0.835   3.637  20.086  0.00  0.00    +0.000 A 
ATOM     25  C   UNL     1       1.424   3.336  21.308  0.00  0.00    +0.000 A 
ATOM     26  C   UNL     1       2.699   2.796  21.304  0.00  0.00    +0.000 A 
ATOM     27  N   UNL     1       3.407   2.541  20.182  0.00  0.00    +0.000 NA
ENDBRANCH  21  22
ENDBRANCH  19  21
ENDBRANCH   3  19
TORSDOF 5
ENDMDL
MODEL 6
REMARK VINA RESULT:      -7.9      0.969      1.787
REMARK  Name = 
REMARK  5 active torsions:
REMARK  status: ('A' for Active; 'I' for Inactive)
REMARK    1  A    between atoms: C_3  and  N_4
REMARK    2  A    between atoms: N_4  and  C_5
REMARK    3  A    between atoms: C_5  and  C_6
REMARK    4  A    between atoms: C_12  and  C_13
REMARK    5  A    between atoms: C_16  and  N_17
REMARK                            x       y       z     vdW  Elec       q    Type
REMARK                         _______ _______ _______ _____ _____    ______ ____
ROOT
ATOM      1  O   UNL     1       6.270   3.860  16.184  0.00  0.00    +0.000 OA
ATOM      2  C   UNL     1       5.452   4.621  16.636  0.00  0.00    +0.000 C 
ATOM      3  C   UNL     1       4.018   4.606  17.045  0.00  0.00    +0.000 C 
ATOM      4  C   UNL     1       4.126   5.874  17.524  0.00  0.00    +0.000 C 
ATOM      5  C   UNL     1       5.541   6.001  17.202  0.00  0.00    +0.000 C 
ATOM      6  O   UNL     1       6.460   6.765  17.349  0.00  0.00    +0.000 OA
ENDROOT
BRANCH   4   7
ATOM      7  C   UNL     1       3.264   6.862  18.194  0.00  0.00    +0.000 A 
ATOM      8  C   UNL     1       2.933   8.036  17.526  0.00  0.00    +0.000 A 
ATOM      9  C   UNL     1       2.029   8.930  18.099  0.00  0.00    +0.000 A 
ATOM     10  C   UNL     1       1.468   8.708  19.366  0.00  0.00    +0.000 A 
ATOM     11  C   UNL     1       1.889   7.562  20.052  0.00  0.00    +0.000 A 
ATOM     12  C   UNL     1       2.764   6.634  19.471  0.00  0.00    +0.000 A 
BRANCH  10  13
ATOM     13  N   UNL     1       0.583   9.613  19.905  0.00  0.00    +0.000 N 
ATOM     14  C   UNL     1      -0.686   9.948  19.238  0.00  0.00    +0.000 C 
ATOM     15  C   UNL     1      -0.925  11.462  19.356  0.00  0.00    +0.000 C 
ATOM     16  O   UNL     1      -0.885  11.902  20.725  0.00  0.00    +0.000 OA
ATOM     17  C   UNL     1       0.385  11.576  21.321  0.00  0.00    +0.000 C 
ATOM     18  C   UNL     1       0.647  10.061  21.300  0.00  0.00    +0.000 C 
ENDBRANCH  10  13
ENDBRANCH   4   7
BRANCH   3  19
ATOM     19  N   UNL     1       3.103   3.669  16.888  0.00  0.00    +0.000 N 
ATOM     20  H   UNL     1       2.883   3.360  15.936  0.00  0.00    +0.000 HD
BRANCH  19  21
ATOM     21  C   UNL     1       3.149   2.437  17.694  0.00  0.00    +0.000 C 
BRANCH  21  22
ATOM     22  C   UNL     1       2.544   2.686  19.063  0.00  0.00    +0.000 A 
ATOM     23  C   UNL     1       3.323   2.535  20.210  0.00  0.00    +0.000 A 
ATOM     24  C   UNL     1       2.750   2.796  21.451  0.00  0.00    +0.000 A 
ATOM     25  C   UNL     1       1.423   3.199  21.518  0.00  0.00    +0.000 A 
ATOM     26  C   UNL     1       0.715   3.317  20.334  0.00  0.00    +0.000 A 
ATOM     27  N   UNL     1       1.238   3.064  19.114  0.00  0.00    +0.000 NA
ENDBRANCH  21  22
ENDBRANCH  19  21
ENDBRANCH   3  19
TORSDOF 5
ENDMDL
MODEL 7
REMARK VINA RESULT:      -7.8      0.868      1.468
REMARK  Name = 
REMARK  5 active torsions:
REMARK  status: ('A' for Active; 'I' for Inactive)
REMARK    1  A    between atoms: C_3  and  N_4
REMARK    2  A    between atoms: N_4  and  C_5
REMARK    3  A    between atoms: C_5  and  C_6
REMARK    4  A    between atoms: C_12  and  C_13
REMARK    5  A    between atoms: C_16  and  N_17
REMARK                            x       y       z     vdW  Elec       q    Type
REMARK                         _______ _______ _______ _____ _____    ______ ____
ROOT
ATOM      1  O   UNL     1       6.471   3.536  15.187  0.00  0.00    +0.000 OA
ATOM      2  C   UNL     1       5.710   4.196  15.849  0.00  0.00    +0.000 C 
ATOM      3  C   UNL     1       4.640   3.983  16.866  0.00  0.00    +0.000 C 
ATOM      4  C   UNL     1       4.533   5.325  17.055  0.00  0.00    +0.000 C 
ATOM      5  C   UNL     1       5.587   5.663  16.108  0.00  0.00    +0.000 C 
ATOM      6  O   UNL     1       6.203   6.616  15.708  0.00  0.00    +0.000 OA
ENDROOT
BRANCH   4   7
ATOM      7  C   UNL     1       3.750   6.246  17.897  0.00  0.00    +0.000 A 
ATOM      8  C   UNL     1       3.265   7.425  17.340  0.00  0.00    +0.000 A 
ATOM      9  C   UNL     1       2.430   8.254  18.089  0.00  0.00    +0.000 A 
ATOM     10  C   UNL     1       2.094   7.962  19.420  0.00  0.00    +0.000 A 
ATOM     11  C   UNL     1       2.670   6.815  19.981  0.00  0.00    +0.000 A 
ATOM     12  C   UNL     1       3.476   5.951  19.228  0.00  0.00    +0.000 A 
BRANCH  10  13
ATOM     13  N   UNL     1       1.271   8.803  20.133  0.00  0.00    +0.000 N 
ATOM     14  C   UNL     1       1.056   8.634  21.580  0.00  0.00    +0.000 C 
ATOM     15  C   UNL     1      -0.430   8.871  21.892  0.00  0.00    +0.000 C 
ATOM     16  O   UNL     1      -0.879  10.150  21.410  0.00  0.00    +0.000 OA
ATOM     17  C   UNL     1      -0.673  10.252  19.988  0.00  0.00    +0.000 C 
ATOM     18  C   UNL     1       0.812  10.098  19.620  0.00  0.00    +0.000 C 
ENDBRANCH  10  13
ENDBRANCH   4   7
BRANCH   3  19
ATOM     19  N   UNL     1       4.076   2.864  17.280  0.00  0.00    +0.000 N 
ATOM     20  H   UNL     1       4.475   2.393  18.099  0.00  0.00    +0.000 HD
BRANCH  19  21
ATOM     21  C   UNL     1       2.616   2.786  17.462  0.00  0.00    +0.000 C 
BRANCH  21  22
ATOM     22  C   UNL     1       2.271   2.850  18.938  0.00  0.00    +0.000 A 
ATOM     23  C   UNL     1       3.230   2.521  19.896  0.00  0.00    +0.000 A 
ATOM     24  C   UNL     1       2.895   2.613  21.243  0.00  0.00    +0.000 A 
ATOM     25  C   UNL     1       1.620   3.029  21.601  0.00  0.00    +0.000 A 
ATOM     26  C   UNL     1       0.722   3.329  20.590  0.00  0.00    +0.000 A 
ATOM     27  N   UNL     1       1.012   3.242  19.273  0.00  0.00    +0.000 NA
ENDBRANCH  21  22
ENDBRANCH  19  21
ENDBRANCH   3  19
TORSDOF 5
ENDMDL
MODEL 8
REMARK VINA RESULT:      -7.8      1.214      1.310
REMARK  Name = 
REMARK  5 active torsions:
REMARK  status: ('A' for Active; 'I' for Inactive)
REMARK    1  A    between atoms: C_3  and  N_4
REMARK    2  A    between atoms: N_4  and  C_5
REMARK    3  A    between atoms: C_5  and  C_6
REMARK    4  A    between atoms: C_12  and  C_13
REMARK    5  A    between atoms: C_16  and  N_17
REMARK                            x       y       z     vdW  Elec       q    Type
REMARK                         _______ _______ _______ _____ _____    ______ ____
ROOT
ATOM      1  O   UNL     1       7.991   4.135  17.026  0.00  0.00    +0.000 OA
ATOM      2  C   UNL     1       6.968   4.735  17.237  0.00  0.00    +0.000 C 
ATOM      3  C   UNL     1       5.587   4.454  17.727  0.00  0.00    +0.000 C 
ATOM      4  C   UNL     1       5.297   5.781  17.716  0.00  0.00    +0.000 C 
ATOM      5  C   UNL     1       6.622   6.189  17.269  0.00  0.00    +0.000 C 
ATOM      6  O   UNL     1       7.268   7.185  17.069  0.00  0.00    +0.000 OA
ENDROOT
BRANCH   4   7
ATOM      7  C   UNL     1       4.155   6.649  18.052  0.00  0.00    +0.000 A 
ATOM      8  C   UNL     1       3.471   6.438  19.244  0.00  0.00    +0.000 A 
ATOM      9  C   UNL     1       2.461   7.319  19.630  0.00  0.00    +0.000 A 
ATOM     10  C   UNL     1       2.070   8.399  18.825  0.00  0.00    +0.000 A 
ATOM     11  C   UNL     1       2.716   8.533  17.589  0.00  0.00    +0.000 A 
ATOM     12  C   UNL     1       3.761   7.682  17.207  0.00  0.00    +0.000 A 
BRANCH  10  13
ATOM     13  N   UNL     1       1.066   9.246  19.233  0.00  0.00    +0.000 N 
ATOM     14  C   UNL     1       0.851   9.566  20.655  0.00  0.00    +0.000 C 
ATOM     15  C   UNL     1      -0.660   9.579  20.938  0.00  0.00    +0.000 C 
ATOM     16  O   UNL     1      -1.359  10.476  20.056  0.00  0.00    +0.000 OA
ATOM     17  C   UNL     1      -1.139  10.102  18.682  0.00  0.00    +0.000 C 
ATOM     18  C   UNL     1       0.354  10.143  18.317  0.00  0.00    +0.000 C 
ENDBRANCH  10  13
ENDBRANCH   4   7
BRANCH   3  19
ATOM     19  N   UNL     1       4.997   3.301  17.978  0.00  0.00    +0.000 N 
ATOM     20  H   UNL     1       5.354   2.461  17.511  0.00  0.00    +0.000 HD
BRANCH  19  21
ATOM     21  C   UNL     1       4.727   2.886  19.366  0.00  0.00    +0.000 C 
BRANCH  21  22
ATOM     22  C   UNL     1       3.244   2.996  19.663  0.00  0.00    +0.000 A 
ATOM     23  C   UNL     1       2.323   3.071  18.618  0.00  0.00    +0.000 A 
ATOM     24  C   UNL     1       0.967   3.145  18.919  0.00  0.00    +0.000 A 
ATOM     25  C   UNL     1       0.563   3.141  20.247  0.00  0.00    +0.000 A 
ATOM     26  C   UNL     1       1.539   3.072  21.228  0.00  0.00    +0.000 A 
ATOM     27  N   UNL     1       2.864   3.008  20.970  0.00  0.00    +0.000 NA
ENDBRANCH  21  22
ENDBRANCH  19  21
ENDBRANCH   3  19
TORSDOF 5
ENDMDL
MODEL 9
REMARK VINA RESULT:      -7.7      1.222      1.872
REMARK  Name = 
REMARK  5 active torsions:
REMARK  status: ('A' for Active; 'I' for Inactive)
REMARK    1  A    between atoms: C_3  and  N_4
REMARK    2  A    between atoms: N_4  and  C_5
REMARK    3  A    between atoms: C_5  and  C_6
REMARK    4  A    between atoms: C_12  and  C_13
REMARK    5  A    between atoms: C_16  and  N_17
REMARK                            x       y       z     vdW  Elec       q    Type
REMARK                         _______ _______ _______ _____ _____    ______ ____
ROOT
ATOM      1  O   UNL     1       6.801   4.220  16.225  0.00  0.00    +0.000 OA
ATOM      2  C   UNL     1       5.923   4.862  16.744  0.00  0.00    +0.000 C 
ATOM      3  C   UNL     1       5.265   4.982  18.078  0.00  0.00    +0.000 C 
ATOM      4  C   UNL     1       4.538   6.044  17.640  0.00  0.00    +0.000 C 
ATOM      5  C   UNL     1       5.131   6.053  16.309  0.00  0.00    +0.000 C 
ATOM      6  O   UNL     1       5.127   6.703  15.296  0.00  0.00    +0.000 OA
ENDROOT
BRANCH   4   7
ATOM      7  C   UNL     1       3.539   6.979  18.185  0.00  0.00    +0.000 A 
ATOM      8  C   UNL     1       3.258   8.151  17.491  0.00  0.00    +0.000 A 
ATOM      9  C   UNL     1       2.236   8.991  17.933  0.00  0.00    +0.000 A 
ATOM     10  C   UNL     1       1.502   8.718  19.097  0.00  0.00    +0.000 A 
ATOM     11  C   UNL     1       1.869   7.578  19.824  0.00  0.00    +0.000 A 
ATOM     12  C   UNL     1       2.864   6.702  19.369  0.00  0.00    +0.000 A 
BRANCH  10  13
ATOM     13  N   UNL     1       0.504   9.571  19.509  0.00  0.00    +0.000 N 
ATOM     14  C   UNL     1      -0.374  10.259  18.547  0.00  0.00    +0.000 C 
ATOM     15  C   UNL     1      -0.591  11.706  19.019  0.00  0.00    +0.000 C 
ATOM     16  O   UNL     1      -1.096  11.756  20.366  0.00  0.00    +0.000 OA
ATOM     17  C   UNL     1      -0.188  11.096  21.268  0.00  0.00    +0.000 C 
ATOM     18  C   UNL     1       0.011   9.619  20.889  0.00  0.00    +0.000 C 
ENDBRANCH  10  13
ENDBRANCH   4   7
BRANCH   3  19
ATOM     19  N   UNL     1       5.397   4.236  19.157  0.00  0.00    +0.000 N 
ATOM     20  H   UNL     1       5.208   4.663  20.070  0.00  0.00    +0.000 HD
BRANCH  19  21
ATOM     21  C   UNL     1       4.781   2.899  19.222  0.00  0.00    +0.000 C 
BRANCH  21  22
ATOM     22  C   UNL     1       3.321   3.016  19.615  0.00  0.00    +0.000 A 
ATOM     23  C   UNL     1       2.333   3.078  18.633  0.00  0.00    +0.000 A 
ATOM     24  C   UNL     1       1.000   3.159  19.022  0.00  0.00    +0.000 A 
ATOM     25  C   UNL     1       0.685   3.174  20.374  0.00  0.00    +0.000 A 
ATOM     26  C   UNL     1       1.724   3.118  21.288  0.00  0.00    +0.000 A 
ATOM     27  N   UNL     1       3.029   3.047  20.944  0.00  0.00    +0.000 NA
ENDBRANCH  21  22
ENDBRANCH  19  21
ENDBRANCH   3  19
TORSDOF 5
ENDMDL
