MODEL 1
REMARK VINA RESULT:      -9.7      0.000      0.000
REMARK  Name = 
REMARK  5 active torsions:
REMARK  status: ('A' for Active; 'I' for Inactive)
REMARK    1  A    between atoms: C_1  and  C_2
REMARK    2  A    between atoms: C_4  and  C_5
REMARK    3  A    between atoms: C_11  and  C_12
REMARK    4  A    between atoms: C_26  and  C_27
REMARK    5  A    between atoms: C_27  and  O_29
REMARK                            x       y       z     vdW  Elec       q    Type
REMARK                         _______ _______ _______ _____ _____    ______ ____
ROOT
ATOM      1  C   UNL     1       4.633   4.099  18.032  0.00  0.00    +0.000 A 
ATOM      2  C   UNL     1       4.591   2.883  18.694  0.00  0.00    +0.000 A 
ATOM      3  N   UNL     1       3.724   2.994  19.750  0.00  0.00    +0.000 N 
ATOM      4  C   UNL     1       3.181   4.247  19.771  0.00  0.00    +0.000 A 
ATOM      5  N   UNL     1       2.236   4.646  20.636  0.00  0.00    +0.000 NA
ATOM      6  C   UNL     1       1.841   5.930  20.425  0.00  0.00    +0.000 A 
ATOM      7  C   UNL     1       2.364   6.845  19.503  0.00  0.00    +0.000 A 
ATOM      8  C   UNL     1       3.349   6.331  18.639  0.00  0.00    +0.000 A 
ATOM      9  C   UNL     1       3.761   4.986  18.750  0.00  0.00    +0.000 A 
ATOM     10  H   UNL     1       3.480   2.267  20.408  0.00  0.00    +0.000 HD
ENDROOT
BRANCH   7  11
ATOM     11  C   UNL     1       1.866   8.246  19.368  0.00  0.00    +0.000 A 
ATOM     12  C   UNL     1       2.042   8.901  18.128  0.00  0.00    +0.000 A 
ATOM     13  C   UNL     1       1.566  10.186  17.903  0.00  0.00    +0.000 A 
ATOM     14  C   UNL     1       0.859  10.836  18.906  0.00  0.00    +0.000 A 
ATOM     15  C   UNL     1       0.642  10.252  20.141  0.00  0.00    +0.000 A 
ATOM     16  N   UNL     1      -0.079  10.960  21.024  0.00  0.00    +0.000 NA
ATOM     17  C   UNL     1      -0.292  10.437  22.245  0.00  0.00    +0.000 A 
ATOM     18  C   UNL     1       0.232   9.237  22.656  0.00  0.00    +0.000 A 
ATOM     19  C   UNL     1       0.995   8.515  21.739  0.00  0.00    +0.000 A 
ATOM     20  C   UNL     1       1.187   8.967  20.411  0.00  0.00    +0.000 A 
ENDBRANCH   7  11
BRANCH   1  24
ATOM     21  C   UNL     1       5.039   3.712  13.087  0.00  0.00    +0.000 C 
ATOM     22  C   UNL     1       5.679   4.144  14.377  0.00  0.00    +0.000 A 
ATOM     23  C   UNL     1       4.941   3.943  15.566  0.00  0.00    +0.000 A 
ATOM     24  C   UNL     1       5.423   4.328  16.825  0.00  0.00    +0.000 A 
ATOM     25  C   UNL     1       6.681   4.932  16.892  0.00  0.00    +0.000 A 
ATOM     26  C   UNL     1       7.423   5.160  15.730  0.00  0.00    +0.000 A 
ATOM     27  C   UNL     1       6.937   4.772  14.470  0.00  0.00    +0.000 A 
BRANCH  27  28
ATOM     28  C   UNL     1       7.789   5.172  13.313  0.00  0.00    +0.000 C 
ATOM     29  O   UNL     1       8.720   5.952  13.432  0.00  0.00    +0.000 OA
BRANCH  28  30
ATOM     30  O   UNL     1       7.499   4.566  12.146  0.00  0.00    +0.000 OA
ATOM     31  H   UNL     1       6.993   3.742  12.234  0.00  0.00    +0.000 HD
ENDBRANCH  28  30
ENDBRANCH  27  28
ENDBRANCH   1  24
TORSDOF 4
ENDMDL
MODEL 2
REMARK VINA RESULT:      -9.3      3.870      6.421
REMARK  Name = 
REMARK  5 active torsions:
REMARK  status: ('A' for Active; 'I' for Inactive)
REMARK    1  A    between atoms: C_1  and  C_2
REMARK    2  A    between atoms: C_4  and  C_5
REMARK    3  A    between atoms: C_11  and  C_12
REMARK    4  A    between atoms: C_26  and  C_27
REMARK    5  A    between atoms: C_27  and  O_29
REMARK                            x       y       z     vdW  Elec       q    Type
REMARK                         _______ _______ _______ _____ _____    ______ ____
ROOT
ATOM      1  C   UNL     1       1.351   8.377  20.745  0.00  0.00    +0.000 A 
ATOM      2  C   UNL     1       1.820   8.783  21.983  0.00  0.00    +0.000 A 
ATOM      3  N   UNL     1       1.174   9.942  22.332  0.00  0.00    +0.000 N 
ATOM      4  C   UNL     1       0.277  10.280  21.361  0.00  0.00    +0.000 A 
ATOM      5  N   UNL     1      -0.569  11.319  21.442  0.00  0.00    +0.000 NA
ATOM      6  C   UNL     1      -1.382  11.419  20.357  0.00  0.00    +0.000 A 
ATOM      7  C   UNL     1      -1.356  10.639  19.193  0.00  0.00    +0.000 A 
ATOM      8  C   UNL     1      -0.437   9.572  19.206  0.00  0.00    +0.000 A 
ATOM      9  C   UNL     1       0.392   9.361  20.327  0.00  0.00    +0.000 A 
ATOM     10  H   UNL     1       1.299  10.468  23.186  0.00  0.00    +0.000 HD
ENDROOT
BRANCH   7  11
ATOM     11  C   UNL     1      -2.288  10.849  18.046  0.00  0.00    +0.000 A 
ATOM     12  C   UNL     1      -1.922  10.327  16.785  0.00  0.00    +0.000 A 
ATOM     13  C   UNL     1      -2.753  10.436  15.677  0.00  0.00    +0.000 A 
ATOM     14  C   UNL     1      -3.997  11.036  15.815  0.00  0.00    +0.000 A 
ATOM     15  C   UNL     1      -4.424  11.561  17.022  0.00  0.00    +0.000 A 
ATOM     16  N   UNL     1      -5.657  12.091  17.047  0.00  0.00    +0.000 NA
ATOM     17  C   UNL     1      -6.100  12.634  18.196  0.00  0.00    +0.000 A 
ATOM     18  C   UNL     1      -5.338  12.720  19.334  0.00  0.00    +0.000 A 
ATOM     19  C   UNL     1      -4.052  12.184  19.296  0.00  0.00    +0.000 A 
ATOM     20  C   UNL     1      -3.555  11.523  18.146  0.00  0.00    +0.000 A 
ENDBRANCH   7  11
BRANCH   1  24
ATOM     21  C   UNL     1       1.564   3.405  20.738  0.00  0.00    +0.000 C 
ATOM     22  C   UNL     1       1.936   4.686  20.044  0.00  0.00    +0.000 A 
ATOM     23  C   UNL     1       1.523   5.894  20.651  0.00  0.00    +0.000 A 
ATOM     24  C   UNL     1       1.789   7.149  20.086  0.00  0.00    +0.000 A 
ATOM     25  C   UNL     1       2.489   7.192  18.878  0.00  0.00    +0.000 A 
ATOM     26  C   UNL     1       2.891   6.012  18.247  0.00  0.00    +0.000 A 
ATOM     27  C   UNL     1       2.623   4.756  18.817  0.00  0.00    +0.000 A 
BRANCH  27  28
ATOM     28  C   UNL     1       3.019   3.585  17.982  0.00  0.00    +0.000 C 
ATOM     29  O   UNL     1       2.301   3.145  17.099  0.00  0.00    +0.000 OA
BRANCH  28  30
ATOM     30  O   UNL     1       4.248   3.091  18.227  0.00  0.00    +0.000 OA
ATOM     31  H   UNL     1       4.398   2.823  19.147  0.00  0.00    +0.000 HD
ENDBRANCH  28  30
ENDBRANCH  27  28
ENDBRANCH   1  24
TORSDOF 4
ENDMDL
MODEL 3
REMARK VINA RESULT:      -8.9      3.904      6.403
REMARK  Name = 
REMARK  5 active torsions:
REMARK  status: ('A' for Active; 'I' for Inactive)
REMARK    1  A    between atoms: C_1  and  C_2
REMARK    2  A    between atoms: C_4  and  C_5
REMARK    3  A    between atoms: C_11  and  C_12
REMARK    4  A    between atoms: C_26  and  C_27
REMARK    5  A    between atoms: C_27  and  O_29
REMARK                            x       y       z     vdW  Elec       q    Type
REMARK                         _______ _______ _______ _____ _____    ______ ____
ROOT
ATOM      1  C   UNL     1       1.274   8.467  20.901  0.00  0.00    +0.000 A 
ATOM      2  C   UNL     1       1.675   8.867  22.165  0.00  0.00    +0.000 A 
ATOM      3  N   UNL     1       0.975   9.997  22.504  0.00  0.00    +0.000 N 
ATOM      4  C   UNL     1       0.110  10.322  21.499  0.00  0.00    +0.000 A 
ATOM      5  N   UNL     1      -0.772  11.332  21.560  0.00  0.00    +0.000 NA
ATOM      6  C   UNL     1      -1.540  11.423  20.442  0.00  0.00    +0.000 A 
ATOM      7  C   UNL     1      -1.438  10.665  19.268  0.00  0.00    +0.000 A 
ATOM      8  C   UNL     1      -0.485   9.629  19.304  0.00  0.00    +0.000 A 
ATOM      9  C   UNL     1       0.302   9.426  20.457  0.00  0.00    +0.000 A 
ATOM     10  H   UNL     1       1.046  10.512  23.371  0.00  0.00    +0.000 HD
ENDROOT
BRANCH   7  11
ATOM     11  C   UNL     1      -2.326  10.864  18.085  0.00  0.00    +0.000 A 
ATOM     12  C   UNL     1      -1.906  10.342  16.840  0.00  0.00    +0.000 A 
ATOM     13  C   UNL     1      -2.694  10.442  15.701  0.00  0.00    +0.000 A 
ATOM     14  C   UNL     1      -3.948  11.032  15.788  0.00  0.00    +0.000 A 
ATOM     15  C   UNL     1      -4.425  11.556  16.976  0.00  0.00    +0.000 A 
ATOM     16  N   UNL     1      -5.663  12.075  16.950  0.00  0.00    +0.000 NA
ATOM     17  C   UNL     1      -6.155  12.617  18.080  0.00  0.00    +0.000 A 
ATOM     18  C   UNL     1      -5.439  12.713  19.247  0.00  0.00    +0.000 A 
ATOM     19  C   UNL     1      -4.148  12.187  19.260  0.00  0.00    +0.000 A 
ATOM     20  C   UNL     1      -3.601  11.528  18.133  0.00  0.00    +0.000 A 
ENDBRANCH   7  11
BRANCH   1  24
ATOM     21  C   UNL     1       4.011   6.455  17.264  0.00  0.00    +0.000 C 
ATOM     22  C   UNL     1       3.113   6.220  18.447  0.00  0.00    +0.000 A 
ATOM     23  C   UNL     1       2.607   7.359  19.113  0.00  0.00    +0.000 A 
ATOM     24  C   UNL     1       1.782   7.266  20.242  0.00  0.00    +0.000 A 
ATOM     25  C   UNL     1       1.455   5.993  20.716  0.00  0.00    +0.000 A 
ATOM     26  C   UNL     1       1.957   4.851  20.088  0.00  0.00    +0.000 A 
ATOM     27  C   UNL     1       2.784   4.948  18.956  0.00  0.00    +0.000 A 
BRANCH  27  28
ATOM     28  C   UNL     1       3.328   3.651  18.457  0.00  0.00    +0.000 C 
ATOM     29  O   UNL     1       2.803   3.036  17.543  0.00  0.00    +0.000 OA
BRANCH  28  30
ATOM     30  O   UNL     1       4.471   3.242  19.040  0.00  0.00    +0.000 OA
ATOM     31  H   UNL     1       4.405   2.390  19.501  0.00  0.00    +0.000 HD
ENDBRANCH  28  30
ENDBRANCH  27  28
ENDBRANCH   1  24
TORSDOF 4
ENDMDL
MODEL 4
REMARK VINA RESULT:      -8.8      0.888      1.544
REMARK  Name = 
REMARK  5 active torsions:
REMARK  status: ('A' for Active; 'I' for Inactive)
REMARK    1  A    between atoms: C_1  and  C_2
REMARK    2  A    between atoms: C_4  and  C_5
REMARK    3  A    between atoms: C_11  and  C_12
REMARK    4  A    between atoms: C_26  and  C_27
REMARK    5  A    between atoms: C_27  and  O_29
REMARK                            x       y       z     vdW  Elec       q    Type
REMARK                         _______ _______ _______ _____ _____    ______ ____
ROOT
ATOM      1  C   UNL     1       4.085   4.326  18.626  0.00  0.00    +0.000 A 
ATOM      2  C   UNL     1       3.999   3.104  19.271  0.00  0.00    +0.000 A 
ATOM      3  N   UNL     1       3.108   3.222  20.307  0.00  0.00    +0.000 N 
ATOM      4  C   UNL     1       2.593   4.486  20.330  0.00  0.00    +0.000 A 
ATOM      5  N   UNL     1       1.635   4.896  21.176  0.00  0.00    +0.000 NA
ATOM      6  C   UNL     1       1.274   6.191  20.970  0.00  0.00    +0.000 A 
ATOM      7  C   UNL     1       1.840   7.105  20.073  0.00  0.00    +0.000 A 
ATOM      8  C   UNL     1       2.836   6.578  19.227  0.00  0.00    +0.000 A 
ATOM      9  C   UNL     1       3.215   5.224  19.332  0.00  0.00    +0.000 A 
ATOM     10  H   UNL     1       2.832   2.493  20.950  0.00  0.00    +0.000 HD
ENDROOT
BRANCH   7  11
ATOM     11  C   UNL     1       1.377   8.518  19.942  0.00  0.00    +0.000 A 
ATOM     12  C   UNL     1       1.554   9.167  18.699  0.00  0.00    +0.000 A 
ATOM     13  C   UNL     1       1.109  10.463  18.479  0.00  0.00    +0.000 A 
ATOM     14  C   UNL     1       0.431  11.132  19.489  0.00  0.00    +0.000 A 
ATOM     15  C   UNL     1       0.214  10.555  20.727  0.00  0.00    +0.000 A 
ATOM     16  N   UNL     1      -0.479  11.282  21.618  0.00  0.00    +0.000 NA
ATOM     17  C   UNL     1      -0.690  10.765  22.842  0.00  0.00    +0.000 A 
ATOM     18  C   UNL     1      -0.192   9.553  23.248  0.00  0.00    +0.000 A 
ATOM     19  C   UNL     1       0.541   8.811  22.323  0.00  0.00    +0.000 A 
ATOM     20  C   UNL     1       0.729   9.257  20.992  0.00  0.00    +0.000 A 
ENDBRANCH   7  11
BRANCH   1  24
ATOM     21  C   UNL     1       7.682   6.940  16.391  0.00  0.00    +0.000 C 
ATOM     22  C   UNL     1       6.676   5.827  16.284  0.00  0.00    +0.000 A 
ATOM     23  C   UNL     1       5.864   5.577  17.413  0.00  0.00    +0.000 A 
ATOM     24  C   UNL     1       4.910   4.551  17.441  0.00  0.00    +0.000 A 
ATOM     25  C   UNL     1       4.767   3.753  16.304  0.00  0.00    +0.000 A 
ATOM     26  C   UNL     1       5.571   3.966  15.181  0.00  0.00    +0.000 A 
ATOM     27  C   UNL     1       6.526   4.996  15.156  0.00  0.00    +0.000 A 
BRANCH  27  28
ATOM     28  C   UNL     1       7.381   5.037  13.934  0.00  0.00    +0.000 C 
ATOM     29  O   UNL     1       8.405   5.698  13.880  0.00  0.00    +0.000 OA
BRANCH  28  30
ATOM     30  O   UNL     1       6.978   4.247  12.921  0.00  0.00    +0.000 OA
ATOM     31  H   UNL     1       6.031   4.306  12.716  0.00  0.00    +0.000 HD
ENDBRANCH  28  30
ENDBRANCH  27  28
ENDBRANCH   1  24
TORSDOF 4
ENDMDL
MODEL 5
REMARK VINA RESULT:      -8.4      4.299      8.914
REMARK  Name = 
REMARK  5 active torsions:
REMARK  status: ('A' for Active; 'I' for Inactive)
REMARK    1  A    between atoms: C_1  and  C_2
REMARK    2  A    between atoms: C_4  and  C_5
REMARK    3  A    between atoms: C_11  and  C_12
REMARK    4  A    between atoms: C_26  and  C_27
REMARK    5  A    between atoms: C_27  and  O_29
REMARK                            x       y       z     vdW  Elec       q    Type
REMARK                         _______ _______ _______ _____ _____    ______ ____
ROOT
ATOM      1  C   UNL     1       0.291  12.156  20.916  0.00  0.00    +0.000 A 
ATOM      2  C   UNL     1      -0.589  12.333  21.970  0.00  0.00    +0.000 A 
ATOM      3  N   UNL     1      -0.895  11.101  22.490  0.00  0.00    +0.000 N 
ATOM      4  C   UNL     1      -0.210  10.132  21.814  0.00  0.00    +0.000 A 
ATOM      5  N   UNL     1      -0.232   8.829  22.134  0.00  0.00    +0.000 NA
ATOM      6  C   UNL     1       0.562   8.078  21.325  0.00  0.00    +0.000 A 
ATOM      7  C   UNL     1       1.283   8.501  20.201  0.00  0.00    +0.000 A 
ATOM      8  C   UNL     1       1.245   9.886  19.950  0.00  0.00    +0.000 A 
ATOM      9  C   UNL     1       0.500  10.741  20.789  0.00  0.00    +0.000 A 
ATOM     10  H   UNL     1      -1.504  10.912  23.274  0.00  0.00    +0.000 HD
ENDROOT
BRANCH   7  11
ATOM     11  C   UNL     1       2.111   7.581  19.367  0.00  0.00    +0.000 A 
ATOM     12  C   UNL     1       2.736   8.107  18.214  0.00  0.00    +0.000 A 
ATOM     13  C   UNL     1       3.562   7.333  17.409  0.00  0.00    +0.000 A 
ATOM     14  C   UNL     1       3.820   6.016  17.766  0.00  0.00    +0.000 A 
ATOM     15  C   UNL     1       3.250   5.439  18.886  0.00  0.00    +0.000 A 
ATOM     16  N   UNL     1       3.594   4.168  19.150  0.00  0.00    +0.000 NA
ATOM     17  C   UNL     1       3.041   3.563  20.218  0.00  0.00    +0.000 A 
ATOM     18  C   UNL     1       2.105   4.159  21.025  0.00  0.00    +0.000 A 
ATOM     19  C   UNL     1       1.740   5.472  20.733  0.00  0.00    +0.000 A 
ATOM     20  C   UNL     1       2.344   6.196  19.677  0.00  0.00    +0.000 A 
ENDBRANCH   7  11
BRANCH   1  24
ATOM     21  C   UNL     1      -0.407  16.405  18.420  0.00  0.00    +0.000 C 
ATOM     22  C   UNL     1       0.570  15.365  18.897  0.00  0.00    +0.000 A 
ATOM     23  C   UNL     1       0.050  14.281  19.639  0.00  0.00    +0.000 A 
ATOM     24  C   UNL     1       0.865  13.264  20.157  0.00  0.00    +0.000 A 
ATOM     25  C   UNL     1       2.241  13.340  19.923  0.00  0.00    +0.000 A 
ATOM     26  C   UNL     1       2.782  14.411  19.209  0.00  0.00    +0.000 A 
ATOM     27  C   UNL     1       1.962  15.428  18.691  0.00  0.00    +0.000 A 
BRANCH  27  28
ATOM     28  C   UNL     1       2.688  16.559  18.043  0.00  0.00    +0.000 C 
ATOM     29  O   UNL     1       2.725  17.674  18.536  0.00  0.00    +0.000 OA
BRANCH  28  30
ATOM     30  O   UNL     1       3.352  16.246  16.913  0.00  0.00    +0.000 OA
ATOM     31  H   UNL     1       3.711  17.009  16.433  0.00  0.00    +0.000 HD
ENDBRANCH  28  30
ENDBRANCH  27  28
ENDBRANCH   1  24
TORSDOF 4
ENDMDL
MODEL 6
REMARK VINA RESULT:      -8.4      4.583      7.855
REMARK  Name = 
REMARK  5 active torsions:
REMARK  status: ('A' for Active; 'I' for Inactive)
REMARK    1  A    between atoms: C_1  and  C_2
REMARK    2  A    between atoms: C_4  and  C_5
REMARK    3  A    between atoms: C_11  and  C_12
REMARK    4  A    between atoms: C_26  and  C_27
REMARK    5  A    between atoms: C_27  and  O_29
REMARK                            x       y       z     vdW  Elec       q    Type
REMARK                         _______ _______ _______ _____ _____    ______ ____
ROOT
ATOM      1  C   UNL     1       1.367  10.640  18.798  0.00  0.00    +0.000 A 
ATOM      2  C   UNL     1       2.353  11.375  18.162  0.00  0.00    +0.000 A 
ATOM      3  N   UNL     1       1.887  12.652  17.974  0.00  0.00    +0.000 N 
ATOM      4  C   UNL     1       0.632  12.766  18.498  0.00  0.00    +0.000 A 
ATOM      5  N   UNL     1      -0.066  13.912  18.544  0.00  0.00    +0.000 NA
ATOM      6  C   UNL     1      -1.276  13.765  19.146  0.00  0.00    +0.000 A 
ATOM      7  C   UNL     1      -1.862  12.581  19.611  0.00  0.00    +0.000 A 
ATOM      8  C   UNL     1      -1.050  11.434  19.522  0.00  0.00    +0.000 A 
ATOM      9  C   UNL     1       0.247  11.521  18.974  0.00  0.00    +0.000 A 
ATOM     10  H   UNL     1       2.387  13.418  17.545  0.00  0.00    +0.000 HD
ENDROOT
BRANCH   7  11
ATOM     11  C   UNL     1      -3.213  12.529  20.243  0.00  0.00    +0.000 A 
ATOM     12  C   UNL     1      -3.325  12.868  21.610  0.00  0.00    +0.000 A 
ATOM     13  C   UNL     1      -4.551  12.893  22.261  0.00  0.00    +0.000 A 
ATOM     14  C   UNL     1      -5.709  12.618  21.546  0.00  0.00    +0.000 A 
ATOM     15  C   UNL     1      -5.675  12.288  20.203  0.00  0.00    +0.000 A 
ATOM     16  N   UNL     1      -6.857  12.072  19.605  0.00  0.00    +0.000 NA
ATOM     17  C   UNL     1      -6.865  11.724  18.305  0.00  0.00    +0.000 A 
ATOM     18  C   UNL     1      -5.725  11.529  17.567  0.00  0.00    +0.000 A 
ATOM     19  C   UNL     1      -4.500  11.738  18.200  0.00  0.00    +0.000 A 
ATOM     20  C   UNL     1      -4.422  12.187  19.540  0.00  0.00    +0.000 A 
ENDBRANCH   7  11
BRANCH   1  24
ATOM     21  C   UNL     1       3.045   6.084  17.700  0.00  0.00    +0.000 C 
ATOM     22  C   UNL     1       2.340   6.966  18.695  0.00  0.00    +0.000 A 
ATOM     23  C   UNL     1       2.160   8.323  18.343  0.00  0.00    +0.000 A 
ATOM     24  C   UNL     1       1.540   9.245  19.198  0.00  0.00    +0.000 A 
ATOM     25  C   UNL     1       1.090   8.792  20.440  0.00  0.00    +0.000 A 
ATOM     26  C   UNL     1       1.273   7.461  20.821  0.00  0.00    +0.000 A 
ATOM     27  C   UNL     1       1.894   6.538  19.961  0.00  0.00    +0.000 A 
BRANCH  27  28
ATOM     28  C   UNL     1       2.114   5.182  20.541  0.00  0.00    +0.000 C 
ATOM     29  O   UNL     1       1.194   4.410  20.753  0.00  0.00    +0.000 OA
BRANCH  28  30
ATOM     30  O   UNL     1       3.401   4.846  20.753  0.00  0.00    +0.000 OA
ATOM     31  H   UNL     1       3.892   5.466  21.317  0.00  0.00    +0.000 HD
ENDBRANCH  28  30
ENDBRANCH  27  28
ENDBRANCH   1  24
TORSDOF 4
ENDMDL
MODEL 7
REMARK VINA RESULT:      -8.4      4.159      8.717
REMARK  Name = 
REMARK  5 active torsions:
REMARK  status: ('A' for Active; 'I' for Inactive)
REMARK    1  A    between atoms: C_1  and  C_2
REMARK    2  A    between atoms: C_4  and  C_5
REMARK    3  A    between atoms: C_11  and  C_12
REMARK    4  A    between atoms: C_26  and  C_27
REMARK    5  A    between atoms: C_27  and  O_29
REMARK                            x       y       z     vdW  Elec       q    Type
REMARK                         _______ _______ _______ _____ _____    ______ ____
ROOT
ATOM      1  C   UNL     1       0.433  11.969  21.017  0.00  0.00    +0.000 A 
ATOM      2  C   UNL     1      -0.471  12.176  22.046  0.00  0.00    +0.000 A 
ATOM      3  N   UNL     1      -0.837  10.956  22.553  0.00  0.00    +0.000 N 
ATOM      4  C   UNL     1      -0.168   9.964  21.895  0.00  0.00    +0.000 A 
ATOM      5  N   UNL     1      -0.247   8.662  22.211  0.00  0.00    +0.000 NA
ATOM      6  C   UNL     1       0.542   7.883  21.424  0.00  0.00    +0.000 A 
ATOM      7  C   UNL     1       1.311   8.281  20.323  0.00  0.00    +0.000 A 
ATOM      8  C   UNL     1       1.332   9.667  20.075  0.00  0.00    +0.000 A 
ATOM      9  C   UNL     1       0.594  10.548  20.893  0.00  0.00    +0.000 A 
ATOM     10  H   UNL     1      -1.475  10.788  23.318  0.00  0.00    +0.000 HD
ENDROOT
BRANCH   7  11
ATOM     11  C   UNL     1       2.130   7.334  19.511  0.00  0.00    +0.000 A 
ATOM     12  C   UNL     1       2.804   7.838  18.376  0.00  0.00    +0.000 A 
ATOM     13  C   UNL     1       3.625   7.035  17.594  0.00  0.00    +0.000 A 
ATOM     14  C   UNL     1       3.827   5.710  17.956  0.00  0.00    +0.000 A 
ATOM     15  C   UNL     1       3.206   5.153  19.060  0.00  0.00    +0.000 A 
ATOM     16  N   UNL     1       3.499   3.871  19.332  0.00  0.00    +0.000 NA
ATOM     17  C   UNL     1       2.896   3.286  20.384  0.00  0.00    +0.000 A 
ATOM     18  C   UNL     1       1.959   3.914  21.165  0.00  0.00    +0.000 A 
ATOM     19  C   UNL     1       1.648   5.239  20.865  0.00  0.00    +0.000 A 
ATOM     20  C   UNL     1       2.306   5.941  19.827  0.00  0.00    +0.000 A 
ENDBRANCH   7  11
BRANCH   1  24
ATOM     21  C   UNL     1       4.437  14.835  20.291  0.00  0.00    +0.000 C 
ATOM     22  C   UNL     1       3.023  14.514  19.891  0.00  0.00    +0.000 A 
ATOM     23  C   UNL     1       2.377  13.463  20.580  0.00  0.00    +0.000 A 
ATOM     24  C   UNL     1       1.070  13.057  20.279  0.00  0.00    +0.000 A 
ATOM     25  C   UNL     1       0.392  13.726  19.257  0.00  0.00    +0.000 A 
ATOM     26  C   UNL     1       1.014  14.755  18.546  0.00  0.00    +0.000 A 
ATOM     27  C   UNL     1       2.325  15.159  18.851  0.00  0.00    +0.000 A 
BRANCH  27  28
ATOM     28  C   UNL     1       2.894  16.197  17.943  0.00  0.00    +0.000 C 
ATOM     29  O   UNL     1       2.785  17.390  18.172  0.00  0.00    +0.000 OA
BRANCH  28  30
ATOM     30  O   UNL     1       3.590  15.724  16.891  0.00  0.00    +0.000 OA
ATOM     31  H   UNL     1       3.564  14.759  16.792  0.00  0.00    +0.000 HD
ENDBRANCH  28  30
ENDBRANCH  27  28
ENDBRANCH   1  24
TORSDOF 4
ENDMDL
MODEL 8
REMARK VINA RESULT:      -8.3      1.892      3.168
REMARK  Name = 
REMARK  5 active torsions:
REMARK  status: ('A' for Active; 'I' for Inactive)
REMARK    1  A    between atoms: C_1  and  C_2
REMARK    2  A    between atoms: C_4  and  C_5
REMARK    3  A    between atoms: C_11  and  C_12
REMARK    4  A    between atoms: C_26  and  C_27
REMARK    5  A    between atoms: C_27  and  O_29
REMARK                            x       y       z     vdW  Elec       q    Type
REMARK                         _______ _______ _______ _____ _____    ______ ____
ROOT
ATOM      1  C   UNL     1       3.251   5.668  19.317  0.00  0.00    +0.000 A 
ATOM      2  C   UNL     1       3.030   4.671  20.252  0.00  0.00    +0.000 A 
ATOM      3  N   UNL     1       2.117   5.129  21.167  0.00  0.00    +0.000 N 
ATOM      4  C   UNL     1       1.720   6.391  20.829  0.00  0.00    +0.000 A 
ATOM      5  N   UNL     1       0.773   7.085  21.480  0.00  0.00    +0.000 NA
ATOM      6  C   UNL     1       0.541   8.303  20.923  0.00  0.00    +0.000 A 
ATOM      7  C   UNL     1       1.221   8.900  19.854  0.00  0.00    +0.000 A 
ATOM      8  C   UNL     1       2.194   8.091  19.235  0.00  0.00    +0.000 A 
ATOM      9  C   UNL     1       2.442   6.786  19.712  0.00  0.00    +0.000 A 
ATOM     10  H   UNL     1       1.751   4.621  21.960  0.00  0.00    +0.000 HD
ENDROOT
BRANCH   7  11
ATOM     11  C   UNL     1       0.895  10.260  19.332  0.00  0.00    +0.000 A 
ATOM     12  C   UNL     1       1.877  11.270  19.440  0.00  0.00    +0.000 A 
ATOM     13  C   UNL     1       1.673  12.548  18.938  0.00  0.00    +0.000 A 
ATOM     14  C   UNL     1       0.490  12.837  18.271  0.00  0.00    +0.000 A 
ATOM     15  C   UNL     1      -0.511  11.894  18.120  0.00  0.00    +0.000 A 
ATOM     16  N   UNL     1      -1.599  12.276  17.432  0.00  0.00    +0.000 NA
ATOM     17  C   UNL     1      -2.606  11.395  17.284  0.00  0.00    +0.000 A 
ATOM     18  C   UNL     1      -2.603  10.141  17.843  0.00  0.00    +0.000 A 
ATOM     19  C   UNL     1      -1.477   9.759  18.571  0.00  0.00    +0.000 A 
ATOM     20  C   UNL     1      -0.348  10.604  18.693  0.00  0.00    +0.000 A 
ENDBRANCH   7  11
BRANCH   1  24
ATOM     21  C   UNL     1       7.391   7.035  16.916  0.00  0.00    +0.000 C 
ATOM     22  C   UNL     1       6.169   6.158  16.929  0.00  0.00    +0.000 A 
ATOM     23  C   UNL     1       5.293   6.285  18.031  0.00  0.00    +0.000 A 
ATOM     24  C   UNL     1       4.136   5.505  18.166  0.00  0.00    +0.000 A 
ATOM     25  C   UNL     1       3.851   4.571  17.166  0.00  0.00    +0.000 A 
ATOM     26  C   UNL     1       4.711   4.412  16.077  0.00  0.00    +0.000 A 
ATOM     27  C   UNL     1       5.869   5.196  15.945  0.00  0.00    +0.000 A 
BRANCH  27  28
ATOM     28  C   UNL     1       6.743   4.844  14.788  0.00  0.00    +0.000 C 
ATOM     29  O   UNL     1       7.700   5.529  14.465  0.00  0.00    +0.000 OA
BRANCH  28  30
ATOM     30  O   UNL     1       6.442   3.688  14.168  0.00  0.00    +0.000 OA
ATOM     31  H   UNL     1       7.176   3.293  13.671  0.00  0.00    +0.000 HD
ENDBRANCH  28  30
ENDBRANCH  27  28
ENDBRANCH   1  24
TORSDOF 4
ENDMDL
MODEL 9
REMARK VINA RESULT:      -8.3      4.426      6.987
REMARK  Name = 
REMARK  5 active torsions:
REMARK  status: ('A' for Active; 'I' for Inactive)
REMARK    1  A    between atoms: C_1  and  C_2
REMARK    2  A    between atoms: C_4  and  C_5
REMARK    3  A    between atoms: C_11  and  C_12
REMARK    4  A    between atoms: C_26  and  C_27
REMARK    5  A    between atoms: C_27  and  O_29
REMARK                            x       y       z     vdW  Elec       q    Type
REMARK                         _______ _______ _______ _____ _____    ______ ____
ROOT
ATOM      1  C   UNL     1       1.772   9.161  18.766  0.00  0.00    +0.000 A 
ATOM      2  C   UNL     1       2.644   9.659  17.812  0.00  0.00    +0.000 A 
ATOM      3  N   UNL     1       2.397  10.999  17.657  0.00  0.00    +0.000 N 
ATOM      4  C   UNL     1       1.403  11.386  18.510  0.00  0.00    +0.000 A 
ATOM      5  N   UNL     1       0.985  12.653  18.657  0.00  0.00    +0.000 NA
ATOM      6  C   UNL     1       0.007  12.775  19.594  0.00  0.00    +0.000 A 
ATOM      7  C   UNL     1      -0.628  11.751  20.308  0.00  0.00    +0.000 A 
ATOM      8  C   UNL     1      -0.116  10.458  20.087  0.00  0.00    +0.000 A 
ATOM      9  C   UNL     1       0.948  10.260  19.182  0.00  0.00    +0.000 A 
ATOM     10  H   UNL     1       2.882  11.634  17.039  0.00  0.00    +0.000 HD
ENDROOT
BRANCH   7  11
ATOM     11  C   UNL     1      -1.711  11.998  21.305  0.00  0.00    +0.000 A 
ATOM     12  C   UNL     1      -1.378  11.954  22.677  0.00  0.00    +0.000 A 
ATOM     13  C   UNL     1      -2.315  12.220  23.668  0.00  0.00    +0.000 A 
ATOM     14  C   UNL     1      -3.606  12.580  23.306  0.00  0.00    +0.000 A 
ATOM     15  C   UNL     1      -3.999  12.652  21.982  0.00  0.00    +0.000 A 
ATOM     16  N   UNL     1      -5.263  13.040  21.749  0.00  0.00    +0.000 NA
ATOM     17  C   UNL     1      -5.691  13.099  20.474  0.00  0.00    +0.000 A 
ATOM     18  C   UNL     1      -4.919  12.735  19.399  0.00  0.00    +0.000 A 
ATOM     19  C   UNL     1      -3.613  12.316  19.651  0.00  0.00    +0.000 A 
ATOM     20  C   UNL     1      -3.072  12.312  20.959  0.00  0.00    +0.000 A 
ENDBRANCH   7  11
BRANCH   1  24
ATOM     21  C   UNL     1       2.458   4.352  17.681  0.00  0.00    +0.000 C 
ATOM     22  C   UNL     1       2.101   5.373  18.726  0.00  0.00    +0.000 A 
ATOM     23  C   UNL     1       2.081   6.729  18.326  0.00  0.00    +0.000 A 
ATOM     24  C   UNL     1       1.787   7.771  19.217  0.00  0.00    +0.000 A 
ATOM     25  C   UNL     1       1.505   7.443  20.545  0.00  0.00    +0.000 A 
ATOM     26  C   UNL     1       1.536   6.112  20.970  0.00  0.00    +0.000 A 
ATOM     27  C   UNL     1       1.831   5.070  20.075  0.00  0.00    +0.000 A 
BRANCH  27  28
ATOM     28  C   UNL     1       1.930   3.715  20.692  0.00  0.00    +0.000 C 
ATOM     29  O   UNL     1       2.992   3.256  21.080  0.00  0.00    +0.000 OA
BRANCH  28  30
ATOM     30  O   UNL     1       0.762   3.065  20.848  0.00  0.00    +0.000 OA
ATOM     31  H   UNL     1       0.787   2.126  20.602  0.00  0.00    +0.000 HD
ENDBRANCH  28  30
ENDBRANCH  27  28
ENDBRANCH   1  24
TORSDOF 4
ENDMDL
