MODEL 1
REMARK VINA RESULT:      -6.9      0.000      0.000
REMARK  Name = 
REMARK  11 active torsions:
REMARK  status: ('A' for Active; 'I' for Inactive)
REMARK    1  A    between atoms: C_1  and  O_2
REMARK    2  A    between atoms: O_2  and  C_3
REMARK    3  A    between atoms: C_3  and  C_4
REMARK    4  A    between atoms: C_9  and  N_10
REMARK    5  A    between atoms: C_11  and  C_12
REMARK    6  A    between atoms: C_14  and  C_15
REMARK    7  A    between atoms: C_15  and  O_16
REMARK    8  A    between atoms: C_15  and  C_17
REMARK    9  A    between atoms: C_17  and  O_18
REMARK   10  A    between atoms: C_17  and  C_19
REMARK   11  A    between atoms: C_19  and  O_20
REMARK                            x       y       z     vdW  Elec       q    Type
REMARK                         _______ _______ _______ _____ _____    ______ ____
ROOT
ATOM      1  C   UNL     1       5.857   6.571  17.203  0.00  0.00    +0.000 C 
ATOM      2  C   UNL     1       4.445   7.014  16.867  0.00  0.00    +0.000 C 
ATOM      3  C   UNL     1       3.373   6.807  17.639  0.00  0.00    +0.000 C 
ATOM      4  C   UNL     1       3.495   6.077  18.935  0.00  0.00    +0.000 C 
ATOM      5  C   UNL     1       4.851   5.297  19.074  0.00  0.00    +0.000 C 
ATOM      6  O   UNL     1       5.941   6.112  18.584  0.00  0.00    +0.000 OA
ENDROOT
BRANCH   4   7
ATOM      7  N   UNL     1       2.293   5.277  19.058  0.00  0.00    +0.000 N 
ATOM      8  C   UNL     1       1.798   4.803  20.245  0.00  0.00    +0.000 C 
ATOM      9  C   UNL     1       0.695   3.784  20.076  0.00  0.00    +0.000 C 
ATOM     10  O   UNL     1       2.211   5.113  21.358  0.00  0.00    +0.000 OA
ATOM     11  H   UNL     1       1.850   5.014  18.182  0.00  0.00    +0.000 HD
ENDBRANCH   4   7
BRANCH   1  12
ATOM     12  C   UNL     1       6.311   5.436  16.117  0.00  0.00    +0.000 C 
ATOM     13  O   UNL     1       7.460   4.915  16.321  0.00  0.00    +0.000 OA
ATOM     14  O   UNL     1       5.512   5.189  15.167  0.00  0.00    +0.000 OA
ENDBRANCH   1  12
BRANCH   1  16
ATOM     15  C   UNL     1       7.832   7.817  17.814  0.00  0.00    +0.000 C 
ATOM     16  O   UNL     1       6.616   7.806  17.080  0.00  0.00    +0.000 OA
ENDBRANCH   1  16
BRANCH   5  17
ATOM     17  C   UNL     1       4.949   3.830  18.551  0.00  0.00    +0.000 C 
BRANCH  17  18
ATOM     18  O   UNL     1       6.338   3.440  18.475  0.00  0.00    +0.000 OA
ATOM     19  H   UNL     1       6.415   2.557  18.873  0.00  0.00    +0.000 HD
ENDBRANCH  17  18
BRANCH  17  20
ATOM     20  C   UNL     1       4.245   2.755  19.409  0.00  0.00    +0.000 C 
BRANCH  20  21
ATOM     21  O   UNL     1       5.208   1.994  20.162  0.00  0.00    +0.000 OA
ATOM     22  H   UNL     1       5.223   1.105  19.751  0.00  0.00    +0.000 HD
ENDBRANCH  20  21
BRANCH  20  23
ATOM     23  C   UNL     1       3.365   1.802  18.578  0.00  0.00    +0.000 C 
BRANCH  23  24
ATOM     24  O   UNL     1       4.082   0.631  18.200  0.00  0.00    +0.000 OA
ATOM     25  H   UNL     1       4.371   0.221  19.049  0.00  0.00    +0.000 HD
ENDBRANCH  23  24
ENDBRANCH  20  23
ENDBRANCH  17  20
ENDBRANCH   5  17
TORSDOF 9
ENDMDL
MODEL 2
REMARK VINA RESULT:      -6.3      0.794      1.346
REMARK  Name = 
REMARK  11 active torsions:
REMARK  status: ('A' for Active; 'I' for Inactive)
REMARK    1  A    between atoms: C_1  and  O_2
REMARK    2  A    between atoms: O_2  and  C_3
REMARK    3  A    between atoms: C_3  and  C_4
REMARK    4  A    between atoms: C_9  and  N_10
REMARK    5  A    between atoms: C_11  and  C_12
REMARK    6  A    between atoms: C_14  and  C_15
REMARK    7  A    between atoms: C_15  and  O_16
REMARK    8  A    between atoms: C_15  and  C_17
REMARK    9  A    between atoms: C_17  and  O_18
REMARK   10  A    between atoms: C_17  and  C_19
REMARK   11  A    between atoms: C_19  and  O_20
REMARK                            x       y       z     vdW  Elec       q    Type
REMARK                         _______ _______ _______ _____ _____    ______ ____
ROOT
ATOM      1  C   UNL     1       5.891   6.551  17.026  0.00  0.00    +0.000 C 
ATOM      2  C   UNL     1       4.549   7.260  17.072  0.00  0.00    +0.000 C 
ATOM      3  C   UNL     1       3.554   6.962  17.912  0.00  0.00    +0.000 C 
ATOM      4  C   UNL     1       3.694   5.849  18.898  0.00  0.00    +0.000 C 
ATOM      5  C   UNL     1       4.899   4.894  18.577  0.00  0.00    +0.000 C 
ATOM      6  O   UNL     1       6.051   5.671  18.177  0.00  0.00    +0.000 OA
ENDROOT
BRANCH   4   7
ATOM      7  N   UNL     1       2.392   5.217  18.974  0.00  0.00    +0.000 N 
ATOM      8  C   UNL     1       1.839   4.723  20.127  0.00  0.00    +0.000 C 
ATOM      9  C   UNL     1       0.604   3.885  19.894  0.00  0.00    +0.000 C 
ATOM     10  O   UNL     1       2.295   4.884  21.255  0.00  0.00    +0.000 OA
ATOM     11  H   UNL     1       1.914   5.089  18.086  0.00  0.00    +0.000 HD
ENDBRANCH   4   7
BRANCH   1  12
ATOM     12  C   UNL     1       6.011   5.770  15.595  0.00  0.00    +0.000 C 
ATOM     13  O   UNL     1       4.902   5.548  15.000  0.00  0.00    +0.000 OA
ATOM     14  O   UNL     1       7.171   5.432  15.214  0.00  0.00    +0.000 OA
ENDBRANCH   1  12
BRANCH   1  16
ATOM     15  C   UNL     1       7.884   7.415  18.080  0.00  0.00    +0.000 C 
ATOM     16  O   UNL     1       6.837   7.651  17.150  0.00  0.00    +0.000 OA
ENDBRANCH   1  16
BRANCH   5  17
ATOM     17  C   UNL     1       4.677   3.669  17.635  0.00  0.00    +0.000 C 
BRANCH  17  18
ATOM     18  O   UNL     1       5.914   3.354  16.960  0.00  0.00    +0.000 OA
ATOM     19  H   UNL     1       5.691   2.835  16.168  0.00  0.00    +0.000 HD
ENDBRANCH  17  18
BRANCH  17  20
ATOM     20  C   UNL     1       4.212   2.364  18.318  0.00  0.00    +0.000 C 
BRANCH  20  21
ATOM     21  O   UNL     1       2.832   2.091  18.007  0.00  0.00    +0.000 OA
ATOM     22  H   UNL     1       2.581   2.743  17.321  0.00  0.00    +0.000 HD
ENDBRANCH  20  21
BRANCH  20  23
ATOM     23  C   UNL     1       4.405   2.381  19.846  0.00  0.00    +0.000 C 
BRANCH  23  24
ATOM     24  O   UNL     1       5.321   1.374  20.265  0.00  0.00    +0.000 OA
ATOM     25  H   UNL     1       4.813   0.809  20.894  0.00  0.00    +0.000 HD
ENDBRANCH  23  24
ENDBRANCH  20  23
ENDBRANCH  17  20
ENDBRANCH   5  17
TORSDOF 9
ENDMDL
MODEL 3
REMARK VINA RESULT:      -6.3      1.268      1.595
REMARK  Name = 
REMARK  11 active torsions:
REMARK  status: ('A' for Active; 'I' for Inactive)
REMARK    1  A    between atoms: C_1  and  O_2
REMARK    2  A    between atoms: O_2  and  C_3
REMARK    3  A    between atoms: C_3  and  C_4
REMARK    4  A    between atoms: C_9  and  N_10
REMARK    5  A    between atoms: C_11  and  C_12
REMARK    6  A    between atoms: C_14  and  C_15
REMARK    7  A    between atoms: C_15  and  O_16
REMARK    8  A    between atoms: C_15  and  C_17
REMARK    9  A    between atoms: C_17  and  O_18
REMARK   10  A    between atoms: C_17  and  C_19
REMARK   11  A    between atoms: C_19  and  O_20
REMARK                            x       y       z     vdW  Elec       q    Type
REMARK                         _______ _______ _______ _____ _____    ______ ____
ROOT
ATOM      1  C   UNL     1       6.491   5.790  17.322  0.00  0.00    +0.000 C 
ATOM      2  C   UNL     1       5.471   6.797  17.820  0.00  0.00    +0.000 C 
ATOM      3  C   UNL     1       4.461   6.519  18.650  0.00  0.00    +0.000 C 
ATOM      4  C   UNL     1       4.248   5.129  19.153  0.00  0.00    +0.000 C 
ATOM      5  C   UNL     1       5.047   4.052  18.337  0.00  0.00    +0.000 C 
ATOM      6  O   UNL     1       6.380   4.535  18.056  0.00  0.00    +0.000 OA
ENDROOT
BRANCH   4   7
ATOM      7  N   UNL     1       2.812   4.941  19.208  0.00  0.00    +0.000 N 
ATOM      8  C   UNL     1       2.120   4.597  20.341  0.00  0.00    +0.000 C 
ATOM      9  C   UNL     1       0.684   4.206  20.077  0.00  0.00    +0.000 C 
ATOM     10  O   UNL     1       2.593   4.553  21.473  0.00  0.00    +0.000 OA
ATOM     11  H   UNL     1       2.326   5.012  18.318  0.00  0.00    +0.000 HD
ENDBRANCH   4   7
BRANCH   1  12
ATOM     12  C   UNL     1       6.293   5.613  15.709  0.00  0.00    +0.000 C 
ATOM     13  O   UNL     1       7.156   4.867  15.132  0.00  0.00    +0.000 OA
ATOM     14  O   UNL     1       5.334   6.239  15.170  0.00  0.00    +0.000 OA
ENDBRANCH   1  12
BRANCH   1  16
ATOM     15  C   UNL     1       7.740   7.837  17.597  0.00  0.00    +0.000 C 
ATOM     16  O   UNL     1       7.757   6.419  17.671  0.00  0.00    +0.000 OA
ENDBRANCH   1  16
BRANCH   5  17
ATOM     17  C   UNL     1       4.393   3.405  17.076  0.00  0.00    +0.000 C 
BRANCH  17  18
ATOM     18  O   UNL     1       5.413   2.754  16.288  0.00  0.00    +0.000 OA
ATOM     19  H   UNL     1       6.170   2.583  16.875  0.00  0.00    +0.000 HD
ENDBRANCH  17  18
BRANCH  17  20
ATOM     20  C   UNL     1       3.308   2.338  17.346  0.00  0.00    +0.000 C 
BRANCH  20  21
ATOM     21  O   UNL     1       1.994   2.925  17.296  0.00  0.00    +0.000 OA
ATOM     22  H   UNL     1       1.971   3.455  16.472  0.00  0.00    +0.000 HD
ENDBRANCH  20  21
BRANCH  20  23
ATOM     23  C   UNL     1       3.500   1.610  18.690  0.00  0.00    +0.000 C 
BRANCH  23  24
ATOM     24  O   UNL     1       4.437   0.544  18.574  0.00  0.00    +0.000 OA
ATOM     25  H   UNL     1       4.934   0.545  19.426  0.00  0.00    +0.000 HD
ENDBRANCH  23  24
ENDBRANCH  20  23
ENDBRANCH  17  20
ENDBRANCH   5  17
TORSDOF 9
ENDMDL
MODEL 4
REMARK VINA RESULT:      -6.0      2.423      5.832
REMARK  Name = 
REMARK  11 active torsions:
REMARK  status: ('A' for Active; 'I' for Inactive)
REMARK    1  A    between atoms: C_1  and  O_2
REMARK    2  A    between atoms: O_2  and  C_3
REMARK    3  A    between atoms: C_3  and  C_4
REMARK    4  A    between atoms: C_9  and  N_10
REMARK    5  A    between atoms: C_11  and  C_12
REMARK    6  A    between atoms: C_14  and  C_15
REMARK    7  A    between atoms: C_15  and  O_16
REMARK    8  A    between atoms: C_15  and  C_17
REMARK    9  A    between atoms: C_17  and  O_18
REMARK   10  A    between atoms: C_17  and  C_19
REMARK   11  A    between atoms: C_19  and  O_20
REMARK                            x       y       z     vdW  Elec       q    Type
REMARK                         _______ _______ _______ _____ _____    ______ ____
ROOT
ATOM      1  C   UNL     1       2.408   2.831  19.687  0.00  0.00    +0.000 C 
ATOM      2  C   UNL     1       3.845   2.378  19.502  0.00  0.00    +0.000 C 
ATOM      3  C   UNL     1       4.906   3.190  19.472  0.00  0.00    +0.000 C 
ATOM      4  C   UNL     1       4.740   4.668  19.607  0.00  0.00    +0.000 C 
ATOM      5  C   UNL     1       3.257   5.140  19.401  0.00  0.00    +0.000 C 
ATOM      6  O   UNL     1       2.354   4.235  20.075  0.00  0.00    +0.000 OA
ENDROOT
BRANCH   4   7
ATOM      7  N   UNL     1       5.720   5.262  18.719  0.00  0.00    +0.000 N 
ATOM      8  C   UNL     1       6.977   5.649  19.103  0.00  0.00    +0.000 C 
ATOM      9  C   UNL     1       7.699   6.475  18.064  0.00  0.00    +0.000 C 
ATOM     10  O   UNL     1       7.489   5.409  20.192  0.00  0.00    +0.000 OA
ATOM     11  H   UNL     1       5.397   5.449  17.773  0.00  0.00    +0.000 HD
ENDBRANCH   4   7
BRANCH   1  12
ATOM     12  C   UNL     1       1.587   2.511  18.310  0.00  0.00    +0.000 C 
ATOM     13  O   UNL     1       2.307   2.388  17.261  0.00  0.00    +0.000 OA
ATOM     14  O   UNL     1       0.325   2.437  18.390  0.00  0.00    +0.000 OA
ENDBRANCH   1  12
BRANCH   1  16
ATOM     15  C   UNL     1       1.426   2.774  21.892  0.00  0.00    +0.000 C 
ATOM     16  O   UNL     1       1.961   2.022  20.812  0.00  0.00    +0.000 OA
ENDBRANCH   1  16
BRANCH   5  17
ATOM     17  C   UNL     1       2.755   5.489  17.964  0.00  0.00    +0.000 C 
BRANCH  17  18
ATOM     18  O   UNL     1       1.341   5.212  17.871  0.00  0.00    +0.000 OA
ATOM     19  H   UNL     1       0.883   6.065  17.778  0.00  0.00    +0.000 HD
ENDBRANCH  17  18
BRANCH  17  20
ATOM     20  C   UNL     1       2.940   6.957  17.519  0.00  0.00    +0.000 C 
BRANCH  20  21
ATOM     21  O   UNL     1       4.333   7.252  17.306  0.00  0.00    +0.000 OA
ATOM     22  H   UNL     1       4.461   8.170  17.625  0.00  0.00    +0.000 HD
ENDBRANCH  20  21
BRANCH  20  23
ATOM     23  C   UNL     1       2.342   7.969  18.515  0.00  0.00    +0.000 C 
BRANCH  23  24
ATOM     24  O   UNL     1       1.941   9.168  17.859  0.00  0.00    +0.000 OA
ATOM     25  H   UNL     1       1.143   9.475  18.350  0.00  0.00    +0.000 HD
ENDBRANCH  23  24
ENDBRANCH  20  23
ENDBRANCH  17  20
ENDBRANCH   5  17
TORSDOF 9
ENDMDL
MODEL 5
REMARK VINA RESULT:      -6.0      2.269      5.567
REMARK  Name = 
REMARK  11 active torsions:
REMARK  status: ('A' for Active; 'I' for Inactive)
REMARK    1  A    between atoms: C_1  and  O_2
REMARK    2  A    between atoms: O_2  and  C_3
REMARK    3  A    between atoms: C_3  and  C_4
REMARK    4  A    between atoms: C_9  and  N_10
REMARK    5  A    between atoms: C_11  and  C_12
REMARK    6  A    between atoms: C_14  and  C_15
REMARK    7  A    between atoms: C_15  and  O_16
REMARK    8  A    between atoms: C_15  and  C_17
REMARK    9  A    between atoms: C_17  and  O_18
REMARK   10  A    between atoms: C_17  and  C_19
REMARK   11  A    between atoms: C_19  and  O_20
REMARK                            x       y       z     vdW  Elec       q    Type
REMARK                         _______ _______ _______ _____ _____    ______ ____
ROOT
ATOM      1  C   UNL     1       2.540   3.105  19.440  0.00  0.00    +0.000 C 
ATOM      2  C   UNL     1       3.956   2.591  19.256  0.00  0.00    +0.000 C 
ATOM      3  C   UNL     1       5.061   3.335  19.358  0.00  0.00    +0.000 C 
ATOM      4  C   UNL     1       4.973   4.795  19.657  0.00  0.00    +0.000 C 
ATOM      5  C   UNL     1       3.529   5.377  19.454  0.00  0.00    +0.000 C 
ATOM      6  O   UNL     1       2.548   4.457  19.986  0.00  0.00    +0.000 OA
ENDROOT
BRANCH   4   7
ATOM      7  N   UNL     1       6.021   5.426  18.879  0.00  0.00    +0.000 N 
ATOM      8  C   UNL     1       7.268   5.724  19.362  0.00  0.00    +0.000 C 
ATOM      9  C   UNL     1       8.077   6.611  18.442  0.00  0.00    +0.000 C 
ATOM     10  O   UNL     1       7.710   5.366  20.449  0.00  0.00    +0.000 OA
ATOM     11  H   UNL     1       5.758   5.711  17.939  0.00  0.00    +0.000 HD
ENDBRANCH   4   7
BRANCH   1  12
ATOM     12  C   UNL     1       1.762   2.993  18.007  0.00  0.00    +0.000 C 
ATOM     13  O   UNL     1       2.435   2.460  17.061  0.00  0.00    +0.000 OA
ATOM     14  O   UNL     1       0.586   3.461  17.947  0.00  0.00    +0.000 OA
ENDBRANCH   1  12
BRANCH   1  16
ATOM     15  C   UNL     1       1.495   2.857  21.602  0.00  0.00    +0.000 C 
ATOM     16  O   UNL     1       2.002   2.203  20.447  0.00  0.00    +0.000 OA
ENDBRANCH   1  16
BRANCH   5  17
ATOM     17  C   UNL     1       3.108   5.915  18.050  0.00  0.00    +0.000 C 
BRANCH  17  18
ATOM     18  O   UNL     1       1.706   6.260  18.070  0.00  0.00    +0.000 OA
ATOM     19  H   UNL     1       1.559   6.841  18.835  0.00  0.00    +0.000 HD
ENDBRANCH  17  18
BRANCH  17  20
ATOM     20  C   UNL     1       3.856   7.174  17.556  0.00  0.00    +0.000 C 
BRANCH  20  21
ATOM     21  O   UNL     1       2.927   8.231  17.250  0.00  0.00    +0.000 OA
ATOM     22  H   UNL     1       2.106   7.785  16.955  0.00  0.00    +0.000 HD
ENDBRANCH  20  21
BRANCH  20  23
ATOM     23  C   UNL     1       4.752   6.901  16.332  0.00  0.00    +0.000 C 
BRANCH  23  24
ATOM     24  O   UNL     1       4.942   5.505  16.128  0.00  0.00    +0.000 OA
ATOM     25  H   UNL     1       5.587   5.439  15.385  0.00  0.00    +0.000 HD
ENDBRANCH  23  24
ENDBRANCH  20  23
ENDBRANCH  17  20
ENDBRANCH   5  17
TORSDOF 9
ENDMDL
MODEL 6
REMARK VINA RESULT:      -6.0      1.307      1.466
REMARK  Name = 
REMARK  11 active torsions:
REMARK  status: ('A' for Active; 'I' for Inactive)
REMARK    1  A    between atoms: C_1  and  O_2
REMARK    2  A    between atoms: O_2  and  C_3
REMARK    3  A    between atoms: C_3  and  C_4
REMARK    4  A    between atoms: C_9  and  N_10
REMARK    5  A    between atoms: C_11  and  C_12
REMARK    6  A    between atoms: C_14  and  C_15
REMARK    7  A    between atoms: C_15  and  O_16
REMARK    8  A    between atoms: C_15  and  C_17
REMARK    9  A    between atoms: C_17  and  O_18
REMARK   10  A    between atoms: C_17  and  C_19
REMARK   11  A    between atoms: C_19  and  O_20
REMARK                            x       y       z     vdW  Elec       q    Type
REMARK                         _______ _______ _______ _____ _____    ______ ____
ROOT
ATOM      1  C   UNL     1       6.272   5.788  16.846  0.00  0.00    +0.000 C 
ATOM      2  C   UNL     1       5.206   6.850  17.047  0.00  0.00    +0.000 C 
ATOM      3  C   UNL     1       4.260   6.816  17.991  0.00  0.00    +0.000 C 
ATOM      4  C   UNL     1       4.173   5.669  18.943  0.00  0.00    +0.000 C 
ATOM      5  C   UNL     1       5.008   4.423  18.481  0.00  0.00    +0.000 C 
ATOM      6  O   UNL     1       6.288   4.852  17.963  0.00  0.00    +0.000 OA
ENDROOT
BRANCH   4   7
ATOM      7  N   UNL     1       2.759   5.435  19.158  0.00  0.00    +0.000 N 
ATOM      8  C   UNL     1       2.232   4.874  20.292  0.00  0.00    +0.000 C 
ATOM      9  C   UNL     1       0.774   4.498  20.159  0.00  0.00    +0.000 C 
ATOM     10  O   UNL     1       2.858   4.638  21.321  0.00  0.00    +0.000 OA
ATOM     11  H   UNL     1       2.154   5.654  18.371  0.00  0.00    +0.000 HD
ENDBRANCH   4   7
BRANCH   1  12
ATOM     12  C   UNL     1       6.011   5.065  15.403  0.00  0.00    +0.000 C 
ATOM     13  O   UNL     1       6.952   4.303  14.996  0.00  0.00    +0.000 OA
ATOM     14  O   UNL     1       4.928   5.337  14.805  0.00  0.00    +0.000 OA
ENDBRANCH   1  12
BRANCH   1  16
ATOM     15  C   UNL     1       7.890   6.994  18.172  0.00  0.00    +0.000 C 
ATOM     16  O   UNL     1       7.504   6.564  16.874  0.00  0.00    +0.000 OA
ENDBRANCH   1  16
BRANCH   5  17
ATOM     17  C   UNL     1       4.344   3.354  17.558  0.00  0.00    +0.000 C 
BRANCH  17  18
ATOM     18  O   UNL     1       5.357   2.735  16.736  0.00  0.00    +0.000 OA
ATOM     19  H   UNL     1       6.160   2.650  17.277  0.00  0.00    +0.000 HD
ENDBRANCH  17  18
BRANCH  17  20
ATOM     20  C   UNL     1       3.607   2.201  18.277  0.00  0.00    +0.000 C 
BRANCH  20  21
ATOM     21  O   UNL     1       4.260   0.943  18.022  0.00  0.00    +0.000 OA
ATOM     22  H   UNL     1       5.220   1.123  18.094  0.00  0.00    +0.000 HD
ENDBRANCH  20  21
BRANCH  20  23
ATOM     23  C   UNL     1       2.120   2.101  17.889  0.00  0.00    +0.000 C 
BRANCH  23  24
ATOM     24  O   UNL     1       1.696   3.247  17.157  0.00  0.00    +0.000 OA
ATOM     25  H   UNL     1       2.314   3.307  16.392  0.00  0.00    +0.000 HD
ENDBRANCH  23  24
ENDBRANCH  20  23
ENDBRANCH  17  20
ENDBRANCH   5  17
TORSDOF 9
ENDMDL
MODEL 7
REMARK VINA RESULT:      -6.0      0.986      1.021
REMARK  Name = 
REMARK  11 active torsions:
REMARK  status: ('A' for Active; 'I' for Inactive)
REMARK    1  A    between atoms: C_1  and  O_2
REMARK    2  A    between atoms: O_2  and  C_3
REMARK    3  A    between atoms: C_3  and  C_4
REMARK    4  A    between atoms: C_9  and  N_10
REMARK    5  A    between atoms: C_11  and  C_12
REMARK    6  A    between atoms: C_14  and  C_15
REMARK    7  A    between atoms: C_15  and  O_16
REMARK    8  A    between atoms: C_15  and  C_17
REMARK    9  A    between atoms: C_17  and  O_18
REMARK   10  A    between atoms: C_17  and  C_19
REMARK   11  A    between atoms: C_19  and  O_20
REMARK                            x       y       z     vdW  Elec       q    Type
REMARK                         _______ _______ _______ _____ _____    ______ ____
ROOT
ATOM      1  C   UNL     1       6.226   6.014  17.017  0.00  0.00    +0.000 C 
ATOM      2  C   UNL     1       4.877   6.626  16.686  0.00  0.00    +0.000 C 
ATOM      3  C   UNL     1       3.838   6.687  17.524  0.00  0.00    +0.000 C 
ATOM      4  C   UNL     1       3.932   6.117  18.901  0.00  0.00    +0.000 C 
ATOM      5  C   UNL     1       5.163   5.159  19.085  0.00  0.00    +0.000 C 
ATOM      6  O   UNL     1       6.328   5.726  18.442  0.00  0.00    +0.000 OA
ENDROOT
BRANCH   4   7
ATOM      7  N   UNL     1       2.635   5.536  19.182  0.00  0.00    +0.000 N 
ATOM      8  C   UNL     1       1.756   6.021  20.116  0.00  0.00    +0.000 C 
ATOM      9  C   UNL     1       0.601   5.090  20.401  0.00  0.00    +0.000 C 
ATOM     10  O   UNL     1       1.881   7.082  20.720  0.00  0.00    +0.000 OA
ATOM     11  H   UNL     1       2.422   4.676  18.683  0.00  0.00    +0.000 HD
ENDBRANCH   4   7
BRANCH   1  12
ATOM     12  C   UNL     1       6.437   4.694  16.075  0.00  0.00    +0.000 C 
ATOM     13  O   UNL     1       7.635   4.255  16.012  0.00  0.00    +0.000 OA
ATOM     14  O   UNL     1       5.418   4.241  15.475  0.00  0.00    +0.000 OA
ENDBRANCH   1  12
BRANCH   1  16
ATOM     15  C   UNL     1       7.732   7.717  17.831  0.00  0.00    +0.000 C 
ATOM     16  O   UNL     1       7.152   7.091  16.696  0.00  0.00    +0.000 OA
ENDBRANCH   1  16
BRANCH   5  17
ATOM     17  C   UNL     1       5.009   3.641  18.759  0.00  0.00    +0.000 C 
BRANCH  17  18
ATOM     18  O   UNL     1       5.706   2.863  19.757  0.00  0.00    +0.000 OA
ATOM     19  H   UNL     1       6.505   2.501  19.338  0.00  0.00    +0.000 HD
ENDBRANCH  17  18
BRANCH  17  20
ATOM     20  C   UNL     1       3.562   3.099  18.722  0.00  0.00    +0.000 C 
BRANCH  20  21
ATOM     21  O   UNL     1       3.112   2.759  20.047  0.00  0.00    +0.000 OA
ATOM     22  H   UNL     1       2.741   3.586  20.421  0.00  0.00    +0.000 HD
ENDBRANCH  20  21
BRANCH  20  23
ATOM     23  C   UNL     1       3.397   1.883  17.791  0.00  0.00    +0.000 C 
BRANCH  23  24
ATOM     24  O   UNL     1       4.042   0.730  18.324  0.00  0.00    +0.000 OA
ATOM     25  H   UNL     1       5.005   0.885  18.182  0.00  0.00    +0.000 HD
ENDBRANCH  23  24
ENDBRANCH  20  23
ENDBRANCH  17  20
ENDBRANCH   5  17
TORSDOF 9
ENDMDL
MODEL 8
REMARK VINA RESULT:      -5.9      1.927      3.981
REMARK  Name = 
REMARK  11 active torsions:
REMARK  status: ('A' for Active; 'I' for Inactive)
REMARK    1  A    between atoms: C_1  and  O_2
REMARK    2  A    between atoms: O_2  and  C_3
REMARK    3  A    between atoms: C_3  and  C_4
REMARK    4  A    between atoms: C_9  and  N_10
REMARK    5  A    between atoms: C_11  and  C_12
REMARK    6  A    between atoms: C_14  and  C_15
REMARK    7  A    between atoms: C_15  and  O_16
REMARK    8  A    between atoms: C_15  and  C_17
REMARK    9  A    between atoms: C_17  and  O_18
REMARK   10  A    between atoms: C_17  and  C_19
REMARK   11  A    between atoms: C_19  and  O_20
REMARK                            x       y       z     vdW  Elec       q    Type
REMARK                         _______ _______ _______ _____ _____    ______ ____
ROOT
ATOM      1  C   UNL     1       6.735   5.779  16.443  0.00  0.00    +0.000 C 
ATOM      2  C   UNL     1       6.974   4.440  17.117  0.00  0.00    +0.000 C 
ATOM      3  C   UNL     1       6.015   3.581  17.474  0.00  0.00    +0.000 C 
ATOM      4  C   UNL     1       4.576   3.902  17.240  0.00  0.00    +0.000 C 
ATOM      5  C   UNL     1       4.331   5.419  16.918  0.00  0.00    +0.000 C 
ATOM      6  O   UNL     1       5.348   5.901  16.011  0.00  0.00    +0.000 OA
ENDROOT
BRANCH   4   7
ATOM      7  N   UNL     1       3.858   3.378  18.386  0.00  0.00    +0.000 N 
ATOM      8  C   UNL     1       2.748   2.579  18.302  0.00  0.00    +0.000 C 
ATOM      9  C   UNL     1       2.039   2.389  19.624  0.00  0.00    +0.000 C 
ATOM     10  O   UNL     1       2.308   2.084  17.269  0.00  0.00    +0.000 OA
ATOM     11  H   UNL     1       4.189   3.695  19.293  0.00  0.00    +0.000 HD
ENDBRANCH   4   7
BRANCH   1  12
ATOM     12  C   UNL     1       7.196   6.962  17.473  0.00  0.00    +0.000 C 
ATOM     13  O   UNL     1       7.027   8.154  17.045  0.00  0.00    +0.000 OA
ATOM     14  O   UNL     1       7.697   6.605  18.580  0.00  0.00    +0.000 OA
ENDBRANCH   1  12
BRANCH   1  16
ATOM     15  C   UNL     1       7.049   4.893  14.219  0.00  0.00    +0.000 C 
ATOM     16  O   UNL     1       7.582   5.697  15.261  0.00  0.00    +0.000 OA
ENDBRANCH   1  16
BRANCH   5  17
ATOM     17  C   UNL     1       4.084   6.422  18.089  0.00  0.00    +0.000 C 
BRANCH  17  18
ATOM     18  O   UNL     1       4.034   7.767  17.565  0.00  0.00    +0.000 OA
ATOM     19  H   UNL     1       3.812   8.359  18.303  0.00  0.00    +0.000 HD
ENDBRANCH  17  18
BRANCH  17  20
ATOM     20  C   UNL     1       2.778   6.221  18.890  0.00  0.00    +0.000 C 
BRANCH  20  21
ATOM     21  O   UNL     1       1.748   5.664  18.051  0.00  0.00    +0.000 OA
ATOM     22  H   UNL     1       1.193   6.423  17.774  0.00  0.00    +0.000 HD
ENDBRANCH  20  21
BRANCH  20  23
ATOM     23  C   UNL     1       2.268   7.517  19.547  0.00  0.00    +0.000 C 
BRANCH  23  24
ATOM     24  O   UNL     1       1.922   7.306  20.913  0.00  0.00    +0.000 OA
ATOM     25  H   UNL     1       1.510   6.411  20.938  0.00  0.00    +0.000 HD
ENDBRANCH  23  24
ENDBRANCH  20  23
ENDBRANCH  17  20
ENDBRANCH   5  17
TORSDOF 9
ENDMDL
MODEL 9
REMARK VINA RESULT:      -5.9      1.799      3.944
REMARK  Name = 
REMARK  11 active torsions:
REMARK  status: ('A' for Active; 'I' for Inactive)
REMARK    1  A    between atoms: C_1  and  O_2
REMARK    2  A    between atoms: O_2  and  C_3
REMARK    3  A    between atoms: C_3  and  C_4
REMARK    4  A    between atoms: C_9  and  N_10
REMARK    5  A    between atoms: C_11  and  C_12
REMARK    6  A    between atoms: C_14  and  C_15
REMARK    7  A    between atoms: C_15  and  O_16
REMARK    8  A    between atoms: C_15  and  C_17
REMARK    9  A    between atoms: C_17  and  O_18
REMARK   10  A    between atoms: C_17  and  C_19
REMARK   11  A    between atoms: C_19  and  O_20
REMARK                            x       y       z     vdW  Elec       q    Type
REMARK                         _______ _______ _______ _____ _____    ______ ____
ROOT
ATOM      1  C   UNL     1       6.521   5.339  16.802  0.00  0.00    +0.000 C 
ATOM      2  C   UNL     1       6.395   4.157  17.746  0.00  0.00    +0.000 C 
ATOM      3  C   UNL     1       5.242   3.584  18.105  0.00  0.00    +0.000 C 
ATOM      4  C   UNL     1       3.939   4.103  17.593  0.00  0.00    +0.000 C 
ATOM      5  C   UNL     1       4.056   5.534  16.957  0.00  0.00    +0.000 C 
ATOM      6  O   UNL     1       5.250   5.615  16.144  0.00  0.00    +0.000 OA
ENDROOT
BRANCH   4   7
ATOM      7  N   UNL     1       3.000   3.978  18.690  0.00  0.00    +0.000 N 
ATOM      8  C   UNL     1       1.918   3.137  18.689  0.00  0.00    +0.000 C 
ATOM      9  C   UNL     1       0.957   3.385  19.829  0.00  0.00    +0.000 C 
ATOM     10  O   UNL     1       1.688   2.281  17.839  0.00  0.00    +0.000 OA
ATOM     11  H   UNL     1       3.147   4.616  19.468  0.00  0.00    +0.000 HD
ENDBRANCH   4   7
BRANCH   1  12
ATOM     12  C   UNL     1       7.098   6.613  17.650  0.00  0.00    +0.000 C 
ATOM     13  O   UNL     1       7.171   7.712  17.002  0.00  0.00    +0.000 OA
ATOM     14  O   UNL     1       7.443   6.403  18.851  0.00  0.00    +0.000 OA
ENDBRANCH   1  12
BRANCH   1  16
ATOM     15  C   UNL     1       6.908   4.707  14.505  0.00  0.00    +0.000 C 
ATOM     16  O   UNL     1       7.463   4.852  15.805  0.00  0.00    +0.000 OA
ENDBRANCH   1  16
BRANCH   5  17
ATOM     17  C   UNL     1       3.892   6.793  17.864  0.00  0.00    +0.000 C 
BRANCH  17  18
ATOM     18  O   UNL     1       4.408   7.952  17.173  0.00  0.00    +0.000 OA
ATOM     19  H   UNL     1       5.159   8.289  17.689  0.00  0.00    +0.000 HD
ENDBRANCH  17  18
BRANCH  17  20
ATOM     20  C   UNL     1       2.446   7.145  18.280  0.00  0.00    +0.000 C 
BRANCH  20  21
ATOM     21  O   UNL     1       2.009   8.353  17.627  0.00  0.00    +0.000 OA
ATOM     22  H   UNL     1       1.031   8.348  17.689  0.00  0.00    +0.000 HD
ENDBRANCH  20  21
BRANCH  20  23
ATOM     23  C   UNL     1       2.275   7.288  19.804  0.00  0.00    +0.000 C 
BRANCH  23  24
ATOM     24  O   UNL     1       2.838   6.179  20.496  0.00  0.00    +0.000 OA
ATOM     25  H   UNL     1       2.924   5.468  19.818  0.00  0.00    +0.000 HD
ENDBRANCH  23  24
ENDBRANCH  20  23
ENDBRANCH  17  20
ENDBRANCH   5  17
TORSDOF 9
ENDMDL
