MODEL 1
REMARK VINA RESULT:      -7.4      0.000      0.000
REMARK  Name = 
REMARK  13 active torsions:
REMARK  status: ('A' for Active; 'I' for Inactive)
REMARK    1  A    between atoms: C_1  and  C_2
REMARK    2  A    between atoms: C_2  and  C_3
REMARK    3  A    between atoms: C_3  and  C_4
REMARK    4  A    between atoms: C_4  and  C_5
REMARK    5  A    between atoms: C_5  and  C_6
REMARK    6  A    between atoms: C_6  and  C_8
REMARK    7  A    between atoms: C_8  and  C_9
REMARK    8  A    between atoms: C_9  and  C_10
REMARK    9  A    between atoms: C_10  and  C_11
REMARK   10  A    between atoms: C_17  and  O_18
REMARK   11  A    between atoms: O_18  and  C_19
REMARK   12  A    between atoms: C_22  and  C_23
REMARK   13  A    between atoms: N_26  and  C_27
REMARK                            x       y       z     vdW  Elec       q    Type
REMARK                         _______ _______ _______ _____ _____    ______ ____
ROOT
ATOM      1  C   UNL     1       2.850   5.684  19.899  0.00  0.00    +0.000 C 
ATOM      2  C   UNL     1       2.210   4.544  20.942  0.00  0.00    +0.000 C 
ATOM      3  C   UNL     1       3.890   4.487  19.664  0.00  0.00    +0.000 C 
ATOM      4  C   UNL     1       5.256   5.233  19.626  0.00  0.00    +0.000 C 
ATOM      5  C   UNL     1       5.606   5.373  18.271  0.00  0.00    +0.000 A 
ATOM      6  C   UNL     1       6.828   4.944  17.781  0.00  0.00    +0.000 A 
ATOM      7  C   UNL     1       7.050   4.798  16.423  0.00  0.00    +0.000 A 
ATOM      8  C   UNL     1       6.008   5.149  15.488  0.00  0.00    +0.000 A 
ATOM      9  C   UNL     1       4.804   5.746  16.026  0.00  0.00    +0.000 A 
ATOM     10  C   UNL     1       4.558   5.815  17.433  0.00  0.00    +0.000 A 
ATOM     11  C   UNL     1       3.151   6.158  18.210  0.00  0.00    +0.000 C 
ATOM     12  C   UNL     1       3.235   7.685  17.878  0.00  0.00    +0.000 C 
ATOM     13  C   UNL     1       2.024   5.389  17.455  0.00  0.00    +0.000 C 
ATOM     14  C   UNL     1       2.065   3.908  17.907  0.00  0.00    +0.000 C 
ATOM     15  N   UNL     1       3.363   3.511  18.551  0.00  0.00    +0.000 NA
ATOM     16  C   UNL     1       4.299   2.963  17.567  0.00  0.00    +0.000 C 
ENDROOT
BRANCH   8  17
ATOM     17  O   UNL     1       6.051   4.897  14.169  0.00  0.00    +0.000 OA
ATOM     18  C   UNL     1       6.007   3.684  13.425  0.00  0.00    +0.000 C 
ENDBRANCH   8  17
BRANCH   1  19
ATOM     19  C   UNL     1       1.578   6.654  20.316  0.00  0.00    +0.000 C 
BRANCH  19  20
ATOM     20  C   UNL     1       1.667   7.970  21.189  0.00  0.00    +0.000 C 
BRANCH  20  21
ATOM     21  C   UNL     1       0.529   8.917  20.993  0.00  0.00    +0.000 C 
ATOM     22  O   UNL     1      -0.545   8.711  21.553  0.00  0.00    +0.000 OA
BRANCH  21  23
ATOM     23  C   UNL     1       0.750  10.155  20.194  0.00  0.00    +0.000 C 
BRANCH  23  24
ATOM     24  C   UNL     1       0.299   9.931  18.768  0.00  0.00    +0.000 C 
BRANCH  24  25
ATOM     25  C   UNL     1      -1.091  10.497  18.560  0.00  0.00    +0.000 C 
BRANCH  25  27
ATOM     26  C   UNL     1      -3.172   9.791  17.382  0.00  0.00    +0.000 C 
ATOM     27  C   UNL     1      -1.665   9.907  17.279  0.00  0.00    +0.000 C 
ENDBRANCH  25  27
ENDBRANCH  24  25
ENDBRANCH  23  24
ENDBRANCH  21  23
ENDBRANCH  20  21
ENDBRANCH  19  20
ENDBRANCH   1  19
TORSDOF 8
ENDMDL
MODEL 2
REMARK VINA RESULT:      -7.0      1.887      2.293
REMARK  Name = 
REMARK  13 active torsions:
REMARK  status: ('A' for Active; 'I' for Inactive)
REMARK    1  A    between atoms: C_1  and  C_2
REMARK    2  A    between atoms: C_2  and  C_3
REMARK    3  A    between atoms: C_3  and  C_4
REMARK    4  A    between atoms: C_4  and  C_5
REMARK    5  A    between atoms: C_5  and  C_6
REMARK    6  A    between atoms: C_6  and  C_8
REMARK    7  A    between atoms: C_8  and  C_9
REMARK    8  A    between atoms: C_9  and  C_10
REMARK    9  A    between atoms: C_10  and  C_11
REMARK   10  A    between atoms: C_17  and  O_18
REMARK   11  A    between atoms: O_18  and  C_19
REMARK   12  A    between atoms: C_22  and  C_23
REMARK   13  A    between atoms: N_26  and  C_27
REMARK                            x       y       z     vdW  Elec       q    Type
REMARK                         _______ _______ _______ _____ _____    ______ ____
ROOT
ATOM      1  C   UNL     1       2.811   5.746  19.911  0.00  0.00    +0.000 C 
ATOM      2  C   UNL     1       2.202   4.785  21.136  0.00  0.00    +0.000 C 
ATOM      3  C   UNL     1       3.817   4.502  19.806  0.00  0.00    +0.000 C 
ATOM      4  C   UNL     1       5.193   5.202  19.598  0.00  0.00    +0.000 C 
ATOM      5  C   UNL     1       5.479   5.136  18.223  0.00  0.00    +0.000 A 
ATOM      6  C   UNL     1       6.669   4.611  17.746  0.00  0.00    +0.000 A 
ATOM      7  C   UNL     1       6.822   4.266  16.414  0.00  0.00    +0.000 A 
ATOM      8  C   UNL     1       5.742   4.503  15.486  0.00  0.00    +0.000 A 
ATOM      9  C   UNL     1       4.577   5.201  15.986  0.00  0.00    +0.000 A 
ATOM     10  C   UNL     1       4.400   5.478  17.378  0.00  0.00    +0.000 A 
ATOM     11  C   UNL     1       3.038   5.964  18.160  0.00  0.00    +0.000 C 
ATOM     12  C   UNL     1       3.133   7.425  17.606  0.00  0.00    +0.000 C 
ATOM     13  C   UNL     1       1.863   5.122  17.576  0.00  0.00    +0.000 C 
ATOM     14  C   UNL     1       1.899   3.721  18.235  0.00  0.00    +0.000 C 
ATOM     15  N   UNL     1       3.219   3.390  18.871  0.00  0.00    +0.000 NA
ATOM     16  C   UNL     1       4.097   2.683  17.936  0.00  0.00    +0.000 C 
ENDROOT
BRANCH   8  17
ATOM     17  O   UNL     1       5.717   4.063  14.217  0.00  0.00    +0.000 OA
ATOM     18  C   UNL     1       6.676   4.121  13.166  0.00  0.00    +0.000 C 
ENDBRANCH   8  17
BRANCH   1  19
ATOM     19  C   UNL     1       1.578   6.797  20.240  0.00  0.00    +0.000 C 
BRANCH  19  20
ATOM     20  C   UNL     1       1.733   8.348  20.511  0.00  0.00    +0.000 C 
BRANCH  20  21
ATOM     21  C   UNL     1       1.198   8.799  21.829  0.00  0.00    +0.000 C 
ATOM     22  O   UNL     1       1.958   9.270  22.673  0.00  0.00    +0.000 OA
BRANCH  21  23
ATOM     23  C   UNL     1      -0.273   8.761  22.062  0.00  0.00    +0.000 C 
BRANCH  23  24
ATOM     24  C   UNL     1      -0.663   9.833  23.054  0.00  0.00    +0.000 C 
BRANCH  24  25
ATOM     25  C   UNL     1      -0.901  11.149  22.341  0.00  0.00    +0.000 C 
BRANCH  25  27
ATOM     26  C   UNL     1      -1.598  13.341  23.304  0.00  0.00    +0.000 C 
ATOM     27  C   UNL     1      -2.005  11.901  23.072  0.00  0.00    +0.000 C 
ENDBRANCH  25  27
ENDBRANCH  24  25
ENDBRANCH  23  24
ENDBRANCH  21  23
ENDBRANCH  20  21
ENDBRANCH  19  20
ENDBRANCH   1  19
TORSDOF 8
ENDMDL
MODEL 3
REMARK VINA RESULT:      -6.9      2.376      7.620
REMARK  Name = 
REMARK  13 active torsions:
REMARK  status: ('A' for Active; 'I' for Inactive)
REMARK    1  A    between atoms: C_1  and  C_2
REMARK    2  A    between atoms: C_2  and  C_3
REMARK    3  A    between atoms: C_3  and  C_4
REMARK    4  A    between atoms: C_4  and  C_5
REMARK    5  A    between atoms: C_5  and  C_6
REMARK    6  A    between atoms: C_6  and  C_8
REMARK    7  A    between atoms: C_8  and  C_9
REMARK    8  A    between atoms: C_9  and  C_10
REMARK    9  A    between atoms: C_10  and  C_11
REMARK   10  A    between atoms: C_17  and  O_18
REMARK   11  A    between atoms: O_18  and  C_19
REMARK   12  A    between atoms: C_22  and  C_23
REMARK   13  A    between atoms: N_26  and  C_27
REMARK                            x       y       z     vdW  Elec       q    Type
REMARK                         _______ _______ _______ _____ _____    ______ ____
ROOT
ATOM      1  C   UNL     1       4.982   4.555  16.055  0.00  0.00    +0.000 C 
ATOM      2  C   UNL     1       6.030   3.258  15.931  0.00  0.00    +0.000 C 
ATOM      3  C   UNL     1       4.380   3.609  17.201  0.00  0.00    +0.000 C 
ATOM      4  C   UNL     1       2.845   3.751  16.979  0.00  0.00    +0.000 C 
ATOM      5  C   UNL     1       2.378   4.667  17.939  0.00  0.00    +0.000 A 
ATOM      6  C   UNL     1       1.335   4.363  18.797  0.00  0.00    +0.000 A 
ATOM      7  C   UNL     1       1.083   5.125  19.924  0.00  0.00    +0.000 A 
ATOM      8  C   UNL     1       1.886   6.293  20.191  0.00  0.00    +0.000 A 
ATOM      9  C   UNL     1       2.859   6.674  19.190  0.00  0.00    +0.000 A 
ATOM     10  C   UNL     1       3.164   5.834  18.073  0.00  0.00    +0.000 A 
ATOM     11  C   UNL     1       4.429   5.937  17.029  0.00  0.00    +0.000 C 
ATOM     12  C   UNL     1       3.825   7.172  16.279  0.00  0.00    +0.000 C 
ATOM     13  C   UNL     1       5.693   6.252  17.887  0.00  0.00    +0.000 C 
ATOM     14  C   UNL     1       6.171   4.932  18.541  0.00  0.00    +0.000 C 
ATOM     15  N   UNL     1       5.122   3.857  18.563  0.00  0.00    +0.000 NA
ATOM     16  C   UNL     1       4.354   3.889  19.810  0.00  0.00    +0.000 C 
ENDROOT
BRANCH   8  17
ATOM     17  O   UNL     1       1.839   7.008  21.328  0.00  0.00    +0.000 OA
ATOM     18  C   UNL     1       1.304   8.292  21.629  0.00  0.00    +0.000 C 
ENDBRANCH   8  17
BRANCH   1  19
ATOM     19  C   UNL     1       5.889   5.289  14.884  0.00  0.00    +0.000 C 
BRANCH  19  20
ATOM     20  C   UNL     1       7.291   4.788  14.351  0.00  0.00    +0.000 C 
BRANCH  20  21
ATOM     21  C   UNL     1       7.584   5.168  12.937  0.00  0.00    +0.000 C 
ATOM     22  O   UNL     1       8.405   6.051  12.695  0.00  0.00    +0.000 OA
BRANCH  21  23
ATOM     23  C   UNL     1       6.943   4.398  11.835  0.00  0.00    +0.000 C 
BRANCH  23  24
ATOM     24  C   UNL     1       6.638   2.993  12.303  0.00  0.00    +0.000 C 
BRANCH  24  25
ATOM     25  C   UNL     1       5.435   2.441  11.563  0.00  0.00    +0.000 C 
BRANCH  25  27
ATOM     26  C   UNL     1       3.292   3.169  10.517  0.00  0.00    +0.000 C 
ATOM     27  C   UNL     1       4.347   3.508  11.549  0.00  0.00    +0.000 C 
ENDBRANCH  25  27
ENDBRANCH  24  25
ENDBRANCH  23  24
ENDBRANCH  21  23
ENDBRANCH  20  21
ENDBRANCH  19  20
ENDBRANCH   1  19
TORSDOF 8
ENDMDL
MODEL 4
REMARK VINA RESULT:      -6.9      3.593      6.960
REMARK  Name = 
REMARK  13 active torsions:
REMARK  status: ('A' for Active; 'I' for Inactive)
REMARK    1  A    between atoms: C_1  and  C_2
REMARK    2  A    between atoms: C_2  and  C_3
REMARK    3  A    between atoms: C_3  and  C_4
REMARK    4  A    between atoms: C_4  and  C_5
REMARK    5  A    between atoms: C_5  and  C_6
REMARK    6  A    between atoms: C_6  and  C_8
REMARK    7  A    between atoms: C_8  and  C_9
REMARK    8  A    between atoms: C_9  and  C_10
REMARK    9  A    between atoms: C_10  and  C_11
REMARK   10  A    between atoms: C_17  and  O_18
REMARK   11  A    between atoms: O_18  and  C_19
REMARK   12  A    between atoms: C_22  and  C_23
REMARK   13  A    between atoms: N_26  and  C_27
REMARK                            x       y       z     vdW  Elec       q    Type
REMARK                         _______ _______ _______ _____ _____    ______ ____
ROOT
ATOM      1  C   UNL     1       5.328   5.442  16.898  0.00  0.00    +0.000 C 
ATOM      2  C   UNL     1       6.849   4.848  16.541  0.00  0.00    +0.000 C 
ATOM      3  C   UNL     1       5.056   3.873  17.081  0.00  0.00    +0.000 C 
ATOM      4  C   UNL     1       3.666   3.693  16.402  0.00  0.00    +0.000 C 
ATOM      5  C   UNL     1       2.712   3.651  17.434  0.00  0.00    +0.000 A 
ATOM      6  C   UNL     1       1.804   2.612  17.552  0.00  0.00    +0.000 A 
ATOM      7  C   UNL     1       1.084   2.412  18.717  0.00  0.00    +0.000 A 
ATOM      8  C   UNL     1       1.237   3.332  19.818  0.00  0.00    +0.000 A 
ATOM      9  C   UNL     1       2.069   4.497  19.601  0.00  0.00    +0.000 A 
ATOM     10  C   UNL     1       2.868   4.647  18.424  0.00  0.00    +0.000 A 
ATOM     11  C   UNL     1       4.088   5.713  18.144  0.00  0.00    +0.000 C 
ATOM     12  C   UNL     1       3.109   6.921  17.959  0.00  0.00    +0.000 C 
ATOM     13  C   UNL     1       4.945   5.764  19.446  0.00  0.00    +0.000 C 
ATOM     14  C   UNL     1       5.864   4.518  19.466  0.00  0.00    +0.000 C 
ATOM     15  N   UNL     1       5.412   3.422  18.544  0.00  0.00    +0.000 NA
ATOM     16  C   UNL     1       4.544   2.468  19.238  0.00  0.00    +0.000 C 
ENDROOT
BRANCH   8  17
ATOM     17  O   UNL     1       0.719   3.148  21.044  0.00  0.00    +0.000 OA
ATOM     18  C   UNL     1       1.276   2.637  22.250  0.00  0.00    +0.000 C 
ENDBRANCH   8  17
BRANCH   1  19
ATOM     19  C   UNL     1       5.968   6.954  16.702  0.00  0.00    +0.000 C 
BRANCH  19  20
ATOM     20  C   UNL     1       7.509   7.310  16.683  0.00  0.00    +0.000 C 
BRANCH  20  21
ATOM     21  C   UNL     1       8.000   7.983  17.922  0.00  0.00    +0.000 C 
ATOM     22  O   UNL     1       8.397   7.310  18.871  0.00  0.00    +0.000 OA
BRANCH  21  23
ATOM     23  C   UNL     1       8.093   9.470  17.948  0.00  0.00    +0.000 C 
BRANCH  23  24
ATOM     24  C   UNL     1       9.118   9.901  18.972  0.00  0.00    +0.000 C 
BRANCH  24  25
ATOM     25  C   UNL     1       9.974  11.024  18.419  0.00  0.00    +0.000 C 
BRANCH  25  27
ATOM     26  C   UNL     1       9.837  11.613  20.838  0.00  0.00    +0.000 C 
ATOM     27  C   UNL     1      10.678  11.710  19.582  0.00  0.00    +0.000 C 
ENDBRANCH  25  27
ENDBRANCH  24  25
ENDBRANCH  23  24
ENDBRANCH  21  23
ENDBRANCH  20  21
ENDBRANCH  19  20
ENDBRANCH   1  19
TORSDOF 8
ENDMDL
MODEL 5
REMARK VINA RESULT:      -6.9      1.620      2.056
REMARK  Name = 
REMARK  13 active torsions:
REMARK  status: ('A' for Active; 'I' for Inactive)
REMARK    1  A    between atoms: C_1  and  C_2
REMARK    2  A    between atoms: C_2  and  C_3
REMARK    3  A    between atoms: C_3  and  C_4
REMARK    4  A    between atoms: C_4  and  C_5
REMARK    5  A    between atoms: C_5  and  C_6
REMARK    6  A    between atoms: C_6  and  C_8
REMARK    7  A    between atoms: C_8  and  C_9
REMARK    8  A    between atoms: C_9  and  C_10
REMARK    9  A    between atoms: C_10  and  C_11
REMARK   10  A    between atoms: C_17  and  O_18
REMARK   11  A    between atoms: O_18  and  C_19
REMARK   12  A    between atoms: C_22  and  C_23
REMARK   13  A    between atoms: N_26  and  C_27
REMARK                            x       y       z     vdW  Elec       q    Type
REMARK                         _______ _______ _______ _____ _____    ______ ____
ROOT
ATOM      1  C   UNL     1       2.771   5.577  19.979  0.00  0.00    +0.000 C 
ATOM      2  C   UNL     1       2.186   4.568  21.177  0.00  0.00    +0.000 C 
ATOM      3  C   UNL     1       3.790   4.349  19.821  0.00  0.00    +0.000 C 
ATOM      4  C   UNL     1       5.156   5.070  19.623  0.00  0.00    +0.000 C 
ATOM      5  C   UNL     1       5.428   5.054  18.243  0.00  0.00    +0.000 A 
ATOM      6  C   UNL     1       6.618   4.559  17.737  0.00  0.00    +0.000 A 
ATOM      7  C   UNL     1       6.760   4.260  16.393  0.00  0.00    +0.000 A 
ATOM      8  C   UNL     1       5.669   4.516  15.484  0.00  0.00    +0.000 A 
ATOM      9  C   UNL     1       4.501   5.184  16.019  0.00  0.00    +0.000 A 
ATOM     10  C   UNL     1       4.336   5.412  17.421  0.00  0.00    +0.000 A 
ATOM     11  C   UNL     1       2.977   5.856  18.233  0.00  0.00    +0.000 C 
ATOM     12  C   UNL     1       3.050   7.336  17.728  0.00  0.00    +0.000 C 
ATOM     13  C   UNL     1       1.805   5.020  17.634  0.00  0.00    +0.000 C 
ATOM     14  C   UNL     1       1.864   3.599  18.245  0.00  0.00    +0.000 C 
ATOM     15  N   UNL     1       3.194   3.262  18.855  0.00  0.00    +0.000 NA
ATOM     16  C   UNL     1       4.069   2.596  17.888  0.00  0.00    +0.000 C 
ENDROOT
BRANCH   8  17
ATOM     17  O   UNL     1       5.635   4.119  14.202  0.00  0.00    +0.000 OA
ATOM     18  C   UNL     1       6.642   4.038  13.199  0.00  0.00    +0.000 C 
ENDBRANCH   8  17
BRANCH   1  19
ATOM     19  C   UNL     1       1.530   6.602  20.356  0.00  0.00    +0.000 C 
BRANCH  19  20
ATOM     20  C   UNL     1       1.666   7.964  21.148  0.00  0.00    +0.000 C 
BRANCH  20  21
ATOM     21  C   UNL     1       0.896   9.099  20.558  0.00  0.00    +0.000 C 
ATOM     22  O   UNL     1       0.954   9.318  19.350  0.00  0.00    +0.000 OA
BRANCH  21  23
ATOM     23  C   UNL     1      -0.011   9.890  21.436  0.00  0.00    +0.000 C 
BRANCH  23  24
ATOM     24  C   UNL     1       0.083  11.356  21.081  0.00  0.00    +0.000 C 
BRANCH  24  25
ATOM     25  C   UNL     1      -0.565  12.202  22.159  0.00  0.00    +0.000 C 
BRANCH  25  27
ATOM     26  C   UNL     1      -2.732  11.979  23.371  0.00  0.00    +0.000 C 
ATOM     27  C   UNL     1      -1.425  11.295  23.030  0.00  0.00    +0.000 C 
ENDBRANCH  25  27
ENDBRANCH  24  25
ENDBRANCH  23  24
ENDBRANCH  21  23
ENDBRANCH  20  21
ENDBRANCH  19  20
ENDBRANCH   1  19
TORSDOF 8
ENDMDL
MODEL 6
REMARK VINA RESULT:      -6.8      1.189      1.632
REMARK  Name = 
REMARK  13 active torsions:
REMARK  status: ('A' for Active; 'I' for Inactive)
REMARK    1  A    between atoms: C_1  and  C_2
REMARK    2  A    between atoms: C_2  and  C_3
REMARK    3  A    between atoms: C_3  and  C_4
REMARK    4  A    between atoms: C_4  and  C_5
REMARK    5  A    between atoms: C_5  and  C_6
REMARK    6  A    between atoms: C_6  and  C_8
REMARK    7  A    between atoms: C_8  and  C_9
REMARK    8  A    between atoms: C_9  and  C_10
REMARK    9  A    between atoms: C_10  and  C_11
REMARK   10  A    between atoms: C_17  and  O_18
REMARK   11  A    between atoms: O_18  and  C_19
REMARK   12  A    between atoms: C_22  and  C_23
REMARK   13  A    between atoms: N_26  and  C_27
REMARK                            x       y       z     vdW  Elec       q    Type
REMARK                         _______ _______ _______ _____ _____    ______ ____
ROOT
ATOM      1  C   UNL     1       2.709   5.579  19.974  0.00  0.00    +0.000 C 
ATOM      2  C   UNL     1       2.057   4.411  20.977  0.00  0.00    +0.000 C 
ATOM      3  C   UNL     1       3.778   4.405  19.754  0.00  0.00    +0.000 C 
ATOM      4  C   UNL     1       5.131   5.177  19.771  0.00  0.00    +0.000 C 
ATOM      5  C   UNL     1       5.520   5.346  18.431  0.00  0.00    +0.000 A 
ATOM      6  C   UNL     1       6.766   4.948  17.974  0.00  0.00    +0.000 A 
ATOM      7  C   UNL     1       7.033   4.829  16.621  0.00  0.00    +0.000 A 
ATOM      8  C   UNL     1       6.015   5.176  15.659  0.00  0.00    +0.000 A 
ATOM      9  C   UNL     1       4.784   5.742  16.167  0.00  0.00    +0.000 A 
ATOM     10  C   UNL     1       4.492   5.783  17.567  0.00  0.00    +0.000 A 
ATOM     11  C   UNL     1       3.055   6.087  18.304  0.00  0.00    +0.000 C 
ATOM     12  C   UNL     1       3.121   7.621  17.999  0.00  0.00    +0.000 C 
ATOM     13  C   UNL     1       1.967   5.310  17.500  0.00  0.00    +0.000 C 
ATOM     14  C   UNL     1       2.021   3.823  17.929  0.00  0.00    +0.000 C 
ATOM     15  N   UNL     1       3.305   3.440  18.608  0.00  0.00    +0.000 NA
ATOM     16  C   UNL     1       4.282   2.925  17.646  0.00  0.00    +0.000 C 
ENDROOT
BRANCH   8  17
ATOM     17  O   UNL     1       6.105   4.947  14.338  0.00  0.00    +0.000 OA
ATOM     18  C   UNL     1       6.009   3.755  13.565  0.00  0.00    +0.000 C 
ENDBRANCH   8  17
BRANCH   1  19
ATOM     19  C   UNL     1       1.406   6.519  20.366  0.00  0.00    +0.000 C 
BRANCH  19  20
ATOM     20  C   UNL     1       1.454   7.863  21.199  0.00  0.00    +0.000 C 
BRANCH  20  21
ATOM     21  C   UNL     1       0.140   8.562  21.315  0.00  0.00    +0.000 C 
ATOM     22  O   UNL     1      -0.689   8.181  22.139  0.00  0.00    +0.000 OA
BRANCH  21  23
ATOM     23  C   UNL     1      -0.106   9.778  20.490  0.00  0.00    +0.000 C 
BRANCH  23  24
ATOM     24  C   UNL     1       1.151  10.147  19.735  0.00  0.00    +0.000 C 
BRANCH  24  25
ATOM     25  C   UNL     1       0.883  11.313  18.804  0.00  0.00    +0.000 C 
BRANCH  25  27
ATOM     26  C   UNL     1       2.023  13.463  18.264  0.00  0.00    +0.000 C 
ATOM     27  C   UNL     1       1.554  12.553  19.380  0.00  0.00    +0.000 C 
ENDBRANCH  25  27
ENDBRANCH  24  25
ENDBRANCH  23  24
ENDBRANCH  21  23
ENDBRANCH  20  21
ENDBRANCH  19  20
ENDBRANCH   1  19
TORSDOF 8
ENDMDL
MODEL 7
REMARK VINA RESULT:      -6.6      2.376      7.992
REMARK  Name = 
REMARK  13 active torsions:
REMARK  status: ('A' for Active; 'I' for Inactive)
REMARK    1  A    between atoms: C_1  and  C_2
REMARK    2  A    between atoms: C_2  and  C_3
REMARK    3  A    between atoms: C_3  and  C_4
REMARK    4  A    between atoms: C_4  and  C_5
REMARK    5  A    between atoms: C_5  and  C_6
REMARK    6  A    between atoms: C_6  and  C_8
REMARK    7  A    between atoms: C_8  and  C_9
REMARK    8  A    between atoms: C_9  and  C_10
REMARK    9  A    between atoms: C_10  and  C_11
REMARK   10  A    between atoms: C_17  and  O_18
REMARK   11  A    between atoms: O_18  and  C_19
REMARK   12  A    between atoms: C_22  and  C_23
REMARK   13  A    between atoms: N_26  and  C_27
REMARK                            x       y       z     vdW  Elec       q    Type
REMARK                         _______ _______ _______ _____ _____    ______ ____
ROOT
ATOM      1  C   UNL     1       5.292   4.645  16.032  0.00  0.00    +0.000 C 
ATOM      2  C   UNL     1       6.394   3.393  15.918  0.00  0.00    +0.000 C 
ATOM      3  C   UNL     1       4.671   3.637  17.114  0.00  0.00    +0.000 C 
ATOM      4  C   UNL     1       3.145   3.729  16.820  0.00  0.00    +0.000 C 
ATOM      5  C   UNL     1       2.596   4.592  17.785  0.00  0.00    +0.000 A 
ATOM      6  C   UNL     1       1.524   4.219  18.579  0.00  0.00    +0.000 A 
ATOM      7  C   UNL     1       1.187   4.930  19.717  0.00  0.00    +0.000 A 
ATOM      8  C   UNL     1       1.930   6.118  20.063  0.00  0.00    +0.000 A 
ATOM      9  C   UNL     1       2.936   6.570  19.126  0.00  0.00    +0.000 A 
ATOM     10  C   UNL     1       3.328   5.782  17.998  0.00  0.00    +0.000 A 
ATOM     11  C   UNL     1       4.638   5.970  17.023  0.00  0.00    +0.000 C 
ATOM     12  C   UNL     1       4.024   7.207  16.286  0.00  0.00    +0.000 C 
ATOM     13  C   UNL     1       5.845   6.301  17.955  0.00  0.00    +0.000 C 
ATOM     14  C   UNL     1       6.342   4.977  18.587  0.00  0.00    +0.000 C 
ATOM     15  N   UNL     1       5.336   3.864  18.520  0.00  0.00    +0.000 NA
ATOM     16  C   UNL     1       4.507   3.822  19.727  0.00  0.00    +0.000 C 
ENDROOT
BRANCH   8  17
ATOM     17  O   UNL     1       1.800   6.789  21.220  0.00  0.00    +0.000 OA
ATOM     18  C   UNL     1       1.220   8.051  21.532  0.00  0.00    +0.000 C 
ENDBRANCH   8  17
BRANCH   1  19
ATOM     19  C   UNL     1       6.226   5.454  14.934  0.00  0.00    +0.000 C 
BRANCH  19  20
ATOM     20  C   UNL     1       7.506   4.875  14.206  0.00  0.00    +0.000 C 
BRANCH  20  21
ATOM     21  C   UNL     1       7.471   4.989  12.718  0.00  0.00    +0.000 C 
ATOM     22  O   UNL     1       7.835   6.028  12.171  0.00  0.00    +0.000 OA
BRANCH  21  23
ATOM     23  C   UNL     1       7.085   3.797  11.912  0.00  0.00    +0.000 C 
BRANCH  23  24
ATOM     24  C   UNL     1       5.673   3.381  12.258  0.00  0.00    +0.000 C 
BRANCH  24  25
ATOM     25  C   UNL     1       5.266   2.170  11.441  0.00  0.00    +0.000 C 
BRANCH  25  27
ATOM     26  C   UNL     1       6.175  -0.148  11.308  0.00  0.00    +0.000 C 
ATOM     27  C   UNL     1       6.506   1.325  11.182  0.00  0.00    +0.000 C 
ENDBRANCH  25  27
ENDBRANCH  24  25
ENDBRANCH  23  24
ENDBRANCH  21  23
ENDBRANCH  20  21
ENDBRANCH  19  20
ENDBRANCH   1  19
TORSDOF 8
ENDMDL
MODEL 8
REMARK VINA RESULT:      -6.5      0.940      1.039
REMARK  Name = 
REMARK  13 active torsions:
REMARK  status: ('A' for Active; 'I' for Inactive)
REMARK    1  A    between atoms: C_1  and  C_2
REMARK    2  A    between atoms: C_2  and  C_3
REMARK    3  A    between atoms: C_3  and  C_4
REMARK    4  A    between atoms: C_4  and  C_5
REMARK    5  A    between atoms: C_5  and  C_6
REMARK    6  A    between atoms: C_6  and  C_8
REMARK    7  A    between atoms: C_8  and  C_9
REMARK    8  A    between atoms: C_9  and  C_10
REMARK    9  A    between atoms: C_10  and  C_11
REMARK   10  A    between atoms: C_17  and  O_18
REMARK   11  A    between atoms: O_18  and  C_19
REMARK   12  A    between atoms: C_22  and  C_23
REMARK   13  A    between atoms: N_26  and  C_27
REMARK                            x       y       z     vdW  Elec       q    Type
REMARK                         _______ _______ _______ _____ _____    ______ ____
ROOT
ATOM      1  C   UNL     1       2.941   5.668  19.750  0.00  0.00    +0.000 C 
ATOM      2  C   UNL     1       2.322   4.710  20.972  0.00  0.00    +0.000 C 
ATOM      3  C   UNL     1       4.031   4.493  19.752  0.00  0.00    +0.000 C 
ATOM      4  C   UNL     1       5.368   5.277  19.600  0.00  0.00    +0.000 C 
ATOM      5  C   UNL     1       5.743   5.184  18.247  0.00  0.00    +0.000 A 
ATOM      6  C   UNL     1       6.991   4.726  17.862  0.00  0.00    +0.000 A 
ATOM      7  C   UNL     1       7.249   4.346  16.556  0.00  0.00    +0.000 A 
ATOM      8  C   UNL     1       6.216   4.477  15.558  0.00  0.00    +0.000 A 
ATOM      9  C   UNL     1       4.978   5.111  15.960  0.00  0.00    +0.000 A 
ATOM     10  C   UNL     1       4.698   5.423  17.327  0.00  0.00    +0.000 A 
ATOM     11  C   UNL     1       3.261   5.841  18.008  0.00  0.00    +0.000 C 
ATOM     12  C   UNL     1       3.293   7.285  17.405  0.00  0.00    +0.000 C 
ATOM     13  C   UNL     1       2.182   4.901  17.388  0.00  0.00    +0.000 C 
ATOM     14  C   UNL     1       2.270   3.530  18.102  0.00  0.00    +0.000 C 
ATOM     15  N   UNL     1       3.567   3.311  18.827  0.00  0.00    +0.000 NA
ATOM     16  C   UNL     1       4.546   2.634  17.973  0.00  0.00    +0.000 C 
ENDROOT
BRANCH   8  17
ATOM     17  O   UNL     1       6.298   3.993  14.307  0.00  0.00    +0.000 OA
ATOM     18  C   UNL     1       5.342   3.888  13.258  0.00  0.00    +0.000 C 
ENDBRANCH   8  17
BRANCH   1  19
ATOM     19  C   UNL     1       1.623   6.643  19.964  0.00  0.00    +0.000 C 
BRANCH  19  20
ATOM     20  C   UNL     1       1.546   7.893  20.931  0.00  0.00    +0.000 C 
BRANCH  20  21
ATOM     21  C   UNL     1       1.148   9.166  20.260  0.00  0.00    +0.000 C 
ATOM     22  O   UNL     1       1.307   9.299  19.049  0.00  0.00    +0.000 OA
BRANCH  21  23
ATOM     23  C   UNL     1       0.468  10.221  21.062  0.00  0.00    +0.000 C 
BRANCH  23  24
ATOM     24  C   UNL     1       0.119  11.394  20.174  0.00  0.00    +0.000 C 
BRANCH  24  25
ATOM     25  C   UNL     1      -1.359  11.380  19.839  0.00  0.00    +0.000 C 
BRANCH  25  27
ATOM     26  C   UNL     1      -1.817  10.197  17.692  0.00  0.00    +0.000 C 
ATOM     27  C   UNL     1      -1.514  11.536  18.332  0.00  0.00    +0.000 C 
ENDBRANCH  25  27
ENDBRANCH  24  25
ENDBRANCH  23  24
ENDBRANCH  21  23
ENDBRANCH  20  21
ENDBRANCH  19  20
ENDBRANCH   1  19
TORSDOF 8
ENDMDL
MODEL 9
REMARK VINA RESULT:      -6.4      3.945      7.126
REMARK  Name = 
REMARK  13 active torsions:
REMARK  status: ('A' for Active; 'I' for Inactive)
REMARK    1  A    between atoms: C_1  and  C_2
REMARK    2  A    between atoms: C_2  and  C_3
REMARK    3  A    between atoms: C_3  and  C_4
REMARK    4  A    between atoms: C_4  and  C_5
REMARK    5  A    between atoms: C_5  and  C_6
REMARK    6  A    between atoms: C_6  and  C_8
REMARK    7  A    between atoms: C_8  and  C_9
REMARK    8  A    between atoms: C_9  and  C_10
REMARK    9  A    between atoms: C_10  and  C_11
REMARK   10  A    between atoms: C_17  and  O_18
REMARK   11  A    between atoms: O_18  and  C_19
REMARK   12  A    between atoms: C_22  and  C_23
REMARK   13  A    between atoms: N_26  and  C_27
REMARK                            x       y       z     vdW  Elec       q    Type
REMARK                         _______ _______ _______ _____ _____    ______ ____
ROOT
ATOM      1  C   UNL     1       5.923   5.693  17.028  0.00  0.00    +0.000 C 
ATOM      2  C   UNL     1       7.448   5.045  16.809  0.00  0.00    +0.000 C 
ATOM      3  C   UNL     1       5.567   4.131  17.100  0.00  0.00    +0.000 C 
ATOM      4  C   UNL     1       4.255   4.048  16.265  0.00  0.00    +0.000 C 
ATOM      5  C   UNL     1       3.191   4.004  17.184  0.00  0.00    +0.000 A 
ATOM      6  C   UNL     1       2.233   3.004  17.148  0.00  0.00    +0.000 A 
ATOM      7  C   UNL     1       1.380   2.784  18.216  0.00  0.00    +0.000 A 
ATOM      8  C   UNL     1       1.448   3.644  19.373  0.00  0.00    +0.000 A 
ATOM      9  C   UNL     1       2.347   4.777  19.308  0.00  0.00    +0.000 A 
ATOM     10  C   UNL     1       3.277   4.944  18.234  0.00  0.00    +0.000 A 
ATOM     11  C   UNL     1       4.563   5.963  18.144  0.00  0.00    +0.000 C 
ATOM     12  C   UNL     1       3.663   7.223  17.915  0.00  0.00    +0.000 C 
ATOM     13  C   UNL     1       5.272   5.914  19.532  0.00  0.00    +0.000 C 
ATOM     14  C   UNL     1       6.131   4.626  19.588  0.00  0.00    +0.000 C 
ATOM     15  N   UNL     1       5.739   3.597  18.567  0.00  0.00    +0.000 NA
ATOM     16  C   UNL     1       4.760   2.653  19.113  0.00  0.00    +0.000 C 
ENDROOT
BRANCH   8  17
ATOM     17  O   UNL     1       0.790   3.428  20.524  0.00  0.00    +0.000 OA
ATOM     18  C   UNL     1       1.186   2.832  21.754  0.00  0.00    +0.000 C 
ENDBRANCH   8  17
BRANCH   1  19
ATOM     19  C   UNL     1       6.642   7.181  16.981  0.00  0.00    +0.000 C 
BRANCH  19  20
ATOM     20  C   UNL     1       7.894   7.629  17.838  0.00  0.00    +0.000 C 
BRANCH  20  21
ATOM     21  C   UNL     1       8.099   9.107  17.901  0.00  0.00    +0.000 C 
ATOM     22  O   UNL     1       7.353   9.858  17.277  0.00  0.00    +0.000 OA
BRANCH  21  23
ATOM     23  C   UNL     1       9.151   9.651  18.803  0.00  0.00    +0.000 C 
BRANCH  23  24
ATOM     24  C   UNL     1       9.278  11.144  18.600  0.00  0.00    +0.000 C 
BRANCH  24  25
ATOM     25  C   UNL     1      10.557  11.467  17.854  0.00  0.00    +0.000 C 
BRANCH  25  27
ATOM     26  C   UNL     1      11.888  11.884  19.920  0.00  0.00    +0.000 C 
ATOM     27  C   UNL     1      11.334  12.504  18.655  0.00  0.00    +0.000 C 
ENDBRANCH  25  27
ENDBRANCH  24  25
ENDBRANCH  23  24
ENDBRANCH  21  23
ENDBRANCH  20  21
ENDBRANCH  19  20
ENDBRANCH   1  19
TORSDOF 8
ENDMDL
