MODEL 1
REMARK VINA RESULT:      -6.2      0.000      0.000
REMARK  Name = 
REMARK  17 active torsions:
REMARK  status: ('A' for Active; 'I' for Inactive)
REMARK    1  A    between atoms: C_1  and  C_2
REMARK    2  A    between atoms: C_2  and  C_3
REMARK    3  A    between atoms: C_3  and  C_4
REMARK    4  A    between atoms: C_4  and  C_5
REMARK    5  A    between atoms: C_5  and  C_6
REMARK    6  A    between atoms: C_6  and  C_7
REMARK    7  A    between atoms: C_7  and  C_8
REMARK    8  A    between atoms: C_8  and  C_9
REMARK    9  A    between atoms: C_9  and  C_10
REMARK   10  A    between atoms: C_10  and  C_11
REMARK   11  A    between atoms: C_11  and  C_12
REMARK   12  A    between atoms: C_12  and  C_13
REMARK   13  A    between atoms: C_13  and  C_14
REMARK   14  A    between atoms: C_14  and  C_15
REMARK   15  A    between atoms: C_18  and  N_19
REMARK   16  A    between atoms: C_20  and  C_21
REMARK   17  A    between atoms: C_23  and  O_24
REMARK                            x       y       z     vdW  Elec       q    Type
REMARK                         _______ _______ _______ _____ _____    ______ ____
ROOT
ATOM      1  C   UNL     1       4.752   3.583  18.016  0.00  0.00    +0.000 C 
ENDROOT
BRANCH   1   2
ATOM      2  C   UNL     1       3.471   3.584  17.186  0.00  0.00    +0.000 C 
BRANCH   2   3
ATOM      3  C   UNL     1       2.768   2.235  17.248  0.00  0.00    +0.000 C 
BRANCH   3   4
ATOM      4  C   UNL     1       2.198   1.999  18.636  0.00  0.00    +0.000 C 
BRANCH   4   5
ATOM      5  C   UNL     1       0.812   2.586  18.743  0.00  0.00    +0.000 C 
BRANCH   5   6
ATOM      6  C   UNL     1       0.717   3.423  20.003  0.00  0.00    +0.000 C 
BRANCH   6   7
ATOM      7  C   UNL     1       2.069   3.465  20.687  0.00  0.00    +0.000 C 
BRANCH   7   8
ATOM      8  C   UNL     1       2.269   4.817  21.346  0.00  0.00    +0.000 C 
BRANCH   8   9
ATOM      9  C   UNL     1       1.726   5.913  20.446  0.00  0.00    +0.000 C 
BRANCH   9  10
ATOM     10  C   UNL     1       2.848   6.517  19.616  0.00  0.00    +0.000 C 
BRANCH  10  11
ATOM     11  C   UNL     1       2.387   6.718  18.180  0.00  0.00    +0.000 C 
BRANCH  11  13
ATOM     12  C   UNL     1       1.651   9.104  18.059  0.00  0.00    +0.000 C 
ATOM     13  C   UNL     1       2.742   8.115  17.692  0.00  0.00    +0.000 C 
ENDBRANCH  11  13
ENDBRANCH  10  11
ENDBRANCH   9  10
ENDBRANCH   8   9
ENDBRANCH   7   8
ENDBRANCH   6   7
ENDBRANCH   5   6
ENDBRANCH   4   5
ENDBRANCH   3   4
ENDBRANCH   2   3
ENDBRANCH   1   2
BRANCH   1  14
ATOM     14  C   UNL     1       5.774   4.533  17.391  0.00  0.00    +0.000 C 
BRANCH  14  15
ATOM     15  C   UNL     1       6.181   4.119  15.994  0.00  0.00    +0.000 C 
ATOM     16  O   UNL     1       7.562   4.448  15.783  0.00  0.00    +0.000 OA
ATOM     17  C   UNL     1       7.691   4.940  14.432  0.00  0.00    +0.000 C 
ATOM     18  C   UNL     1       6.350   4.709  13.718  0.00  0.00    +0.000 C 
ATOM     19  C   UNL     1       5.394   4.830  14.882  0.00  0.00    +0.000 C 
BRANCH  18  20
ATOM     20  N   UNL     1       6.306   3.395  13.043  0.00  0.00    +0.000 N 
ATOM     21  C   UNL     1       5.518   2.868  12.063  0.00  0.00    +0.000 C 
ATOM     22  C   UNL     1       4.361   3.599  11.425  0.00  0.00    +0.000 C 
ATOM     23  O   UNL     1       5.812   1.728  11.685  0.00  0.00    +0.000 OA
ATOM     24  H   UNL     1       7.058   2.770  13.242  0.00  0.00    +0.000 HD
ENDBRANCH  18  20
BRANCH  19  25
ATOM     25  O   UNL     1       5.151   6.219  15.167  0.00  0.00    +0.000 OA
ATOM     26  H   UNL     1       4.403   6.289  15.787  0.00  0.00    +0.000 HD
ENDBRANCH  19  25
ENDBRANCH  14  15
ENDBRANCH   1  14
TORSDOF 15
ENDMDL
MODEL 2
REMARK VINA RESULT:      -5.7      4.865      8.460
REMARK  Name = 
REMARK  17 active torsions:
REMARK  status: ('A' for Active; 'I' for Inactive)
REMARK    1  A    between atoms: C_1  and  C_2
REMARK    2  A    between atoms: C_2  and  C_3
REMARK    3  A    between atoms: C_3  and  C_4
REMARK    4  A    between atoms: C_4  and  C_5
REMARK    5  A    between atoms: C_5  and  C_6
REMARK    6  A    between atoms: C_6  and  C_7
REMARK    7  A    between atoms: C_7  and  C_8
REMARK    8  A    between atoms: C_8  and  C_9
REMARK    9  A    between atoms: C_9  and  C_10
REMARK   10  A    between atoms: C_10  and  C_11
REMARK   11  A    between atoms: C_11  and  C_12
REMARK   12  A    between atoms: C_12  and  C_13
REMARK   13  A    between atoms: C_13  and  C_14
REMARK   14  A    between atoms: C_14  and  C_15
REMARK   15  A    between atoms: C_18  and  N_19
REMARK   16  A    between atoms: C_20  and  C_21
REMARK   17  A    between atoms: C_23  and  O_24
REMARK                            x       y       z     vdW  Elec       q    Type
REMARK                         _______ _______ _______ _____ _____    ______ ____
ROOT
ATOM      1  C   UNL     1       2.557   8.046  18.019  0.00  0.00    +0.000 C 
ENDROOT
BRANCH   1   2
ATOM      2  C   UNL     1       2.173   7.570  19.418  0.00  0.00    +0.000 C 
BRANCH   2   3
ATOM      3  C   UNL     1       2.678   6.158  19.683  0.00  0.00    +0.000 C 
BRANCH   3   4
ATOM      4  C   UNL     1       1.831   5.485  20.749  0.00  0.00    +0.000 C 
BRANCH   4   5
ATOM      5  C   UNL     1       0.974   4.404  20.138  0.00  0.00    +0.000 C 
BRANCH   5   6
ATOM      6  C   UNL     1       1.309   3.074  20.782  0.00  0.00    +0.000 C 
BRANCH   6   7
ATOM      7  C   UNL     1       1.720   2.081  19.714  0.00  0.00    +0.000 C 
BRANCH   7   8
ATOM      8  C   UNL     1       1.759   2.769  18.362  0.00  0.00    +0.000 C 
BRANCH   8   9
ATOM      9  C   UNL     1       3.140   2.622  17.749  0.00  0.00    +0.000 C 
BRANCH   9  10
ATOM     10  C   UNL     1       3.505   3.872  16.966  0.00  0.00    +0.000 C 
BRANCH  10  11
ATOM     11  C   UNL     1       5.017   4.026  16.899  0.00  0.00    +0.000 C 
BRANCH  11  13
ATOM     12  C   UNL     1       6.099   5.239  18.799  0.00  0.00    +0.000 C 
ATOM     13  C   UNL     1       5.444   5.384  17.437  0.00  0.00    +0.000 C 
ENDBRANCH  11  13
ENDBRANCH  10  11
ENDBRANCH   9  10
ENDBRANCH   8   9
ENDBRANCH   7   8
ENDBRANCH   6   7
ENDBRANCH   5   6
ENDBRANCH   4   5
ENDBRANCH   3   4
ENDBRANCH   2   3
ENDBRANCH   1   2
BRANCH   1  14
ATOM     14  C   UNL     1       1.979   9.439  17.771  0.00  0.00    +0.000 C 
BRANCH  14  15
ATOM     15  C   UNL     1       0.995   9.866  18.838  0.00  0.00    +0.000 C 
ATOM     16  O   UNL     1      -0.339   9.786  18.316  0.00  0.00    +0.000 OA
ATOM     17  C   UNL     1      -1.070  10.927  18.814  0.00  0.00    +0.000 C 
ATOM     18  C   UNL     1      -0.188  11.632  19.857  0.00  0.00    +0.000 C 
ATOM     19  C   UNL     1       1.186  11.314  19.314  0.00  0.00    +0.000 C 
BRANCH  18  20
ATOM     20  N   UNL     1      -0.427  11.112  21.219  0.00  0.00    +0.000 N 
ATOM     21  C   UNL     1      -0.746  11.701  22.407  0.00  0.00    +0.000 C 
ATOM     22  C   UNL     1      -0.891  13.192  22.598  0.00  0.00    +0.000 C 
ATOM     23  O   UNL     1      -0.941  10.935  23.358  0.00  0.00    +0.000 OA
ATOM     24  H   UNL     1      -0.479  10.120  21.312  0.00  0.00    +0.000 HD
ENDBRANCH  18  20
BRANCH  19  25
ATOM     25  O   UNL     1       1.505  12.219  18.243  0.00  0.00    +0.000 OA
ATOM     26  H   UNL     1       2.425  12.065  17.962  0.00  0.00    +0.000 HD
ENDBRANCH  19  25
ENDBRANCH  14  15
ENDBRANCH   1  14
TORSDOF 15
ENDMDL
MODEL 3
REMARK VINA RESULT:      -5.7      1.106      3.179
REMARK  Name = 
REMARK  17 active torsions:
REMARK  status: ('A' for Active; 'I' for Inactive)
REMARK    1  A    between atoms: C_1  and  C_2
REMARK    2  A    between atoms: C_2  and  C_3
REMARK    3  A    between atoms: C_3  and  C_4
REMARK    4  A    between atoms: C_4  and  C_5
REMARK    5  A    between atoms: C_5  and  C_6
REMARK    6  A    between atoms: C_6  and  C_7
REMARK    7  A    between atoms: C_7  and  C_8
REMARK    8  A    between atoms: C_8  and  C_9
REMARK    9  A    between atoms: C_9  and  C_10
REMARK   10  A    between atoms: C_10  and  C_11
REMARK   11  A    between atoms: C_11  and  C_12
REMARK   12  A    between atoms: C_12  and  C_13
REMARK   13  A    between atoms: C_13  and  C_14
REMARK   14  A    between atoms: C_14  and  C_15
REMARK   15  A    between atoms: C_18  and  N_19
REMARK   16  A    between atoms: C_20  and  C_21
REMARK   17  A    between atoms: C_23  and  O_24
REMARK                            x       y       z     vdW  Elec       q    Type
REMARK                         _______ _______ _______ _____ _____    ______ ____
ROOT
ATOM      1  C   UNL     1       5.848   4.043  17.692  0.00  0.00    +0.000 C 
ENDROOT
BRANCH   1   2
ATOM      2  C   UNL     1       5.286   5.058  18.685  0.00  0.00    +0.000 C 
BRANCH   2   3
ATOM      3  C   UNL     1       5.321   6.470  18.116  0.00  0.00    +0.000 C 
BRANCH   3   4
ATOM      4  C   UNL     1       3.927   6.906  17.699  0.00  0.00    +0.000 C 
BRANCH   4   5
ATOM      5  C   UNL     1       2.918   5.836  18.033  0.00  0.00    +0.000 C 
BRANCH   5   6
ATOM      6  C   UNL     1       1.874   6.406  18.972  0.00  0.00    +0.000 C 
BRANCH   6   7
ATOM      7  C   UNL     1       2.073   5.832  20.361  0.00  0.00    +0.000 C 
BRANCH   7   8
ATOM      8  C   UNL     1       1.152   4.642  20.561  0.00  0.00    +0.000 C 
BRANCH   8   9
ATOM      9  C   UNL     1       1.937   3.475  21.135  0.00  0.00    +0.000 C 
BRANCH   9  10
ATOM     10  C   UNL     1       1.761   2.243  20.263  0.00  0.00    +0.000 C 
BRANCH  10  11
ATOM     11  C   UNL     1       1.257   2.644  18.884  0.00  0.00    +0.000 C 
BRANCH  11  13
ATOM     12  C   UNL     1       3.436   1.518  18.403  0.00  0.00    +0.000 C 
ATOM     13  C   UNL     1       2.303   2.342  17.820  0.00  0.00    +0.000 C 
ENDBRANCH  11  13
ENDBRANCH  10  11
ENDBRANCH   9  10
ENDBRANCH   8   9
ENDBRANCH   7   8
ENDBRANCH   6   7
ENDBRANCH   5   6
ENDBRANCH   4   5
ENDBRANCH   3   4
ENDBRANCH   2   3
ENDBRANCH   1   2
BRANCH   1  14
ATOM     14  C   UNL     1       6.936   4.701  16.842  0.00  0.00    +0.000 C 
BRANCH  14  15
ATOM     15  C   UNL     1       6.933   4.218  15.408  0.00  0.00    +0.000 C 
ATOM     16  O   UNL     1       8.080   4.746  14.726  0.00  0.00    +0.000 OA
ATOM     17  C   UNL     1       7.663   5.111  13.393  0.00  0.00    +0.000 C 
ATOM     18  C   UNL     1       6.231   4.592  13.189  0.00  0.00    +0.000 C 
ATOM     19  C   UNL     1       5.705   4.673  14.603  0.00  0.00    +0.000 C 
BRANCH  18  20
ATOM     20  N   UNL     1       6.216   3.226  12.625  0.00  0.00    +0.000 N 
ATOM     21  C   UNL     1       5.377   2.570  11.774  0.00  0.00    +0.000 C 
ATOM     22  C   UNL     1       4.113   3.169  11.206  0.00  0.00    +0.000 C 
ATOM     23  O   UNL     1       5.715   1.423  11.455  0.00  0.00    +0.000 OA
ATOM     24  H   UNL     1       7.028   2.669  12.791  0.00  0.00    +0.000 HD
ENDBRANCH  18  20
BRANCH  19  25
ATOM     25  O   UNL     1       5.312   6.025  14.897  0.00  0.00    +0.000 OA
ATOM     26  H   UNL     1       5.318   6.543  14.073  0.00  0.00    +0.000 HD
ENDBRANCH  19  25
ENDBRANCH  14  15
ENDBRANCH   1  14
TORSDOF 15
ENDMDL
MODEL 4
REMARK VINA RESULT:      -5.6      1.309      3.591
REMARK  Name = 
REMARK  17 active torsions:
REMARK  status: ('A' for Active; 'I' for Inactive)
REMARK    1  A    between atoms: C_1  and  C_2
REMARK    2  A    between atoms: C_2  and  C_3
REMARK    3  A    between atoms: C_3  and  C_4
REMARK    4  A    between atoms: C_4  and  C_5
REMARK    5  A    between atoms: C_5  and  C_6
REMARK    6  A    between atoms: C_6  and  C_7
REMARK    7  A    between atoms: C_7  and  C_8
REMARK    8  A    between atoms: C_8  and  C_9
REMARK    9  A    between atoms: C_9  and  C_10
REMARK   10  A    between atoms: C_10  and  C_11
REMARK   11  A    between atoms: C_11  and  C_12
REMARK   12  A    between atoms: C_12  and  C_13
REMARK   13  A    between atoms: C_13  and  C_14
REMARK   14  A    between atoms: C_14  and  C_15
REMARK   15  A    between atoms: C_18  and  N_19
REMARK   16  A    between atoms: C_20  and  C_21
REMARK   17  A    between atoms: C_23  and  O_24
REMARK                            x       y       z     vdW  Elec       q    Type
REMARK                         _______ _______ _______ _____ _____    ______ ____
ROOT
ATOM      1  C   UNL     1       4.541   6.695  17.428  0.00  0.00    +0.000 C 
ENDROOT
BRANCH   1   2
ATOM      2  C   UNL     1       3.621   7.857  17.063  0.00  0.00    +0.000 C 
BRANCH   2   3
ATOM      3  C   UNL     1       2.571   8.094  18.141  0.00  0.00    +0.000 C 
BRANCH   3   4
ATOM      4  C   UNL     1       2.427   6.862  19.017  0.00  0.00    +0.000 C 
BRANCH   4   5
ATOM      5  C   UNL     1       1.755   7.218  20.321  0.00  0.00    +0.000 C 
BRANCH   5   6
ATOM      6  C   UNL     1       1.514   5.955  21.123  0.00  0.00    +0.000 C 
BRANCH   6   7
ATOM      7  C   UNL     1       1.859   4.744  20.280  0.00  0.00    +0.000 C 
BRANCH   7   8
ATOM      8  C   UNL     1       0.712   3.752  20.312  0.00  0.00    +0.000 C 
BRANCH   8   9
ATOM      9  C   UNL     1       0.906   2.705  19.230  0.00  0.00    +0.000 C 
BRANCH   9  10
ATOM     10  C   UNL     1       1.709   3.282  18.076  0.00  0.00    +0.000 C 
BRANCH  10  11
ATOM     11  C   UNL     1       2.703   2.252  17.562  0.00  0.00    +0.000 C 
BRANCH  11  13
ATOM     12  C   UNL     1       4.547   2.891  19.124  0.00  0.00    +0.000 C 
ATOM     13  C   UNL     1       3.614   1.777  18.685  0.00  0.00    +0.000 C 
ENDBRANCH  11  13
ENDBRANCH  10  11
ENDBRANCH   9  10
ENDBRANCH   8   9
ENDBRANCH   7   8
ENDBRANCH   6   7
ENDBRANCH   5   6
ENDBRANCH   4   5
ENDBRANCH   3   4
ENDBRANCH   2   3
ENDBRANCH   1   2
BRANCH   1  14
ATOM     14  C   UNL     1       5.656   6.573  16.388  0.00  0.00    +0.000 C 
BRANCH  14  15
ATOM     15  C   UNL     1       5.369   5.520  15.341  0.00  0.00    +0.000 C 
ATOM     16  O   UNL     1       5.104   4.266  15.985  0.00  0.00    +0.000 OA
ATOM     17  C   UNL     1       5.728   3.230  15.198  0.00  0.00    +0.000 C 
ATOM     18  C   UNL     1       6.233   3.871  13.895  0.00  0.00    +0.000 C 
ATOM     19  C   UNL     1       6.539   5.270  14.377  0.00  0.00    +0.000 C 
BRANCH  18  20
ATOM     20  N   UNL     1       5.214   3.817  12.826  0.00  0.00    +0.000 N 
ATOM     21  C   UNL     1       4.984   2.962  11.789  0.00  0.00    +0.000 C 
ATOM     22  C   UNL     1       5.862   1.780  11.459  0.00  0.00    +0.000 C 
ATOM     23  O   UNL     1       3.974   3.190  11.112  0.00  0.00    +0.000 OA
ATOM     24  H   UNL     1       4.455   4.461  12.905  0.00  0.00    +0.000 HD
ENDBRANCH  18  20
BRANCH  19  25
ATOM     25  O   UNL     1       7.820   5.287  15.032  0.00  0.00    +0.000 OA
ATOM     26  H   UNL     1       7.682   5.299  15.996  0.00  0.00    +0.000 HD
ENDBRANCH  19  25
ENDBRANCH  14  15
ENDBRANCH   1  14
TORSDOF 15
ENDMDL
MODEL 5
REMARK VINA RESULT:      -5.5      5.621      7.925
REMARK  Name = 
REMARK  17 active torsions:
REMARK  status: ('A' for Active; 'I' for Inactive)
REMARK    1  A    between atoms: C_1  and  C_2
REMARK    2  A    between atoms: C_2  and  C_3
REMARK    3  A    between atoms: C_3  and  C_4
REMARK    4  A    between atoms: C_4  and  C_5
REMARK    5  A    between atoms: C_5  and  C_6
REMARK    6  A    between atoms: C_6  and  C_7
REMARK    7  A    between atoms: C_7  and  C_8
REMARK    8  A    between atoms: C_8  and  C_9
REMARK    9  A    between atoms: C_9  and  C_10
REMARK   10  A    between atoms: C_10  and  C_11
REMARK   11  A    between atoms: C_11  and  C_12
REMARK   12  A    between atoms: C_12  and  C_13
REMARK   13  A    between atoms: C_13  and  C_14
REMARK   14  A    between atoms: C_14  and  C_15
REMARK   15  A    between atoms: C_18  and  N_19
REMARK   16  A    between atoms: C_20  and  C_21
REMARK   17  A    between atoms: C_23  and  O_24
REMARK                            x       y       z     vdW  Elec       q    Type
REMARK                         _______ _______ _______ _____ _____    ______ ____
ROOT
ATOM      1  C   UNL     1       5.949   5.123  15.596  0.00  0.00    +0.000 C 
ENDROOT
BRANCH   1   2
ATOM      2  C   UNL     1       7.263   5.428  16.311  0.00  0.00    +0.000 C 
BRANCH   2   3
ATOM      3  C   UNL     1       7.205   6.771  17.028  0.00  0.00    +0.000 C 
BRANCH   3   4
ATOM      4  C   UNL     1       7.835   6.661  18.406  0.00  0.00    +0.000 C 
BRANCH   4   5
ATOM      5  C   UNL     1       8.533   7.948  18.771  0.00  0.00    +0.000 C 
BRANCH   5   6
ATOM      6  C   UNL     1       8.248   8.992  17.710  0.00  0.00    +0.000 C 
BRANCH   6   7
ATOM      7  C   UNL     1       8.437  10.377  18.297  0.00  0.00    +0.000 C 
BRANCH   7   8
ATOM      8  C   UNL     1       9.497  10.334  19.381  0.00  0.00    +0.000 C 
BRANCH   8   9
ATOM      9  C   UNL     1      10.648  11.254  19.013  0.00  0.00    +0.000 C 
BRANCH   9  10
ATOM     10  C   UNL     1      10.151  12.682  18.856  0.00  0.00    +0.000 C 
BRANCH  10  11
ATOM     11  C   UNL     1      10.734  13.562  19.952  0.00  0.00    +0.000 C 
BRANCH  11  13
ATOM     12  C   UNL     1       9.979  15.193  21.689  0.00  0.00    +0.000 C 
ATOM     13  C   UNL     1       9.684  13.868  21.011  0.00  0.00    +0.000 C 
ENDBRANCH  11  13
ENDBRANCH  10  11
ENDBRANCH   9  10
ENDBRANCH   8   9
ENDBRANCH   7   8
ENDBRANCH   6   7
ENDBRANCH   5   6
ENDBRANCH   4   5
ENDBRANCH   3   4
ENDBRANCH   2   3
ENDBRANCH   1   2
BRANCH   1  14
ATOM     14  C   UNL     1       5.339   3.840  16.162  0.00  0.00    +0.000 C 
BRANCH  14  15
ATOM     15  C   UNL     1       4.239   4.105  17.165  0.00  0.00    +0.000 C 
ATOM     16  O   UNL     1       4.038   5.521  17.288  0.00  0.00    +0.000 OA
ATOM     17  C   UNL     1       3.801   5.807  18.683  0.00  0.00    +0.000 C 
ATOM     18  C   UNL     1       3.651   4.466  19.419  0.00  0.00    +0.000 C 
ATOM     19  C   UNL     1       4.550   3.589  18.578  0.00  0.00    +0.000 C 
BRANCH  18  20
ATOM     20  N   UNL     1       2.245   4.015  19.458  0.00  0.00    +0.000 N 
ATOM     21  C   UNL     1       1.513   3.294  20.355  0.00  0.00    +0.000 C 
ATOM     22  C   UNL     1       2.080   2.700  21.623  0.00  0.00    +0.000 C 
ATOM     23  O   UNL     1       0.313   3.156  20.091  0.00  0.00    +0.000 OA
ATOM     24  H   UNL     1       1.642   4.382  18.752  0.00  0.00    +0.000 HD
ENDBRANCH  18  20
BRANCH  19  25
ATOM     25  O   UNL     1       5.922   3.794  18.960  0.00  0.00    +0.000 OA
ATOM     26  H   UNL     1       6.384   4.263  18.244  0.00  0.00    +0.000 HD
ENDBRANCH  19  25
ENDBRANCH  14  15
ENDBRANCH   1  14
TORSDOF 15
ENDMDL
MODEL 6
REMARK VINA RESULT:      -5.5      4.632      8.171
REMARK  Name = 
REMARK  17 active torsions:
REMARK  status: ('A' for Active; 'I' for Inactive)
REMARK    1  A    between atoms: C_1  and  C_2
REMARK    2  A    between atoms: C_2  and  C_3
REMARK    3  A    between atoms: C_3  and  C_4
REMARK    4  A    between atoms: C_4  and  C_5
REMARK    5  A    between atoms: C_5  and  C_6
REMARK    6  A    between atoms: C_6  and  C_7
REMARK    7  A    between atoms: C_7  and  C_8
REMARK    8  A    between atoms: C_8  and  C_9
REMARK    9  A    between atoms: C_9  and  C_10
REMARK   10  A    between atoms: C_10  and  C_11
REMARK   11  A    between atoms: C_11  and  C_12
REMARK   12  A    between atoms: C_12  and  C_13
REMARK   13  A    between atoms: C_13  and  C_14
REMARK   14  A    between atoms: C_14  and  C_15
REMARK   15  A    between atoms: C_18  and  N_19
REMARK   16  A    between atoms: C_20  and  C_21
REMARK   17  A    between atoms: C_23  and  O_24
REMARK                            x       y       z     vdW  Elec       q    Type
REMARK                         _______ _______ _______ _____ _____    ______ ____
ROOT
ATOM      1  C   UNL     1       2.288   7.416  18.097  0.00  0.00    +0.000 C 
ENDROOT
BRANCH   1   2
ATOM      2  C   UNL     1       2.084   7.236  19.599  0.00  0.00    +0.000 C 
BRANCH   2   3
ATOM      3  C   UNL     1       2.721   5.944  20.095  0.00  0.00    +0.000 C 
BRANCH   3   4
ATOM      4  C   UNL     1       1.835   5.286  21.139  0.00  0.00    +0.000 C 
BRANCH   4   5
ATOM      5  C   UNL     1       2.219   3.838  21.319  0.00  0.00    +0.000 C 
BRANCH   5   6
ATOM      6  C   UNL     1       1.146   2.954  20.714  0.00  0.00    +0.000 C 
BRANCH   6   7
ATOM      7  C   UNL     1       1.672   2.312  19.446  0.00  0.00    +0.000 C 
BRANCH   7   8
ATOM      8  C   UNL     1       1.267   3.144  18.244  0.00  0.00    +0.000 C 
BRANCH   8   9
ATOM      9  C   UNL     1       2.474   3.388  17.355  0.00  0.00    +0.000 C 
BRANCH   9  10
ATOM     10  C   UNL     1       3.752   3.019  18.090  0.00  0.00    +0.000 C 
BRANCH  10  11
ATOM     11  C   UNL     1       4.842   4.037  17.786  0.00  0.00    +0.000 C 
BRANCH  11  13
ATOM     12  C   UNL     1       5.709   5.642  16.078  0.00  0.00    +0.000 C 
ATOM     13  C   UNL     1       4.519   4.807  16.514  0.00  0.00    +0.000 C 
ENDBRANCH  11  13
ENDBRANCH  10  11
ENDBRANCH   9  10
ENDBRANCH   8   9
ENDBRANCH   7   8
ENDBRANCH   6   7
ENDBRANCH   5   6
ENDBRANCH   4   5
ENDBRANCH   3   4
ENDBRANCH   2   3
ENDBRANCH   1   2
BRANCH   1  14
ATOM     14  C   UNL     1       2.224   8.901  17.741  0.00  0.00    +0.000 C 
BRANCH  14  15
ATOM     15  C   UNL     1       1.284   9.679  18.636  0.00  0.00    +0.000 C 
ATOM     16  O   UNL     1      -0.033   9.669  18.068  0.00  0.00    +0.000 OA
ATOM     17  C   UNL     1      -0.605  10.979  18.270  0.00  0.00    +0.000 C 
ATOM     18  C   UNL     1       0.342  11.768  19.188  0.00  0.00    +0.000 C 
ATOM     19  C   UNL     1       1.670  11.157  18.805  0.00  0.00    +0.000 C 
BRANCH  18  20
ATOM     20  N   UNL     1      -0.005  11.595  20.613  0.00  0.00    +0.000 N 
ATOM     21  C   UNL     1       0.083  12.405  21.707  0.00  0.00    +0.000 C 
ATOM     22  C   UNL     1       0.670  13.796  21.683  0.00  0.00    +0.000 C 
ATOM     23  O   UNL     1      -0.373  11.946  22.761  0.00  0.00    +0.000 OA
ATOM     24  H   UNL     1      -0.509  10.767  20.850  0.00  0.00    +0.000 HD
ENDBRANCH  18  20
BRANCH  19  25
ATOM     25  O   UNL     1       2.144  11.755  17.586  0.00  0.00    +0.000 OA
ATOM     26  H   UNL     1       1.524  11.543  16.866  0.00  0.00    +0.000 HD
ENDBRANCH  19  25
ENDBRANCH  14  15
ENDBRANCH   1  14
TORSDOF 15
ENDMDL
MODEL 7
REMARK VINA RESULT:      -5.5      5.467      8.708
REMARK  Name = 
REMARK  17 active torsions:
REMARK  status: ('A' for Active; 'I' for Inactive)
REMARK    1  A    between atoms: C_1  and  C_2
REMARK    2  A    between atoms: C_2  and  C_3
REMARK    3  A    between atoms: C_3  and  C_4
REMARK    4  A    between atoms: C_4  and  C_5
REMARK    5  A    between atoms: C_5  and  C_6
REMARK    6  A    between atoms: C_6  and  C_7
REMARK    7  A    between atoms: C_7  and  C_8
REMARK    8  A    between atoms: C_8  and  C_9
REMARK    9  A    between atoms: C_9  and  C_10
REMARK   10  A    between atoms: C_10  and  C_11
REMARK   11  A    between atoms: C_11  and  C_12
REMARK   12  A    between atoms: C_12  and  C_13
REMARK   13  A    between atoms: C_13  and  C_14
REMARK   14  A    between atoms: C_14  and  C_15
REMARK   15  A    between atoms: C_18  and  N_19
REMARK   16  A    between atoms: C_20  and  C_21
REMARK   17  A    between atoms: C_23  and  O_24
REMARK                            x       y       z     vdW  Elec       q    Type
REMARK                         _______ _______ _______ _____ _____    ______ ____
ROOT
ATOM      1  C   UNL     1       0.031   9.174  20.949  0.00  0.00    +0.000 C 
ENDROOT
BRANCH   1   2
ATOM      2  C   UNL     1       1.185   8.249  21.327  0.00  0.00    +0.000 C 
BRANCH   2   3
ATOM      3  C   UNL     1       1.894   7.712  20.091  0.00  0.00    +0.000 C 
BRANCH   3   4
ATOM      4  C   UNL     1       2.265   6.252  20.288  0.00  0.00    +0.000 C 
BRANCH   4   5
ATOM      5  C   UNL     1       3.425   5.878  19.398  0.00  0.00    +0.000 C 
BRANCH   5   6
ATOM      6  C   UNL     1       2.934   5.721  17.973  0.00  0.00    +0.000 C 
BRANCH   6   7
ATOM      7  C   UNL     1       1.916   4.601  17.907  0.00  0.00    +0.000 C 
BRANCH   7   8
ATOM      8  C   UNL     1       2.485   3.435  17.121  0.00  0.00    +0.000 C 
BRANCH   8   9
ATOM      9  C   UNL     1       3.488   2.679  17.975  0.00  0.00    +0.000 C 
BRANCH   9  10
ATOM     10  C   UNL     1       2.793   2.051  19.172  0.00  0.00    +0.000 C 
BRANCH  10  11
ATOM     11  C   UNL     1       3.558   2.369  20.448  0.00  0.00    +0.000 C 
BRANCH  11  13
ATOM     12  C   UNL     1       1.173   2.760  21.085  0.00  0.00    +0.000 C 
ATOM     13  C   UNL     1       2.620   2.911  21.517  0.00  0.00    +0.000 C 
ENDBRANCH  11  13
ENDBRANCH  10  11
ENDBRANCH   9  10
ENDBRANCH   8   9
ENDBRANCH   7   8
ENDBRANCH   6   7
ENDBRANCH   5   6
ENDBRANCH   4   5
ENDBRANCH   3   4
ENDBRANCH   2   3
ENDBRANCH   1   2
BRANCH   1  14
ATOM     14  C   UNL     1       0.570  10.568  20.626  0.00  0.00    +0.000 C 
BRANCH  14  15
ATOM     15  C   UNL     1      -0.028  11.152  19.365  0.00  0.00    +0.000 C 
ATOM     16  O   UNL     1       0.706  12.326  18.989  0.00  0.00    +0.000 OA
ATOM     17  C   UNL     1      -0.247  13.302  18.515  0.00  0.00    +0.000 C 
ATOM     18  C   UNL     1      -1.616  12.610  18.412  0.00  0.00    +0.000 C 
ATOM     19  C   UNL     1      -1.493  11.590  19.519  0.00  0.00    +0.000 C 
BRANCH  18  20
ATOM     20  N   UNL     1      -1.831  12.018  17.075  0.00  0.00    +0.000 N 
ATOM     21  C   UNL     1      -2.595  10.985  16.616  0.00  0.00    +0.000 C 
ATOM     22  C   UNL     1      -3.444  10.105  17.502  0.00  0.00    +0.000 C 
ATOM     23  O   UNL     1      -2.583  10.803  15.393  0.00  0.00    +0.000 OA
ATOM     24  H   UNL     1      -1.435  12.511  16.303  0.00  0.00    +0.000 HD
ENDBRANCH  18  20
BRANCH  19  25
ATOM     25  O   UNL     1      -1.761  12.215  20.786  0.00  0.00    +0.000 OA
ATOM     26  H   UNL     1      -2.283  11.605  21.337  0.00  0.00    +0.000 HD
ENDBRANCH  19  25
ENDBRANCH  14  15
ENDBRANCH   1  14
TORSDOF 15
ENDMDL
MODEL 8
REMARK VINA RESULT:      -5.5      5.034      8.487
REMARK  Name = 
REMARK  17 active torsions:
REMARK  status: ('A' for Active; 'I' for Inactive)
REMARK    1  A    between atoms: C_1  and  C_2
REMARK    2  A    between atoms: C_2  and  C_3
REMARK    3  A    between atoms: C_3  and  C_4
REMARK    4  A    between atoms: C_4  and  C_5
REMARK    5  A    between atoms: C_5  and  C_6
REMARK    6  A    between atoms: C_6  and  C_7
REMARK    7  A    between atoms: C_7  and  C_8
REMARK    8  A    between atoms: C_8  and  C_9
REMARK    9  A    between atoms: C_9  and  C_10
REMARK   10  A    between atoms: C_10  and  C_11
REMARK   11  A    between atoms: C_11  and  C_12
REMARK   12  A    between atoms: C_12  and  C_13
REMARK   13  A    between atoms: C_13  and  C_14
REMARK   14  A    between atoms: C_14  and  C_15
REMARK   15  A    between atoms: C_18  and  N_19
REMARK   16  A    between atoms: C_20  and  C_21
REMARK   17  A    between atoms: C_23  and  O_24
REMARK                            x       y       z     vdW  Elec       q    Type
REMARK                         _______ _______ _______ _____ _____    ______ ____
ROOT
ATOM      1  C   UNL     1       1.555   8.678  19.299  0.00  0.00    +0.000 C 
ENDROOT
BRANCH   1   2
ATOM      2  C   UNL     1       2.335   8.713  17.987  0.00  0.00    +0.000 C 
BRANCH   2   3
ATOM      3  C   UNL     1       3.183   7.461  17.811  0.00  0.00    +0.000 C 
BRANCH   3   4
ATOM      4  C   UNL     1       2.695   6.358  18.734  0.00  0.00    +0.000 C 
BRANCH   4   5
ATOM      5  C   UNL     1       2.342   5.124  17.941  0.00  0.00    +0.000 C 
BRANCH   5   6
ATOM      6  C   UNL     1       3.052   3.924  18.536  0.00  0.00    +0.000 C 
BRANCH   6   7
ATOM      7  C   UNL     1       4.464   3.849  17.992  0.00  0.00    +0.000 C 
BRANCH   7   8
ATOM      8  C   UNL     1       4.461   4.172  16.510  0.00  0.00    +0.000 C 
BRANCH   8   9
ATOM      9  C   UNL     1       5.801   3.802  15.900  0.00  0.00    +0.000 C 
BRANCH   9  10
ATOM     10  C   UNL     1       6.935   4.397  16.718  0.00  0.00    +0.000 C 
BRANCH  10  11
ATOM     11  C   UNL     1       7.045   5.891  16.451  0.00  0.00    +0.000 C 
BRANCH  11  13
ATOM     12  C   UNL     1       7.863   6.219  18.790  0.00  0.00    +0.000 C 
ATOM     13  C   UNL     1       6.871   6.682  17.739  0.00  0.00    +0.000 C 
ENDBRANCH  11  13
ENDBRANCH  10  11
ENDBRANCH   9  10
ENDBRANCH   8   9
ENDBRANCH   7   8
ENDBRANCH   6   7
ENDBRANCH   5   6
ENDBRANCH   4   5
ENDBRANCH   3   4
ENDBRANCH   2   3
ENDBRANCH   1   2
BRANCH   1  14
ATOM     14  C   UNL     1       1.141  10.096  19.693  0.00  0.00    +0.000 C 
BRANCH  14  15
ATOM     15  C   UNL     1       0.248  10.754  18.664  0.00  0.00    +0.000 C 
ATOM     16  O   UNL     1       0.694  12.099  18.436  0.00  0.00    +0.000 OA
ATOM     17  C   UNL     1      -0.478  12.929  18.297  0.00  0.00    +0.000 C 
ATOM     18  C   UNL     1      -1.705  12.005  18.240  0.00  0.00    +0.000 C 
ATOM     19  C   UNL     1      -1.224  10.856  19.096  0.00  0.00    +0.000 C 
BRANCH  18  20
ATOM     20  N   UNL     1      -2.036  11.618  16.853  0.00  0.00    +0.000 N 
ATOM     21  C   UNL     1      -3.194  11.258  16.229  0.00  0.00    +0.000 C 
ATOM     22  C   UNL     1      -4.525  11.123  16.930  0.00  0.00    +0.000 C 
ATOM     23  O   UNL     1      -3.115  11.059  15.011  0.00  0.00    +0.000 OA
ATOM     24  H   UNL     1      -1.312  11.732  16.176  0.00  0.00    +0.000 HD
ENDBRANCH  18  20
BRANCH  19  25
ATOM     25  O   UNL     1      -1.379  11.189  20.486  0.00  0.00    +0.000 OA
ATOM     26  H   UNL     1      -1.896  12.011  20.559  0.00  0.00    +0.000 HD
ENDBRANCH  19  25
ENDBRANCH  14  15
ENDBRANCH   1  14
TORSDOF 15
ENDMDL
MODEL 9
REMARK VINA RESULT:      -5.5      5.523      9.163
REMARK  Name = 
REMARK  17 active torsions:
REMARK  status: ('A' for Active; 'I' for Inactive)
REMARK    1  A    between atoms: C_1  and  C_2
REMARK    2  A    between atoms: C_2  and  C_3
REMARK    3  A    between atoms: C_3  and  C_4
REMARK    4  A    between atoms: C_4  and  C_5
REMARK    5  A    between atoms: C_5  and  C_6
REMARK    6  A    between atoms: C_6  and  C_7
REMARK    7  A    between atoms: C_7  and  C_8
REMARK    8  A    between atoms: C_8  and  C_9
REMARK    9  A    between atoms: C_9  and  C_10
REMARK   10  A    between atoms: C_10  and  C_11
REMARK   11  A    between atoms: C_11  and  C_12
REMARK   12  A    between atoms: C_12  and  C_13
REMARK   13  A    between atoms: C_13  and  C_14
REMARK   14  A    between atoms: C_14  and  C_15
REMARK   15  A    between atoms: C_18  and  N_19
REMARK   16  A    between atoms: C_20  and  C_21
REMARK   17  A    between atoms: C_23  and  O_24
REMARK                            x       y       z     vdW  Elec       q    Type
REMARK                         _______ _______ _______ _____ _____    ______ ____
ROOT
ATOM      1  C   UNL     1       0.975   9.505  17.817  0.00  0.00    +0.000 C 
ENDROOT
BRANCH   1   2
ATOM      2  C   UNL     1       1.145   8.087  18.354  0.00  0.00    +0.000 C 
BRANCH   2   3
ATOM      3  C   UNL     1       2.598   7.795  18.703  0.00  0.00    +0.000 C 
BRANCH   3   4
ATOM      4  C   UNL     1       3.465   7.869  17.457  0.00  0.00    +0.000 C 
BRANCH   4   5
ATOM      5  C   UNL     1       4.084   6.524  17.164  0.00  0.00    +0.000 C 
BRANCH   5   6
ATOM      6  C   UNL     1       4.552   5.894  18.460  0.00  0.00    +0.000 C 
BRANCH   6   7
ATOM      7  C   UNL     1       4.262   4.407  18.435  0.00  0.00    +0.000 C 
BRANCH   7   8
ATOM      8  C   UNL     1       3.448   4.063  17.202  0.00  0.00    +0.000 C 
BRANCH   8   9
ATOM      9  C   UNL     1       2.439   2.979  17.535  0.00  0.00    +0.000 C 
BRANCH   9  10
ATOM     10  C   UNL     1       1.307   3.551  18.372  0.00  0.00    +0.000 C 
BRANCH  10  11
ATOM     11  C   UNL     1       1.053   2.666  19.584  0.00  0.00    +0.000 C 
BRANCH  11  13
ATOM     12  C   UNL     1       1.463   4.892  20.644  0.00  0.00    +0.000 C 
ATOM     13  C   UNL     1       1.428   3.392  20.868  0.00  0.00    +0.000 C 
ENDBRANCH  11  13
ENDBRANCH  10  11
ENDBRANCH   9  10
ENDBRANCH   8   9
ENDBRANCH   7   8
ENDBRANCH   6   7
ENDBRANCH   5   6
ENDBRANCH   4   5
ENDBRANCH   3   4
ENDBRANCH   2   3
ENDBRANCH   1   2
BRANCH   1  14
ATOM     14  C   UNL     1       0.062  10.305  18.747  0.00  0.00    +0.000 C 
BRANCH  14  15
ATOM     15  C   UNL     1      -1.386  10.279  18.313  0.00  0.00    +0.000 C 
ATOM     16  O   UNL     1      -1.497   9.583  17.062  0.00  0.00    +0.000 OA
ATOM     17  C   UNL     1      -2.467  10.286  16.257  0.00  0.00    +0.000 C 
ATOM     18  C   UNL     1      -3.129  11.354  17.144  0.00  0.00    +0.000 C 
ATOM     19  C   UNL     1      -1.991  11.673  18.086  0.00  0.00    +0.000 C 
BRANCH  18  20
ATOM     20  N   UNL     1      -4.335  10.833  17.821  0.00  0.00    +0.000 N 
ATOM     21  C   UNL     1      -5.610  11.298  17.958  0.00  0.00    +0.000 C 
ATOM     22  C   UNL     1      -6.087  12.625  17.418  0.00  0.00    +0.000 C 
ATOM     23  O   UNL     1      -6.399  10.552  18.550  0.00  0.00    +0.000 OA
ATOM     24  H   UNL     1      -4.278   9.901  18.173  0.00  0.00    +0.000 HD
ENDBRANCH  18  20
BRANCH  19  25
ATOM     25  O   UNL     1      -1.077  12.584  17.450  0.00  0.00    +0.000 OA
ATOM     26  H   UNL     1      -0.806  13.262  18.094  0.00  0.00    +0.000 HD
ENDBRANCH  19  25
ENDBRANCH  14  15
ENDBRANCH   1  14
TORSDOF 15
ENDMDL
