MODEL 1
REMARK VINA RESULT:      -6.7      0.000      0.000
REMARK  Name = 
REMARK  4 active torsions:
REMARK  status: ('A' for Active; 'I' for Inactive)
REMARK    1  A    between atoms: C_1  and  C_2
REMARK    2  A    between atoms: C_10  and  C_11
REMARK    3  A    between atoms: N_21  and  C_22
REMARK    4  A    between atoms: C_22  and  C_23
REMARK                            x       y       z     vdW  Elec       q    Type
REMARK                         _______ _______ _______ _____ _____    ______ ____
ROOT
ATOM      1  C   UNL     1      -1.224  10.435  17.999  0.00  0.00    +0.000 C 
ATOM      2  C   UNL     1      -2.705  10.665  18.280  0.00  0.00    +0.000 C 
ATOM      3  C   UNL     1      -3.516  10.463  16.974  0.00  0.00    +0.000 C 
ATOM      4  O   UNL     1      -4.933  10.567  17.210  0.00  0.00    +0.000 OA
ATOM      5  C   UNL     1      -5.260  11.849  17.773  0.00  0.00    +0.000 C 
ATOM      6  C   UNL     1      -4.510  12.091  19.094  0.00  0.00    +0.000 C 
ATOM      7  N   UNL     1      -3.073  11.998  18.813  0.00  0.00    +0.000 N 
ATOM      8  C   UNL     1      -2.229  12.664  19.674  0.00  0.00    +0.000 A 
ATOM      9  N   UNL     1      -1.035  13.029  19.171  0.00  0.00    +0.000 NA
ATOM     10  C   UNL     1      -0.187  13.764  19.919  0.00  0.00    +0.000 A 
ATOM     11  C   UNL     1      -0.554  14.137  21.183  0.00  0.00    +0.000 A 
ATOM     12  C   UNL     1      -1.787  13.723  21.645  0.00  0.00    +0.000 A 
ATOM     13  N   UNL     1      -2.642  13.017  20.901  0.00  0.00    +0.000 NA
ATOM     14  N   UNL     1      -1.979  14.089  22.977  0.00  0.00    +0.000 N 
ATOM     15  C   UNL     1      -0.876  14.961  23.365  0.00  0.00    +0.000 C 
ATOM     16  C   UNL     1       0.142  14.948  22.216  0.00  0.00    +0.000 C 
ENDROOT
BRANCH  10  17
ATOM     17  C   UNL     1       1.084  14.074  19.267  0.00  0.00    +0.000 A 
ATOM     18  C   UNL     1       2.004  13.102  18.908  0.00  0.00    +0.000 A 
ATOM     19  N   UNL     1       3.204  13.343  18.326  0.00  0.00    +0.000 NA
ATOM     20  C   UNL     1       3.513  14.622  18.113  0.00  0.00    +0.000 A 
ATOM     21  N   UNL     1       4.731  14.910  17.537  0.00  0.00    +0.000 N 
ATOM     22  N   UNL     1       2.712  15.649  18.392  0.00  0.00    +0.000 NA
ATOM     23  C   UNL     1       1.532  15.349  18.977  0.00  0.00    +0.000 A 
ATOM     24  H   UNL     1       5.069  14.112  17.019  0.00  0.00    +0.000 HD
ATOM     25  H   UNL     1       4.688  15.796  17.062  0.00  0.00    +0.000 HD
ENDBRANCH  10  17
BRANCH  14  26
ATOM     26  C   UNL     1      -3.199  13.919  23.769  0.00  0.00    +0.000 C 
ATOM     27  C   UNL     1      -3.077  14.655  25.114  0.00  0.00    +0.000 C 
ATOM     28  C   UNL     1      -4.457  14.348  23.011  0.00  0.00    +0.000 C 
ATOM     29  C   UNL     1      -5.566  13.521  23.628  0.00  0.00    +0.000 C 
ATOM     30  N   UNL     1      -4.977  12.226  23.982  0.00  0.00    +0.000 NA
ATOM     31  C   UNL     1      -3.514  12.417  23.994  0.00  0.00    +0.000 C 
ATOM     32  H   UNL     1      -5.199  11.556  23.244  0.00  0.00    +0.000 HD
ENDBRANCH  14  26
TORSDOF 2
ENDMDL
MODEL 2
REMARK VINA RESULT:      -6.7      8.028     11.654
REMARK  Name = 
REMARK  4 active torsions:
REMARK  status: ('A' for Active; 'I' for Inactive)
REMARK    1  A    between atoms: C_1  and  C_2
REMARK    2  A    between atoms: C_10  and  C_11
REMARK    3  A    between atoms: N_21  and  C_22
REMARK    4  A    between atoms: C_22  and  C_23
REMARK                            x       y       z     vdW  Elec       q    Type
REMARK                         _______ _______ _______ _____ _____    ______ ____
ROOT
ATOM      1  C   UNL     1       5.628  16.786  22.979  0.00  0.00    +0.000 C 
ATOM      2  C   UNL     1       5.615  17.068  21.481  0.00  0.00    +0.000 C 
ATOM      3  C   UNL     1       4.201  17.543  21.057  0.00  0.00    +0.000 C 
ATOM      4  O   UNL     1       4.165  17.923  19.668  0.00  0.00    +0.000 OA
ATOM      5  C   UNL     1       4.562  16.823  18.831  0.00  0.00    +0.000 C 
ATOM      6  C   UNL     1       5.976  16.331  19.182  0.00  0.00    +0.000 C 
ATOM      7  N   UNL     1       5.971  15.934  20.596  0.00  0.00    +0.000 N 
ATOM      8  C   UNL     1       6.920  15.015  20.984  0.00  0.00    +0.000 A 
ATOM      9  N   UNL     1       6.619  14.271  22.065  0.00  0.00    +0.000 NA
ATOM     10  C   UNL     1       7.453  13.287  22.458  0.00  0.00    +0.000 A 
ATOM     11  C   UNL     1       8.597  13.051  21.745  0.00  0.00    +0.000 A 
ATOM     12  C   UNL     1       8.855  13.854  20.653  0.00  0.00    +0.000 A 
ATOM     13  N   UNL     1       8.021  14.813  20.244  0.00  0.00    +0.000 NA
ATOM     14  N   UNL     1      10.098  13.564  20.091  0.00  0.00    +0.000 N 
ATOM     15  C   UNL     1      10.616  12.367  20.745  0.00  0.00    +0.000 C 
ATOM     16  C   UNL     1       9.677  12.044  21.916  0.00  0.00    +0.000 C 
ENDROOT
BRANCH  10  17
ATOM     17  C   UNL     1       7.024  12.570  23.657  0.00  0.00    +0.000 A 
ATOM     18  C   UNL     1       7.714  12.627  24.856  0.00  0.00    +0.000 A 
ATOM     19  N   UNL     1       7.369  11.962  25.985  0.00  0.00    +0.000 NA
ATOM     20  C   UNL     1       6.294  11.179  25.906  0.00  0.00    +0.000 A 
ATOM     21  N   UNL     1       5.919  10.472  27.028  0.00  0.00    +0.000 N 
ATOM     22  N   UNL     1       5.531  11.050  24.821  0.00  0.00    +0.000 NA
ATOM     23  C   UNL     1       5.927  11.732  23.724  0.00  0.00    +0.000 A 
ATOM     24  H   UNL     1       6.284  10.917  27.858  0.00  0.00    +0.000 HD
ATOM     25  H   UNL     1       4.934  10.269  26.995  0.00  0.00    +0.000 HD
ENDBRANCH  10  17
BRANCH  14  26
ATOM     26  C   UNL     1      10.663  14.130  18.865  0.00  0.00    +0.000 C 
ATOM     27  C   UNL     1      10.664  15.667  18.930  0.00  0.00    +0.000 C 
ATOM     28  C   UNL     1      12.058  13.585  18.554  0.00  0.00    +0.000 C 
ATOM     29  C   UNL     1      12.179  13.705  17.048  0.00  0.00    +0.000 C 
ATOM     30  N   UNL     1      10.842  13.465  16.499  0.00  0.00    +0.000 NA
ATOM     31  C   UNL     1       9.891  13.637  17.613  0.00  0.00    +0.000 C 
ATOM     32  H   UNL     1      10.787  12.494  16.188  0.00  0.00    +0.000 HD
ENDBRANCH  14  26
TORSDOF 2
ENDMDL
MODEL 3
REMARK VINA RESULT:      -6.6      7.444     11.119
REMARK  Name = 
REMARK  4 active torsions:
REMARK  status: ('A' for Active; 'I' for Inactive)
REMARK    1  A    between atoms: C_1  and  C_2
REMARK    2  A    between atoms: C_10  and  C_11
REMARK    3  A    between atoms: N_21  and  C_22
REMARK    4  A    between atoms: C_22  and  C_23
REMARK                            x       y       z     vdW  Elec       q    Type
REMARK                         _______ _______ _______ _____ _____    ______ ____
ROOT
ATOM      1  C   UNL     1       4.652  16.953  22.333  0.00  0.00    +0.000 C 
ATOM      2  C   UNL     1       4.773  17.027  20.815  0.00  0.00    +0.000 C 
ATOM      3  C   UNL     1       3.379  17.316  20.200  0.00  0.00    +0.000 C 
ATOM      4  O   UNL     1       3.459  17.500  18.773  0.00  0.00    +0.000 OA
ATOM      5  C   UNL     1       4.019  16.334  18.143  0.00  0.00    +0.000 C 
ATOM      6  C   UNL     1       5.422  16.019  18.689  0.00  0.00    +0.000 C 
ATOM      7  N   UNL     1       5.300  15.818  20.138  0.00  0.00    +0.000 N 
ATOM      8  C   UNL     1       6.268  15.047  20.740  0.00  0.00    +0.000 A 
ATOM      9  N   UNL     1       5.913  14.433  21.884  0.00  0.00    +0.000 NA
ATOM     10  C   UNL     1       6.772  13.587  22.489  0.00  0.00    +0.000 A 
ATOM     11  C   UNL     1       7.997  13.356  21.926  0.00  0.00    +0.000 A 
ATOM     12  C   UNL     1       8.307  14.023  20.759  0.00  0.00    +0.000 A 
ATOM     13  N   UNL     1       7.451  14.842  20.141  0.00  0.00    +0.000 NA
ATOM     14  N   UNL     1       9.619  13.769  20.360  0.00  0.00    +0.000 N 
ATOM     15  C   UNL     1      10.153  12.721  21.224  0.00  0.00    +0.000 C 
ATOM     16  C   UNL     1       9.124  12.479  22.338  0.00  0.00    +0.000 C 
ENDROOT
BRANCH  10  17
ATOM     17  C   UNL     1       6.274  13.005  23.734  0.00  0.00    +0.000 A 
ATOM     18  C   UNL     1       5.625  13.747  24.706  0.00  0.00    +0.000 A 
ATOM     19  N   UNL     1       5.169  13.258  25.885  0.00  0.00    +0.000 NA
ATOM     20  C   UNL     1       5.396  11.965  26.117  0.00  0.00    +0.000 A 
ATOM     21  N   UNL     1       4.963  11.431  27.311  0.00  0.00    +0.000 N 
ATOM     22  N   UNL     1       5.991  11.137  25.259  0.00  0.00    +0.000 NA
ATOM     23  C   UNL     1       6.429  11.682  24.103  0.00  0.00    +0.000 A 
ATOM     24  H   UNL     1       4.214  11.992  27.692  0.00  0.00    +0.000 HD
ATOM     25  H   UNL     1       4.809  10.442  27.212  0.00  0.00    +0.000 HD
ENDBRANCH  10  17
BRANCH  14  26
ATOM     26  C   UNL     1      10.265  14.211  19.123  0.00  0.00    +0.000 C 
ATOM     27  C   UNL     1      10.353  15.746  19.078  0.00  0.00    +0.000 C 
ATOM     28  C   UNL     1      11.637  13.567  18.913  0.00  0.00    +0.000 C 
ATOM     29  C   UNL     1      11.825  13.568  17.410  0.00  0.00    +0.000 C 
ATOM     30  N   UNL     1      10.499  13.363  16.821  0.00  0.00    +0.000 NA
ATOM     31  C   UNL     1       9.515  13.669  17.877  0.00  0.00    +0.000 C 
ATOM     32  H   UNL     1      10.400  12.376  16.578  0.00  0.00    +0.000 HD
ENDBRANCH  14  26
TORSDOF 2
ENDMDL
MODEL 4
REMARK VINA RESULT:      -6.6      7.527     11.263
REMARK  Name = 
REMARK  4 active torsions:
REMARK  status: ('A' for Active; 'I' for Inactive)
REMARK    1  A    between atoms: C_1  and  C_2
REMARK    2  A    between atoms: C_10  and  C_11
REMARK    3  A    between atoms: N_21  and  C_22
REMARK    4  A    between atoms: C_22  and  C_23
REMARK                            x       y       z     vdW  Elec       q    Type
REMARK                         _______ _______ _______ _____ _____    ______ ____
ROOT
ATOM      1  C   UNL     1       5.384  17.463  21.138  0.00  0.00    +0.000 C 
ATOM      2  C   UNL     1       5.230  16.977  19.701  0.00  0.00    +0.000 C 
ATOM      3  C   UNL     1       3.777  17.236  19.223  0.00  0.00    +0.000 C 
ATOM      4  O   UNL     1       3.609  16.889  17.834  0.00  0.00    +0.000 OA
ATOM      5  C   UNL     1       3.938  15.506  17.614  0.00  0.00    +0.000 C 
ATOM      6  C   UNL     1       5.384  15.197  18.038  0.00  0.00    +0.000 C 
ATOM      7  N   UNL     1       5.514  15.542  19.459  0.00  0.00    +0.000 N 
ATOM      8  C   UNL     1       6.504  14.897  20.164  0.00  0.00    +0.000 A 
ATOM      9  N   UNL     1       6.313  14.788  21.492  0.00  0.00    +0.000 NA
ATOM     10  C   UNL     1       7.190  14.092  22.243  0.00  0.00    +0.000 A 
ATOM     11  C   UNL     1       8.265  13.495  21.643  0.00  0.00    +0.000 A 
ATOM     12  C   UNL     1       8.412  13.653  20.280  0.00  0.00    +0.000 A 
ATOM     13  N   UNL     1       7.534  14.319  19.527  0.00  0.00    +0.000 NA
ATOM     14  N   UNL     1       9.601  13.080  19.828  0.00  0.00    +0.000 N 
ATOM     15  C   UNL     1      10.189  12.337  20.936  0.00  0.00    +0.000 C 
ATOM     16  C   UNL     1       9.367  12.662  22.192  0.00  0.00    +0.000 C 
ENDROOT
BRANCH  10  17
ATOM     17  C   UNL     1       6.881  14.069  23.672  0.00  0.00    +0.000 A 
ATOM     18  C   UNL     1       7.560  14.839  24.601  0.00  0.00    +0.000 A 
ATOM     19  N   UNL     1       7.327  14.833  25.937  0.00  0.00    +0.000 NA
ATOM     20  C   UNL     1       6.384  13.996  26.369  0.00  0.00    +0.000 A 
ATOM     21  N   UNL     1       6.127  13.947  27.722  0.00  0.00    +0.000 N 
ATOM     22  N   UNL     1       5.646  13.216  25.580  0.00  0.00    +0.000 NA
ATOM     23  C   UNL     1       5.927  13.260  24.260  0.00  0.00    +0.000 A 
ATOM     24  H   UNL     1       6.423  14.806  28.164  0.00  0.00    +0.000 HD
ATOM     25  H   UNL     1       5.185  13.633  27.884  0.00  0.00    +0.000 HD
ENDBRANCH  10  17
BRANCH  14  26
ATOM     26  C   UNL     1      10.044  12.953  18.438  0.00  0.00    +0.000 C 
ATOM     27  C   UNL     1       8.873  12.533  17.533  0.00  0.00    +0.000 C 
ATOM     28  C   UNL     1      10.721  14.223  17.919  0.00  0.00    +0.000 C 
ATOM     29  C   UNL     1      11.660  13.731  16.836  0.00  0.00    +0.000 C 
ATOM     30  N   UNL     1      12.145  12.417  17.267  0.00  0.00    +0.000 NA
ATOM     31  C   UNL     1      11.218  11.947  18.315  0.00  0.00    +0.000 C 
ATOM     32  H   UNL     1      13.066  12.534  17.694  0.00  0.00    +0.000 HD
ENDBRANCH  14  26
TORSDOF 2
ENDMDL
MODEL 5
REMARK VINA RESULT:      -6.6      7.565      9.444
REMARK  Name = 
REMARK  4 active torsions:
REMARK  status: ('A' for Active; 'I' for Inactive)
REMARK    1  A    between atoms: C_1  and  C_2
REMARK    2  A    between atoms: C_10  and  C_11
REMARK    3  A    between atoms: N_21  and  C_22
REMARK    4  A    between atoms: C_22  and  C_23
REMARK                            x       y       z     vdW  Elec       q    Type
REMARK                         _______ _______ _______ _____ _____    ______ ____
ROOT
ATOM      1  C   UNL     1       5.182  14.710  17.807  0.00  0.00    +0.000 C 
ATOM      2  C   UNL     1       4.518  15.462  18.954  0.00  0.00    +0.000 C 
ATOM      3  C   UNL     1       3.949  16.806  18.430  0.00  0.00    +0.000 C 
ATOM      4  O   UNL     1       3.218  17.507  19.455  0.00  0.00    +0.000 OA
ATOM      5  C   UNL     1       4.061  17.764  20.592  0.00  0.00    +0.000 C 
ATOM      6  C   UNL     1       4.627  16.459  21.180  0.00  0.00    +0.000 C 
ATOM      7  N   UNL     1       5.380  15.784  20.116  0.00  0.00    +0.000 N 
ATOM      8  C   UNL     1       6.368  14.911  20.516  0.00  0.00    +0.000 A 
ATOM      9  N   UNL     1       7.369  14.706  19.640  0.00  0.00    +0.000 NA
ATOM     10  C   UNL     1       8.422  13.938  19.988  0.00  0.00    +0.000 A 
ATOM     11  C   UNL     1       8.462  13.380  21.237  0.00  0.00    +0.000 A 
ATOM     12  C   UNL     1       7.401  13.619  22.085  0.00  0.00    +0.000 A 
ATOM     13  N   UNL     1       6.369  14.399  21.756  0.00  0.00    +0.000 NA
ATOM     14  N   UNL     1       7.533  12.906  23.277  0.00  0.00    +0.000 N 
ATOM     15  C   UNL     1       8.859  12.298  23.290  0.00  0.00    +0.000 C 
ATOM     16  C   UNL     1       9.478  12.524  21.903  0.00  0.00    +0.000 C 
ENDROOT
BRANCH  10  17
ATOM     17  C   UNL     1       9.428  13.776  18.941  0.00  0.00    +0.000 A 
ATOM     18  C   UNL     1       9.644  12.576  18.284  0.00  0.00    +0.000 A 
ATOM     19  N   UNL     1      10.581  12.371  17.326  0.00  0.00    +0.000 NA
ATOM     20  C   UNL     1      11.358  13.410  17.025  0.00  0.00    +0.000 A 
ATOM     21  N   UNL     1      12.333  13.239  16.067  0.00  0.00    +0.000 N 
ATOM     22  N   UNL     1      11.242  14.622  17.567  0.00  0.00    +0.000 NA
ATOM     23  C   UNL     1      10.296  14.766  18.520  0.00  0.00    +0.000 A 
ATOM     24  H   UNL     1      12.095  12.467  15.461  0.00  0.00    +0.000 HD
ATOM     25  H   UNL     1      12.557  14.122  15.640  0.00  0.00    +0.000 HD
ENDBRANCH  10  17
BRANCH  14  26
ATOM     26  C   UNL     1       6.665  12.989  24.453  0.00  0.00    +0.000 C 
ATOM     27  C   UNL     1       6.151  11.594  24.845  0.00  0.00    +0.000 C 
ATOM     28  C   UNL     1       7.340  13.687  25.635  0.00  0.00    +0.000 C 
ATOM     29  C   UNL     1       6.191  14.272  26.431  0.00  0.00    +0.000 C 
ATOM     30  N   UNL     1       5.167  14.667  25.460  0.00  0.00    +0.000 NA
ATOM     31  C   UNL     1       5.479  13.958  24.205  0.00  0.00    +0.000 C 
ATOM     32  H   UNL     1       5.254  15.669  25.284  0.00  0.00    +0.000 HD
ENDBRANCH  14  26
TORSDOF 2
ENDMDL
MODEL 6
REMARK VINA RESULT:      -6.6      3.108      5.852
REMARK  Name = 
REMARK  4 active torsions:
REMARK  status: ('A' for Active; 'I' for Inactive)
REMARK    1  A    between atoms: C_1  and  C_2
REMARK    2  A    between atoms: C_10  and  C_11
REMARK    3  A    between atoms: N_21  and  C_22
REMARK    4  A    between atoms: C_22  and  C_23
REMARK                            x       y       z     vdW  Elec       q    Type
REMARK                         _______ _______ _______ _____ _____    ______ ____
ROOT
ATOM      1  C   UNL     1      -2.367  12.199  23.276  0.00  0.00    +0.000 C 
ATOM      2  C   UNL     1      -3.177  13.316  22.630  0.00  0.00    +0.000 C 
ATOM      3  C   UNL     1      -4.688  12.975  22.716  0.00  0.00    +0.000 C 
ATOM      4  O   UNL     1      -5.502  14.051  22.211  0.00  0.00    +0.000 OA
ATOM      5  C   UNL     1      -5.163  14.345  20.845  0.00  0.00    +0.000 C 
ATOM      6  C   UNL     1      -3.680  14.728  20.703  0.00  0.00    +0.000 C 
ATOM      7  N   UNL     1      -2.882  13.603  21.206  0.00  0.00    +0.000 N 
ATOM      8  C   UNL     1      -1.597  13.492  20.723  0.00  0.00    +0.000 A 
ATOM      9  N   UNL     1      -1.062  12.257  20.740  0.00  0.00    +0.000 NA
ATOM     10  C   UNL     1       0.156  12.044  20.201  0.00  0.00    +0.000 A 
ATOM     11  C   UNL     1       0.834  13.090  19.636  0.00  0.00    +0.000 A 
ATOM     12  C   UNL     1       0.236  14.333  19.659  0.00  0.00    +0.000 A 
ATOM     13  N   UNL     1      -0.980  14.545  20.167  0.00  0.00    +0.000 NA
ATOM     14  N   UNL     1       1.083  15.313  19.141  0.00  0.00    +0.000 N 
ATOM     15  C   UNL     1       2.247  14.643  18.571  0.00  0.00    +0.000 C 
ATOM     16  C   UNL     1       2.155  13.160  18.958  0.00  0.00    +0.000 C 
ENDROOT
BRANCH  10  17
ATOM     17  C   UNL     1       0.633  10.667  20.305  0.00  0.00    +0.000 A 
ATOM     18  C   UNL     1       0.783  10.010  21.515  0.00  0.00    +0.000 A 
ATOM     19  N   UNL     1       1.245   8.744  21.662  0.00  0.00    +0.000 NA
ATOM     20  C   UNL     1       1.599   8.109  20.545  0.00  0.00    +0.000 A 
ATOM     21  N   UNL     1       2.089   6.826  20.652  0.00  0.00    +0.000 N 
ATOM     22  N   UNL     1       1.487   8.618  19.319  0.00  0.00    +0.000 NA
ATOM     23  C   UNL     1       1.027   9.886  19.234  0.00  0.00    +0.000 A 
ATOM     24  H   UNL     1       1.773   6.404  21.514  0.00  0.00    +0.000 HD
ATOM     25  H   UNL     1       1.931   6.323  19.795  0.00  0.00    +0.000 HD
ENDBRANCH  10  17
BRANCH  14  26
ATOM     26  C   UNL     1       0.759  16.722  18.905  0.00  0.00    +0.000 C 
ATOM     27  C   UNL     1       0.705  17.494  20.235  0.00  0.00    +0.000 C 
ATOM     28  C   UNL     1       1.713  17.387  17.912  0.00  0.00    +0.000 C 
ATOM     29  C   UNL     1       0.894  18.503  17.296  0.00  0.00    +0.000 C 
ATOM     30  N   UNL     1      -0.486  18.017  17.218  0.00  0.00    +0.000 NA
ATOM     31  C   UNL     1      -0.581  16.865  18.135  0.00  0.00    +0.000 C 
ATOM     32  H   UNL     1      -0.658  17.677  16.271  0.00  0.00    +0.000 HD
ENDBRANCH  14  26
TORSDOF 2
ENDMDL
MODEL 7
REMARK VINA RESULT:      -6.6      7.708     11.659
REMARK  Name = 
REMARK  4 active torsions:
REMARK  status: ('A' for Active; 'I' for Inactive)
REMARK    1  A    between atoms: C_1  and  C_2
REMARK    2  A    between atoms: C_10  and  C_11
REMARK    3  A    between atoms: N_21  and  C_22
REMARK    4  A    between atoms: C_22  and  C_23
REMARK                            x       y       z     vdW  Elec       q    Type
REMARK                         _______ _______ _______ _____ _____    ______ ____
ROOT
ATOM      1  C   UNL     1       5.769  16.935  22.543  0.00  0.00    +0.000 C 
ATOM      2  C   UNL     1       5.509  16.943  21.042  0.00  0.00    +0.000 C 
ATOM      3  C   UNL     1       4.016  17.275  20.778  0.00  0.00    +0.000 C 
ATOM      4  O   UNL     1       3.743  17.397  19.369  0.00  0.00    +0.000 OA
ATOM      5  C   UNL     1       4.084  16.182  18.679  0.00  0.00    +0.000 C 
ATOM      6  C   UNL     1       5.566  15.821  18.875  0.00  0.00    +0.000 C 
ATOM      7  N   UNL     1       5.804  15.684  20.317  0.00  0.00    +0.000 N 
ATOM      8  C   UNL     1       6.863  14.891  20.697  0.00  0.00    +0.000 A 
ATOM      9  N   UNL     1       6.783  14.341  21.923  0.00  0.00    +0.000 NA
ATOM     10  C   UNL     1       7.734  13.480  22.337  0.00  0.00    +0.000 A 
ATOM     11  C   UNL     1       8.770  13.167  21.499  0.00  0.00    +0.000 A 
ATOM     12  C   UNL     1       8.801  13.772  20.260  0.00  0.00    +0.000 A 
ATOM     13  N   UNL     1       7.850  14.606  19.834  0.00  0.00    +0.000 NA
ATOM     14  N   UNL     1       9.962  13.438  19.561  0.00  0.00    +0.000 N 
ATOM     15  C   UNL     1      10.656  12.401  20.316  0.00  0.00    +0.000 C 
ATOM     16  C   UNL     1       9.931  12.254  21.662  0.00  0.00    +0.000 C 
ENDROOT
BRANCH  10  17
ATOM     17  C   UNL     1       7.544  12.972  23.695  0.00  0.00    +0.000 A 
ATOM     18  C   UNL     1       8.115  13.566  24.808  0.00  0.00    +0.000 A 
ATOM     19  N   UNL     1       7.988  13.118  26.081  0.00  0.00    +0.000 NA
ATOM     20  C   UNL     1       7.274  12.006  26.249  0.00  0.00    +0.000 A 
ATOM     21  N   UNL     1       7.134  11.508  27.526  0.00  0.00    +0.000 N 
ATOM     22  N   UNL     1       6.657  11.349  25.267  0.00  0.00    +0.000 NA
ATOM     23  C   UNL     1       6.824  11.837  24.019  0.00  0.00    +0.000 A 
ATOM     24  H   UNL     1       7.277  12.243  28.204  0.00  0.00    +0.000 HD
ATOM     25  H   UNL     1       6.292  10.961  27.593  0.00  0.00    +0.000 HD
ENDBRANCH  10  17
BRANCH  14  26
ATOM     26  C   UNL     1      10.293  13.799  18.181  0.00  0.00    +0.000 C 
ATOM     27  C   UNL     1       9.381  13.050  17.194  0.00  0.00    +0.000 C 
ATOM     28  C   UNL     1      10.252  15.309  17.942  0.00  0.00    +0.000 C 
ATOM     29  C   UNL     1      11.216  15.532  16.795  0.00  0.00    +0.000 C 
ATOM     30  N   UNL     1      12.293  14.552  16.955  0.00  0.00    +0.000 NA
ATOM     31  C   UNL     1      11.786  13.513  17.871  0.00  0.00    +0.000 C 
ATOM     32  H   UNL     1      13.085  15.010  17.409  0.00  0.00    +0.000 HD
ENDBRANCH  14  26
TORSDOF 2
ENDMDL
MODEL 8
REMARK VINA RESULT:      -6.5      3.068      5.969
REMARK  Name = 
REMARK  4 active torsions:
REMARK  status: ('A' for Active; 'I' for Inactive)
REMARK    1  A    between atoms: C_1  and  C_2
REMARK    2  A    between atoms: C_10  and  C_11
REMARK    3  A    between atoms: N_21  and  C_22
REMARK    4  A    between atoms: C_22  and  C_23
REMARK                            x       y       z     vdW  Elec       q    Type
REMARK                         _______ _______ _______ _____ _____    ______ ____
ROOT
ATOM      1  C   UNL     1      -1.206  11.409  23.069  0.00  0.00    +0.000 C 
ATOM      2  C   UNL     1      -2.083  12.608  22.725  0.00  0.00    +0.000 C 
ATOM      3  C   UNL     1      -3.564  12.271  23.044  0.00  0.00    +0.000 C 
ATOM      4  O   UNL     1      -4.421  13.410  22.834  0.00  0.00    +0.000 OA
ATOM      5  C   UNL     1      -4.325  13.873  21.476  0.00  0.00    +0.000 C 
ATOM      6  C   UNL     1      -2.881  14.258  21.113  0.00  0.00    +0.000 C 
ATOM      7  N   UNL     1      -2.041  13.071  21.319  0.00  0.00    +0.000 N 
ATOM      8  C   UNL     1      -0.868  13.011  20.599  0.00  0.00    +0.000 A 
ATOM      9  N   UNL     1      -0.378  11.780  20.364  0.00  0.00    +0.000 NA
ATOM     10  C   UNL     1       0.715  11.627  19.589  0.00  0.00    +0.000 A 
ATOM     11  C   UNL     1       1.312  12.731  19.043  0.00  0.00    +0.000 A 
ATOM     12  C   UNL     1       0.768  13.966  19.329  0.00  0.00    +0.000 A 
ATOM     13  N   UNL     1      -0.329  14.122  20.074  0.00  0.00    +0.000 NA
ATOM     14  N   UNL     1       1.539  14.997  18.791  0.00  0.00    +0.000 N 
ATOM     15  C   UNL     1       2.558  14.395  17.939  0.00  0.00    +0.000 C 
ATOM     16  C   UNL     1       2.491  12.876  18.150  0.00  0.00    +0.000 C 
ENDROOT
BRANCH  10  17
ATOM     17  C   UNL     1       1.159  10.244  19.432  0.00  0.00    +0.000 A 
ATOM     18  C   UNL     1       1.196   9.340  20.481  0.00  0.00    +0.000 A 
ATOM     19  N   UNL     1       1.623   8.057  20.389  0.00  0.00    +0.000 NA
ATOM     20  C   UNL     1       2.059   7.662  19.194  0.00  0.00    +0.000 A 
ATOM     21  N   UNL     1       2.516   6.369  19.061  0.00  0.00    +0.000 N 
ATOM     22  N   UNL     1       2.058   8.424  18.100  0.00  0.00    +0.000 NA
ATOM     23  C   UNL     1       1.628   9.695  18.253  0.00  0.00    +0.000 A 
ATOM     24  H   UNL     1       2.123   5.785  19.785  0.00  0.00    +0.000 HD
ATOM     25  H   UNL     1       2.423   6.065  18.107  0.00  0.00    +0.000 HD
ENDBRANCH  10  17
BRANCH  14  26
ATOM     26  C   UNL     1       1.222  16.427  18.795  0.00  0.00    +0.000 C 
ATOM     27  C   UNL     1       1.496  17.037  20.180  0.00  0.00    +0.000 C 
ATOM     28  C   UNL     1       1.953  17.194  17.692  0.00  0.00    +0.000 C 
ATOM     29  C   UNL     1       1.059  18.384  17.408  0.00  0.00    +0.000 C 
ATOM     30  N   UNL     1      -0.321  17.924  17.591  0.00  0.00    +0.000 NA
ATOM     31  C   UNL     1      -0.250  16.674  18.371  0.00  0.00    +0.000 C 
ATOM     32  H   UNL     1      -0.714  17.700  16.675  0.00  0.00    +0.000 HD
ENDBRANCH  14  26
TORSDOF 2
ENDMDL
MODEL 9
REMARK VINA RESULT:      -6.5      2.112      2.853
REMARK  Name = 
REMARK  4 active torsions:
REMARK  status: ('A' for Active; 'I' for Inactive)
REMARK    1  A    between atoms: C_1  and  C_2
REMARK    2  A    between atoms: C_10  and  C_11
REMARK    3  A    between atoms: N_21  and  C_22
REMARK    4  A    between atoms: C_22  and  C_23
REMARK                            x       y       z     vdW  Elec       q    Type
REMARK                         _______ _______ _______ _____ _____    ______ ____
ROOT
ATOM      1  C   UNL     1      -0.934  10.290  18.782  0.00  0.00    +0.000 C 
ATOM      2  C   UNL     1      -2.307  10.294  18.120  0.00  0.00    +0.000 C 
ATOM      3  C   UNL     1      -2.147  10.046  16.597  0.00  0.00    +0.000 C 
ATOM      4  O   UNL     1      -3.425   9.936  15.942  0.00  0.00    +0.000 OA
ATOM      5  C   UNL     1      -4.204  11.128  16.146  0.00  0.00    +0.000 C 
ATOM      6  C   UNL     1      -4.427  11.405  17.643  0.00  0.00    +0.000 C 
ATOM      7  N   UNL     1      -3.108  11.532  18.273  0.00  0.00    +0.000 N 
ATOM      8  C   UNL     1      -3.045  12.264  19.437  0.00  0.00    +0.000 A 
ATOM      9  N   UNL     1      -1.854  12.821  19.726  0.00  0.00    +0.000 NA
ATOM     10  C   UNL     1      -1.732  13.629  20.798  0.00  0.00    +0.000 A 
ATOM     11  C   UNL     1      -2.826  13.880  21.580  0.00  0.00    +0.000 A 
ATOM     12  C   UNL     1      -4.016  13.271  21.239  0.00  0.00    +0.000 A 
ATOM     13  N   UNL     1      -4.150  12.491  20.163  0.00  0.00    +0.000 NA
ATOM     14  N   UNL     1      -5.011  13.537  22.180  0.00  0.00    +0.000 N 
ATOM     15  C   UNL     1      -4.493  14.535  23.109  0.00  0.00    +0.000 C 
ATOM     16  C   UNL     1      -3.003  14.726  22.789  0.00  0.00    +0.000 C 
ENDROOT
BRANCH  10  17
ATOM     17  C   UNL     1      -0.383  14.150  21.014  0.00  0.00    +0.000 A 
ATOM     18  C   UNL     1       0.698  13.339  21.317  0.00  0.00    +0.000 A 
ATOM     19  N   UNL     1       1.959  13.778  21.550  0.00  0.00    +0.000 NA
ATOM     20  C   UNL     1       2.145  15.096  21.504  0.00  0.00    +0.000 A 
ATOM     21  N   UNL     1       3.410  15.585  21.750  0.00  0.00    +0.000 N 
ATOM     22  N   UNL     1       1.197  15.983  21.205  0.00  0.00    +0.000 NA
ATOM     23  C   UNL     1      -0.041  15.489  20.989  0.00  0.00    +0.000 A 
ATOM     24  H   UNL     1       4.101  14.870  21.572  0.00  0.00    +0.000 HD
ATOM     25  H   UNL     1       3.529  16.478  21.303  0.00  0.00    +0.000 HD
ENDBRANCH  10  17
BRANCH  14  26
ATOM     26  C   UNL     1      -6.422  13.154  22.100  0.00  0.00    +0.000 C 
ATOM     27  C   UNL     1      -7.274  14.332  21.596  0.00  0.00    +0.000 C 
ATOM     28  C   UNL     1      -6.645  11.902  21.251  0.00  0.00    +0.000 C 
ATOM     29  C   UNL     1      -7.917  11.294  21.807  0.00  0.00    +0.000 C 
ATOM     30  N   UNL     1      -7.917  11.565  23.247  0.00  0.00    +0.000 NA
ATOM     31  C   UNL     1      -6.943  12.651  23.472  0.00  0.00    +0.000 C 
ATOM     32  H   UNL     1      -7.577  10.735  23.735  0.00  0.00    +0.000 HD
ENDBRANCH  14  26
TORSDOF 2
ENDMDL
