MODEL 1
REMARK VINA RESULT:      -9.2      0.000      0.000
REMARK  Name = 
REMARK  7 active torsions:
REMARK  status: ('A' for Active; 'I' for Inactive)
REMARK    1  A    between atoms: C_1  and  C_2
REMARK    2  A    between atoms: C_5  and  N_6
REMARK    3  A    between atoms: N_6  and  C_7
REMARK    4  A    between atoms: C_7  and  C_8
REMARK    5  A    between atoms: C_17  and  O_18
REMARK    6  A    between atoms: C_19  and  C_21
REMARK    7  A    between atoms: C_26  and  C_27
REMARK                            x       y       z     vdW  Elec       q    Type
REMARK                         _______ _______ _______ _____ _____    ______ ____
ROOT
ATOM      1  N   UNL     1       4.545   4.227  18.061  0.00  0.00    +0.000 N 
ATOM      2  C   UNL     1       3.564   3.213  18.207  0.00  0.00    +0.000 C 
ATOM      3  O   UNL     1       3.330   2.382  17.327  0.00  0.00    +0.000 OA
ENDROOT
BRANCH   1   8
ATOM      4  C   UNL     1       7.514   5.184  13.242  0.00  0.00    +0.000 C 
ATOM      5  C   UNL     1       6.826   4.736  14.497  0.00  0.00    +0.000 A 
ATOM      6  C   UNL     1       5.544   4.200  14.458  0.00  0.00    +0.000 A 
ATOM      7  C   UNL     1       4.853   3.933  15.644  0.00  0.00    +0.000 A 
ATOM      8  C   UNL     1       5.408   4.226  16.901  0.00  0.00    +0.000 A 
ATOM      9  C   UNL     1       6.760   4.607  16.943  0.00  0.00    +0.000 A 
ATOM     10  C   UNL     1       7.577   4.627  18.208  0.00  0.00    +0.000 C 
ATOM     11  C   UNL     1       7.438   4.904  15.743  0.00  0.00    +0.000 A 
ENDBRANCH   1   8
BRANCH   2  12
ATOM     12  C   UNL     1       2.821   3.141  19.469  0.00  0.00    +0.000 A 
ATOM     13  C   UNL     1       1.468   3.296  19.728  0.00  0.00    +0.000 A 
ATOM     14  C   UNL     1       1.285   3.077  21.117  0.00  0.00    +0.000 A 
ATOM     15  C   UNL     1       2.524   2.758  21.618  0.00  0.00    +0.000 A 
ATOM     16  O   UNL     1       3.447   2.778  20.628  0.00  0.00    +0.000 OA
ENDBRANCH   2  12
BRANCH   1  17
ATOM     17  C   UNL     1       4.632   5.387  18.967  0.00  0.00    +0.000 C 
BRANCH  17  18
ATOM     18  C   UNL     1       3.525   6.409  18.910  0.00  0.00    +0.000 A 
ATOM     19  C   UNL     1       2.573   6.608  19.910  0.00  0.00    +0.000 A 
ATOM     20  C   UNL     1       1.762   7.748  19.892  0.00  0.00    +0.000 A 
ATOM     21  C   UNL     1       0.926   8.065  20.974  0.00  0.00    +0.000 A 
ATOM     22  C   UNL     1       0.243   9.278  20.998  0.00  0.00    +0.000 A 
ATOM     23  C   UNL     1       0.371  10.159  19.929  0.00  0.00    +0.000 A 
ATOM     24  C   UNL     1       1.157   9.810  18.827  0.00  0.00    +0.000 A 
ATOM     25  C   UNL     1       1.864   8.617  18.785  0.00  0.00    +0.000 A 
ATOM     26  N   UNL     1       2.650   8.346  17.730  0.00  0.00    +0.000 NA
ATOM     27  C   UNL     1       3.448   7.271  17.830  0.00  0.00    +0.000 A 
BRANCH  27  28
ATOM     28  O   UNL     1       4.231   7.091  16.736  0.00  0.00    +0.000 OA
ATOM     29  H   UNL     1       3.931   6.203  16.465  0.00  0.00    +0.000 HD
ENDBRANCH  27  28
ENDBRANCH  17  18
ENDBRANCH   1  17
TORSDOF 5
ENDMDL
MODEL 2
REMARK VINA RESULT:      -8.4      1.065      4.999
REMARK  Name = 
REMARK  7 active torsions:
REMARK  status: ('A' for Active; 'I' for Inactive)
REMARK    1  A    between atoms: C_1  and  C_2
REMARK    2  A    between atoms: C_5  and  N_6
REMARK    3  A    between atoms: N_6  and  C_7
REMARK    4  A    between atoms: C_7  and  C_8
REMARK    5  A    between atoms: C_17  and  O_18
REMARK    6  A    between atoms: C_19  and  C_21
REMARK    7  A    between atoms: C_26  and  C_27
REMARK                            x       y       z     vdW  Elec       q    Type
REMARK                         _______ _______ _______ _____ _____    ______ ____
ROOT
ATOM      1  N   UNL     1       4.192   4.045  18.371  0.00  0.00    +0.000 N 
ATOM      2  C   UNL     1       4.757   3.310  17.299  0.00  0.00    +0.000 C 
ATOM      3  O   UNL     1       4.602   2.094  17.171  0.00  0.00    +0.000 OA
ENDROOT
BRANCH   1   8
ATOM      4  C   UNL     1       0.773   2.312  22.645  0.00  0.00    +0.000 C 
ATOM      5  C   UNL     1       1.634   2.568  21.444  0.00  0.00    +0.000 A 
ATOM      6  C   UNL     1       3.007   2.354  21.488  0.00  0.00    +0.000 A 
ATOM      7  C   UNL     1       3.818   2.744  20.418  0.00  0.00    +0.000 A 
ATOM      8  C   UNL     1       3.287   3.391  19.289  0.00  0.00    +0.000 A 
ATOM      9  C   UNL     1       1.887   3.453  19.173  0.00  0.00    +0.000 A 
ATOM     10  C   UNL     1       1.177   3.804  17.893  0.00  0.00    +0.000 C 
ATOM     11  C   UNL     1       1.081   3.087  20.270  0.00  0.00    +0.000 A 
ENDBRANCH   1   8
BRANCH   2  12
ATOM     12  C   UNL     1       5.533   4.037  16.290  0.00  0.00    +0.000 A 
ATOM     13  C   UNL     1       6.873   4.393  16.268  0.00  0.00    +0.000 A 
ATOM     14  C   UNL     1       7.108   5.045  15.031  0.00  0.00    +0.000 A 
ATOM     15  C   UNL     1       5.914   5.011  14.351  0.00  0.00    +0.000 A 
ATOM     16  O   UNL     1       4.969   4.392  15.097  0.00  0.00    +0.000 OA
ENDBRANCH   2  12
BRANCH   1  17
ATOM     17  C   UNL     1       4.602   5.424  18.696  0.00  0.00    +0.000 C 
BRANCH  17  18
ATOM     18  C   UNL     1       3.550   6.502  18.642  0.00  0.00    +0.000 A 
ATOM     19  C   UNL     1       2.644   6.782  19.665  0.00  0.00    +0.000 A 
ATOM     20  C   UNL     1       1.895   7.964  19.637  0.00  0.00    +0.000 A 
ATOM     21  C   UNL     1       1.114   8.357  20.735  0.00  0.00    +0.000 A 
ATOM     22  C   UNL     1       0.498   9.606  20.744  0.00  0.00    +0.000 A 
ATOM     23  C   UNL     1       0.637  10.447  19.644  0.00  0.00    +0.000 A 
ATOM     24  C   UNL     1       1.367  10.024  18.529  0.00  0.00    +0.000 A 
ATOM     25  C   UNL     1       2.007   8.793  18.502  0.00  0.00    +0.000 A 
ATOM     26  N   UNL     1       2.742   8.450  17.431  0.00  0.00    +0.000 NA
ATOM     27  C   UNL     1       3.484   7.335  17.539  0.00  0.00    +0.000 A 
BRANCH  27  28
ATOM     28  O   UNL     1       4.219   7.082  16.427  0.00  0.00    +0.000 OA
ATOM     29  H   UNL     1       4.602   7.967  16.279  0.00  0.00    +0.000 HD
ENDBRANCH  27  28
ENDBRANCH  17  18
ENDBRANCH   1  17
TORSDOF 5
ENDMDL
MODEL 3
REMARK VINA RESULT:      -8.1      1.643      6.225
REMARK  Name = 
REMARK  7 active torsions:
REMARK  status: ('A' for Active; 'I' for Inactive)
REMARK    1  A    between atoms: C_1  and  C_2
REMARK    2  A    between atoms: C_5  and  N_6
REMARK    3  A    between atoms: N_6  and  C_7
REMARK    4  A    between atoms: C_7  and  C_8
REMARK    5  A    between atoms: C_17  and  O_18
REMARK    6  A    between atoms: C_19  and  C_21
REMARK    7  A    between atoms: C_26  and  C_27
REMARK                            x       y       z     vdW  Elec       q    Type
REMARK                         _______ _______ _______ _____ _____    ______ ____
ROOT
ATOM      1  N   UNL     1       2.828   5.480  19.706  0.00  0.00    +0.000 N 
ATOM      2  C   UNL     1       2.119   4.253  19.690  0.00  0.00    +0.000 C 
ATOM      3  O   UNL     1       0.898   4.188  19.845  0.00  0.00    +0.000 OA
ENDROOT
BRANCH   1   8
ATOM      4  C   UNL     1       0.759  10.763  20.583  0.00  0.00    +0.000 C 
ATOM      5  C   UNL     1       1.109   9.341  20.261  0.00  0.00    +0.000 A 
ATOM      6  C   UNL     1       0.914   8.327  21.194  0.00  0.00    +0.000 A 
ATOM      7  C   UNL     1       1.388   7.036  20.942  0.00  0.00    +0.000 A 
ATOM      8  C   UNL     1       2.100   6.727  19.771  0.00  0.00    +0.000 A 
ATOM      9  C   UNL     1       2.147   7.705  18.761  0.00  0.00    +0.000 A 
ATOM     10  C   UNL     1       2.569   7.414  17.346  0.00  0.00    +0.000 C 
ATOM     11  C   UNL     1       1.695   9.012  19.036  0.00  0.00    +0.000 A 
ENDBRANCH   1   8
BRANCH   2  12
ATOM     12  C   UNL     1       2.873   3.017  19.454  0.00  0.00    +0.000 A 
ATOM     13  C   UNL     1       2.864   2.150  18.373  0.00  0.00    +0.000 A 
ATOM     14  C   UNL     1       3.821   1.140  18.646  0.00  0.00    +0.000 A 
ATOM     15  C   UNL     1       4.389   1.470  19.852  0.00  0.00    +0.000 A 
ATOM     16  O   UNL     1       3.834   2.607  20.334  0.00  0.00    +0.000 OA
ENDBRANCH   2  12
BRANCH   1  17
ATOM     17  C   UNL     1       4.297   5.551  19.814  0.00  0.00    +0.000 C 
BRANCH  17  18
ATOM     18  C   UNL     1       5.112   5.142  18.613  0.00  0.00    +0.000 A 
ATOM     19  C   UNL     1       4.578   4.742  17.388  0.00  0.00    +0.000 A 
ATOM     20  C   UNL     1       5.401   4.646  16.260  0.00  0.00    +0.000 A 
ATOM     21  C   UNL     1       4.864   4.423  14.983  0.00  0.00    +0.000 A 
ATOM     22  C   UNL     1       5.684   4.479  13.860  0.00  0.00    +0.000 A 
ATOM     23  C   UNL     1       7.044   4.728  14.015  0.00  0.00    +0.000 A 
ATOM     24  C   UNL     1       7.584   4.889  15.295  0.00  0.00    +0.000 A 
ATOM     25  C   UNL     1       6.786   4.857  16.431  0.00  0.00    +0.000 A 
ATOM     26  N   UNL     1       7.337   5.069  17.637  0.00  0.00    +0.000 NA
ATOM     27  C   UNL     1       6.492   5.210  18.671  0.00  0.00    +0.000 A 
BRANCH  27  28
ATOM     28  O   UNL     1       7.131   5.455  19.844  0.00  0.00    +0.000 OA
ATOM     29  H   UNL     1       8.046   5.542  19.516  0.00  0.00    +0.000 HD
ENDBRANCH  27  28
ENDBRANCH  17  18
ENDBRANCH   1  17
TORSDOF 5
ENDMDL
MODEL 4
REMARK VINA RESULT:      -8.0      4.272      9.654
REMARK  Name = 
REMARK  7 active torsions:
REMARK  status: ('A' for Active; 'I' for Inactive)
REMARK    1  A    between atoms: C_1  and  C_2
REMARK    2  A    between atoms: C_5  and  N_6
REMARK    3  A    between atoms: N_6  and  C_7
REMARK    4  A    between atoms: C_7  and  C_8
REMARK    5  A    between atoms: C_17  and  O_18
REMARK    6  A    between atoms: C_19  and  C_21
REMARK    7  A    between atoms: C_26  and  C_27
REMARK                            x       y       z     vdW  Elec       q    Type
REMARK                         _______ _______ _______ _____ _____    ______ ____
ROOT
ATOM      1  N   UNL     1      -0.722  12.203  19.527  0.00  0.00    +0.000 N 
ATOM      2  C   UNL     1      -0.078  13.092  18.629  0.00  0.00    +0.000 C 
ATOM      3  O   UNL     1      -0.629  13.530  17.617  0.00  0.00    +0.000 OA
ENDROOT
BRANCH   1   8
ATOM      4  C   UNL     1      -6.329  11.924  18.328  0.00  0.00    +0.000 C 
ATOM      5  C   UNL     1      -4.895  11.814  18.753  0.00  0.00    +0.000 A 
ATOM      6  C   UNL     1      -4.434  12.464  19.893  0.00  0.00    +0.000 A 
ATOM      7  C   UNL     1      -3.068  12.483  20.190  0.00  0.00    +0.000 A 
ATOM      8  C   UNL     1      -2.120  11.887  19.342  0.00  0.00    +0.000 A 
ATOM      9  C   UNL     1      -2.600  11.091  18.287  0.00  0.00    +0.000 A 
ATOM     10  C   UNL     1      -1.736  10.133  17.512  0.00  0.00    +0.000 C 
ATOM     11  C   UNL     1      -3.976  11.103  17.976  0.00  0.00    +0.000 A 
ENDBRANCH   1   8
BRANCH   2  12
ATOM     12  C   UNL     1       1.288  13.525  18.939  0.00  0.00    +0.000 A 
ATOM     13  C   UNL     1       2.498  13.165  18.367  0.00  0.00    +0.000 A 
ATOM     14  C   UNL     1       3.505  13.921  19.019  0.00  0.00    +0.000 A 
ATOM     15  C   UNL     1       2.852  14.728  19.918  0.00  0.00    +0.000 A 
ATOM     16  O   UNL     1       1.517  14.506  19.861  0.00  0.00    +0.000 OA
ENDBRANCH   2  12
BRANCH   1  17
ATOM     17  C   UNL     1       0.008  11.453  20.565  0.00  0.00    +0.000 C 
BRANCH  17  18
ATOM     18  C   UNL     1       0.533  10.085  20.207  0.00  0.00    +0.000 A 
ATOM     19  C   UNL     1       1.170   9.767  19.007  0.00  0.00    +0.000 A 
ATOM     20  C   UNL     1       1.860   8.556  18.877  0.00  0.00    +0.000 A 
ATOM     21  C   UNL     1       2.657   8.289  17.753  0.00  0.00    +0.000 A 
ATOM     22  C   UNL     1       3.449   7.144  17.714  0.00  0.00    +0.000 A 
ATOM     23  C   UNL     1       3.421   6.254  18.783  0.00  0.00    +0.000 A 
ATOM     24  C   UNL     1       2.579   6.496  19.872  0.00  0.00    +0.000 A 
ATOM     25  C   UNL     1       1.794   7.638  19.946  0.00  0.00    +0.000 A 
ATOM     26  N   UNL     1       1.040   7.857  21.036  0.00  0.00    +0.000 NA
ATOM     27  C   UNL     1       0.450   9.059  21.131  0.00  0.00    +0.000 A 
BRANCH  27  28
ATOM     28  O   UNL     1      -0.264   9.207  22.276  0.00  0.00    +0.000 OA
ATOM     29  H   UNL     1      -0.431   8.270  22.486  0.00  0.00    +0.000 HD
ENDBRANCH  27  28
ENDBRANCH  17  18
ENDBRANCH   1  17
TORSDOF 5
ENDMDL
MODEL 5
REMARK VINA RESULT:      -8.0      7.732     10.693
REMARK  Name = 
REMARK  7 active torsions:
REMARK  status: ('A' for Active; 'I' for Inactive)
REMARK    1  A    between atoms: C_1  and  C_2
REMARK    2  A    between atoms: C_5  and  N_6
REMARK    3  A    between atoms: N_6  and  C_7
REMARK    4  A    between atoms: C_7  and  C_8
REMARK    5  A    between atoms: C_17  and  O_18
REMARK    6  A    between atoms: C_19  and  C_21
REMARK    7  A    between atoms: C_26  and  C_27
REMARK                            x       y       z     vdW  Elec       q    Type
REMARK                         _______ _______ _______ _____ _____    ______ ____
ROOT
ATOM      1  N   UNL     1      -0.497  13.461  20.349  0.00  0.00    +0.000 N 
ATOM      2  C   UNL     1       0.006  13.130  21.633  0.00  0.00    +0.000 C 
ATOM      3  O   UNL     1       0.479  13.972  22.399  0.00  0.00    +0.000 OA
ENDROOT
BRANCH   1   8
ATOM      4  C   UNL     1      -1.289  18.571  17.857  0.00  0.00    +0.000 C 
ATOM      5  C   UNL     1      -0.975  17.345  18.661  0.00  0.00    +0.000 A 
ATOM      6  C   UNL     1       0.150  16.575  18.383  0.00  0.00    +0.000 A 
ATOM      7  C   UNL     1       0.347  15.353  19.033  0.00  0.00    +0.000 A 
ATOM      8  C   UNL     1      -0.589  14.847  19.951  0.00  0.00    +0.000 A 
ATOM      9  C   UNL     1      -1.632  15.700  20.354  0.00  0.00    +0.000 A 
ATOM     10  C   UNL     1      -2.501  15.436  21.554  0.00  0.00    +0.000 C 
ATOM     11  C   UNL     1      -1.841  16.915  19.671  0.00  0.00    +0.000 A 
ENDBRANCH   1   8
BRANCH   2  12
ATOM     12  C   UNL     1      -0.070  11.733  22.071  0.00  0.00    +0.000 A 
ATOM     13  C   UNL     1      -1.074  11.052  22.741  0.00  0.00    +0.000 A 
ATOM     14  C   UNL     1      -0.647   9.707  22.871  0.00  0.00    +0.000 A 
ATOM     15  C   UNL     1       0.569   9.632  22.236  0.00  0.00    +0.000 A 
ATOM     16  O   UNL     1       0.912  10.843  21.738  0.00  0.00    +0.000 OA
ENDBRANCH   2  12
BRANCH   1  17
ATOM     17  C   UNL     1      -0.791  12.444  19.323  0.00  0.00    +0.000 C 
BRANCH  17  18
ATOM     18  C   UNL     1      -2.238  12.112  19.055  0.00  0.00    +0.000 A 
ATOM     19  C   UNL     1      -3.288  12.364  19.938  0.00  0.00    +0.000 A 
ATOM     20  C   UNL     1      -4.614  12.275  19.497  0.00  0.00    +0.000 A 
ATOM     21  C   UNL     1      -5.680  12.695  20.307  0.00  0.00    +0.000 A 
ATOM     22  C   UNL     1      -6.974  12.737  19.793  0.00  0.00    +0.000 A 
ATOM     23  C   UNL     1      -7.205  12.330  18.483  0.00  0.00    +0.000 A 
ATOM     24  C   UNL     1      -6.147  11.855  17.702  0.00  0.00    +0.000 A 
ATOM     25  C   UNL     1      -4.845  11.822  18.182  0.00  0.00    +0.000 A 
ATOM     26  N   UNL     1      -3.851  11.408  17.379  0.00  0.00    +0.000 NA
ATOM     27  C   UNL     1      -2.599  11.572  17.834  0.00  0.00    +0.000 A 
BRANCH  27  28
ATOM     28  O   UNL     1      -1.657  11.160  16.947  0.00  0.00    +0.000 OA
ATOM     29  H   UNL     1      -1.121  10.592  17.531  0.00  0.00    +0.000 HD
ENDBRANCH  27  28
ENDBRANCH  17  18
ENDBRANCH   1  17
TORSDOF 5
ENDMDL
MODEL 6
REMARK VINA RESULT:      -7.9      1.630      6.141
REMARK  Name = 
REMARK  7 active torsions:
REMARK  status: ('A' for Active; 'I' for Inactive)
REMARK    1  A    between atoms: C_1  and  C_2
REMARK    2  A    between atoms: C_5  and  N_6
REMARK    3  A    between atoms: N_6  and  C_7
REMARK    4  A    between atoms: C_7  and  C_8
REMARK    5  A    between atoms: C_17  and  O_18
REMARK    6  A    between atoms: C_19  and  C_21
REMARK    7  A    between atoms: C_26  and  C_27
REMARK                            x       y       z     vdW  Elec       q    Type
REMARK                         _______ _______ _______ _____ _____    ______ ____
ROOT
ATOM      1  N   UNL     1       3.204   5.744  19.098  0.00  0.00    +0.000 N 
ATOM      2  C   UNL     1       2.337   4.627  19.203  0.00  0.00    +0.000 C 
ATOM      3  O   UNL     1       1.119   4.742  19.345  0.00  0.00    +0.000 OA
ENDROOT
BRANCH   1   8
ATOM      4  C   UNL     1       0.197  10.558  18.240  0.00  0.00    +0.000 C 
ATOM      5  C   UNL     1       1.137   9.430  18.542  0.00  0.00    +0.000 A 
ATOM      6  C   UNL     1       1.999   8.936  17.568  0.00  0.00    +0.000 A 
ATOM      7  C   UNL     1       2.756   7.786  17.813  0.00  0.00    +0.000 A 
ATOM      8  C   UNL     1       2.648   7.077  19.020  0.00  0.00    +0.000 A 
ATOM      9  C   UNL     1       1.909   7.669  20.060  0.00  0.00    +0.000 A 
ATOM     10  C   UNL     1       1.978   7.208  21.492  0.00  0.00    +0.000 C 
ATOM     11  C   UNL     1       1.125   8.810  19.794  0.00  0.00    +0.000 A 
ENDBRANCH   1   8
BRANCH   2  12
ATOM     12  C   UNL     1       2.919   3.284  19.109  0.00  0.00    +0.000 A 
ATOM     13  C   UNL     1       2.792   2.314  18.128  0.00  0.00    +0.000 A 
ATOM     14  C   UNL     1       3.607   1.221  18.519  0.00  0.00    +0.000 A 
ATOM     15  C   UNL     1       4.218   1.602  19.689  0.00  0.00    +0.000 A 
ATOM     16  O   UNL     1       3.821   2.849  20.038  0.00  0.00    +0.000 OA
ENDBRANCH   2  12
BRANCH   1  17
ATOM     17  C   UNL     1       4.669   5.630  19.220  0.00  0.00    +0.000 C 
BRANCH  17  18
ATOM     18  C   UNL     1       5.450   5.251  17.987  0.00  0.00    +0.000 A 
ATOM     19  C   UNL     1       4.929   4.552  16.899  0.00  0.00    +0.000 A 
ATOM     20  C   UNL     1       5.645   4.486  15.698  0.00  0.00    +0.000 A 
ATOM     21  C   UNL     1       5.070   3.947  14.536  0.00  0.00    +0.000 A 
ATOM     22  C   UNL     1       5.744   4.027  13.320  0.00  0.00    +0.000 A 
ATOM     23  C   UNL     1       7.003   4.617  13.272  0.00  0.00    +0.000 A 
ATOM     24  C   UNL     1       7.596   5.097  14.444  0.00  0.00    +0.000 A 
ATOM     25  C   UNL     1       6.938   5.048  15.665  0.00  0.00    +0.000 A 
ATOM     26  N   UNL     1       7.523   5.569  16.756  0.00  0.00    +0.000 NA
ATOM     27  C   UNL     1       6.767   5.658  17.863  0.00  0.00    +0.000 A 
BRANCH  27  28
ATOM     28  O   UNL     1       7.424   6.227  18.906  0.00  0.00    +0.000 OA
ATOM     29  H   UNL     1       6.708   6.226  19.569  0.00  0.00    +0.000 HD
ENDBRANCH  27  28
ENDBRANCH  17  18
ENDBRANCH   1  17
TORSDOF 5
ENDMDL
MODEL 7
REMARK VINA RESULT:      -7.9      2.768      5.804
REMARK  Name = 
REMARK  7 active torsions:
REMARK  status: ('A' for Active; 'I' for Inactive)
REMARK    1  A    between atoms: C_1  and  C_2
REMARK    2  A    between atoms: C_5  and  N_6
REMARK    3  A    between atoms: N_6  and  C_7
REMARK    4  A    between atoms: C_7  and  C_8
REMARK    5  A    between atoms: C_17  and  O_18
REMARK    6  A    between atoms: C_19  and  C_21
REMARK    7  A    between atoms: C_26  and  C_27
REMARK                            x       y       z     vdW  Elec       q    Type
REMARK                         _______ _______ _______ _____ _____    ______ ____
ROOT
ATOM      1  N   UNL     1       5.657   4.460  15.281  0.00  0.00    +0.000 N 
ATOM      2  C   UNL     1       6.294   4.533  14.017  0.00  0.00    +0.000 C 
ATOM      3  O   UNL     1       7.215   5.317  13.781  0.00  0.00    +0.000 OA
ENDROOT
BRANCH   1   8
ATOM      4  C   UNL     1       8.603   7.607  19.072  0.00  0.00    +0.000 C 
ATOM      5  C   UNL     1       7.687   6.760  18.239  0.00  0.00    +0.000 A 
ATOM      6  C   UNL     1       7.866   5.384  18.153  0.00  0.00    +0.000 A 
ATOM      7  C   UNL     1       7.108   4.628  17.253  0.00  0.00    +0.000 A 
ATOM      8  C   UNL     1       6.175   5.228  16.390  0.00  0.00    +0.000 A 
ATOM      9  C   UNL     1       5.877   6.586  16.597  0.00  0.00    +0.000 A 
ATOM     10  C   UNL     1       4.682   7.274  15.992  0.00  0.00    +0.000 C 
ATOM     11  C   UNL     1       6.668   7.346  17.483  0.00  0.00    +0.000 A 
ENDBRANCH   1   8
BRANCH   2  12
ATOM     12  C   UNL     1       5.851   3.618  12.960  0.00  0.00    +0.000 A 
ATOM     13  C   UNL     1       4.682   3.600  12.216  0.00  0.00    +0.000 A 
ATOM     14  C   UNL     1       4.792   2.525  11.298  0.00  0.00    +0.000 A 
ATOM     15  C   UNL     1       6.036   1.978  11.502  0.00  0.00    +0.000 A 
ATOM     16  O   UNL     1       6.683   2.642  12.488  0.00  0.00    +0.000 OA
ENDBRANCH   2  12
BRANCH   1  17
ATOM     17  C   UNL     1       4.382   3.748  15.491  0.00  0.00    +0.000 C 
BRANCH  17  18
ATOM     18  C   UNL     1       3.911   3.550  16.910  0.00  0.00    +0.000 A 
ATOM     19  C   UNL     1       3.287   4.528  17.685  0.00  0.00    +0.000 A 
ATOM     20  C   UNL     1       2.647   4.175  18.878  0.00  0.00    +0.000 A 
ATOM     21  C   UNL     1       1.860   5.100  19.583  0.00  0.00    +0.000 A 
ATOM     22  C   UNL     1       1.114   4.687  20.684  0.00  0.00    +0.000 A 
ATOM     23  C   UNL     1       1.178   3.361  21.098  0.00  0.00    +0.000 A 
ATOM     24  C   UNL     1       2.011   2.459  20.428  0.00  0.00    +0.000 A 
ATOM     25  C   UNL     1       2.750   2.839  19.316  0.00  0.00    +0.000 A 
ATOM     26  N   UNL     1       3.496   1.927  18.671  0.00  0.00    +0.000 NA
ATOM     27  C   UNL     1       4.037   2.307  17.502  0.00  0.00    +0.000 A 
BRANCH  27  28
ATOM     28  O   UNL     1       4.744   1.316  16.902  0.00  0.00    +0.000 OA
ATOM     29  H   UNL     1       5.539   1.317  17.468  0.00  0.00    +0.000 HD
ENDBRANCH  27  28
ENDBRANCH  17  18
ENDBRANCH   1  17
TORSDOF 5
ENDMDL
MODEL 8
REMARK VINA RESULT:      -7.9      4.130      8.611
REMARK  Name = 
REMARK  7 active torsions:
REMARK  status: ('A' for Active; 'I' for Inactive)
REMARK    1  A    between atoms: C_1  and  C_2
REMARK    2  A    between atoms: C_5  and  N_6
REMARK    3  A    between atoms: N_6  and  C_7
REMARK    4  A    between atoms: C_7  and  C_8
REMARK    5  A    between atoms: C_17  and  O_18
REMARK    6  A    between atoms: C_19  and  C_21
REMARK    7  A    between atoms: C_26  and  C_27
REMARK                            x       y       z     vdW  Elec       q    Type
REMARK                         _______ _______ _______ _____ _____    ______ ____
ROOT
ATOM      1  N   UNL     1       0.181  12.015  19.294  0.00  0.00    +0.000 N 
ATOM      2  C   UNL     1      -0.782  12.391  18.323  0.00  0.00    +0.000 C 
ATOM      3  O   UNL     1      -0.724  13.456  17.707  0.00  0.00    +0.000 OA
ENDROOT
BRANCH   1   8
ATOM      4  C   UNL     1       4.450  15.852  19.260  0.00  0.00    +0.000 C 
ATOM      5  C   UNL     1       3.455  14.741  19.412  0.00  0.00    +0.000 A 
ATOM      6  C   UNL     1       3.454  13.657  18.541  0.00  0.00    +0.000 A 
ATOM      7  C   UNL     1       2.428  12.709  18.594  0.00  0.00    +0.000 A 
ATOM      8  C   UNL     1       1.355  12.834  19.492  0.00  0.00    +0.000 A 
ATOM      9  C   UNL     1       1.446  13.831  20.479  0.00  0.00    +0.000 A 
ATOM     10  C   UNL     1       0.561  13.875  21.696  0.00  0.00    +0.000 C 
ATOM     11  C   UNL     1       2.466  14.800  20.398  0.00  0.00    +0.000 A 
ENDBRANCH   1   8
BRANCH   2  12
ATOM     12  C   UNL     1      -1.873  11.456  18.027  0.00  0.00    +0.000 A 
ATOM     13  C   UNL     1      -1.874  10.274  17.304  0.00  0.00    +0.000 A 
ATOM     14  C   UNL     1      -3.189   9.748  17.373  0.00  0.00    +0.000 A 
ATOM     15  C   UNL     1      -3.902  10.612  18.168  0.00  0.00    +0.000 A 
ATOM     16  O   UNL     1      -3.111  11.631  18.578  0.00  0.00    +0.000 OA
ENDBRANCH   2  12
BRANCH   1  17
ATOM     17  C   UNL     1      -0.030  10.899  20.234  0.00  0.00    +0.000 C 
BRANCH  17  18
ATOM     18  C   UNL     1       0.637   9.582  19.924  0.00  0.00    +0.000 A 
ATOM     19  C   UNL     1       1.312   9.292  18.739  0.00  0.00    +0.000 A 
ATOM     20  C   UNL     1       2.124   8.155  18.652  0.00  0.00    +0.000 A 
ATOM     21  C   UNL     1       2.953   7.935  17.541  0.00  0.00    +0.000 A 
ATOM     22  C   UNL     1       3.860   6.878  17.544  0.00  0.00    +0.000 A 
ATOM     23  C   UNL     1       3.916   6.025  18.642  0.00  0.00    +0.000 A 
ATOM     24  C   UNL     1       3.045   6.215  19.719  0.00  0.00    +0.000 A 
ATOM     25  C   UNL     1       2.146   7.271  19.751  0.00  0.00    +0.000 A 
ATOM     26  N   UNL     1       1.365   7.447  20.830  0.00  0.00    +0.000 NA
ATOM     27  C   UNL     1       0.653   8.584  20.882  0.00  0.00    +0.000 A 
BRANCH  27  28
ATOM     28  O   UNL     1      -0.081   8.695  22.019  0.00  0.00    +0.000 OA
ATOM     29  H   UNL     1      -0.501   9.560  21.858  0.00  0.00    +0.000 HD
ENDBRANCH  27  28
ENDBRANCH  17  18
ENDBRANCH   1  17
TORSDOF 5
ENDMDL
MODEL 9
REMARK VINA RESULT:      -7.8      7.064      9.499
REMARK  Name = 
REMARK  7 active torsions:
REMARK  status: ('A' for Active; 'I' for Inactive)
REMARK    1  A    between atoms: C_1  and  C_2
REMARK    2  A    between atoms: C_5  and  N_6
REMARK    3  A    between atoms: N_6  and  C_7
REMARK    4  A    between atoms: C_7  and  C_8
REMARK    5  A    between atoms: C_17  and  O_18
REMARK    6  A    between atoms: C_19  and  C_21
REMARK    7  A    between atoms: C_26  and  C_27
REMARK                            x       y       z     vdW  Elec       q    Type
REMARK                         _______ _______ _______ _____ _____    ______ ____
ROOT
ATOM      1  N   UNL     1       0.338  12.653  19.686  0.00  0.00    +0.000 N 
ATOM      2  C   UNL     1       0.762  12.393  21.013  0.00  0.00    +0.000 C 
ATOM      3  O   UNL     1       1.401  13.210  21.679  0.00  0.00    +0.000 OA
ENDROOT
BRANCH   1   8
ATOM      4  C   UNL     1       1.171  18.197  18.452  0.00  0.00    +0.000 C 
ATOM      5  C   UNL     1       0.918  16.723  18.562  0.00  0.00    +0.000 A 
ATOM      6  C   UNL     1      -0.349  16.235  18.862  0.00  0.00    +0.000 A 
ATOM      7  C   UNL     1      -0.539  14.873  19.117  0.00  0.00    +0.000 A 
ATOM      8  C   UNL     1       0.534  13.967  19.116  0.00  0.00    +0.000 A 
ATOM      9  C   UNL     1       1.777  14.430  18.649  0.00  0.00    +0.000 A 
ATOM     10  C   UNL     1       2.914  13.518  18.275  0.00  0.00    +0.000 C 
ATOM     11  C   UNL     1       1.966  15.809  18.425  0.00  0.00    +0.000 A 
ENDBRANCH   1   8
BRANCH   2  12
ATOM     12  C   UNL     1       0.399  11.109  21.621  0.00  0.00    +0.000 A 
ATOM     13  C   UNL     1      -0.649  10.776  22.464  0.00  0.00    +0.000 A 
ATOM     14  C   UNL     1      -0.554   9.383  22.711  0.00  0.00    +0.000 A 
ATOM     15  C   UNL     1       0.515   8.937  21.972  0.00  0.00    +0.000 A 
ATOM     16  O   UNL     1       1.080   9.968  21.301  0.00  0.00    +0.000 OA
ENDBRANCH   2  12
BRANCH   1  17
ATOM     17  C   UNL     1      -0.163  11.596  18.788  0.00  0.00    +0.000 C 
BRANCH  17  18
ATOM     18  C   UNL     1      -1.656  11.412  18.680  0.00  0.00    +0.000 A 
ATOM     19  C   UNL     1      -2.595  12.037  19.501  0.00  0.00    +0.000 A 
ATOM     20  C   UNL     1      -3.952  12.021  19.155  0.00  0.00    +0.000 A 
ATOM     21  C   UNL     1      -4.892  12.789  19.859  0.00  0.00    +0.000 A 
ATOM     22  C   UNL     1      -6.206  12.874  19.405  0.00  0.00    +0.000 A 
ATOM     23  C   UNL     1      -6.586  12.167  18.269  0.00  0.00    +0.000 A 
ATOM     24  C   UNL     1      -5.659  11.356  17.608  0.00  0.00    +0.000 A 
ATOM     25  C   UNL     1      -4.339  11.269  18.026  0.00  0.00    +0.000 A 
ATOM     26  N   UNL     1      -3.469  10.519  17.329  0.00  0.00    +0.000 NA
ATOM     27  C   UNL     1      -2.174  10.621  17.671  0.00  0.00    +0.000 A 
BRANCH  27  28
ATOM     28  O   UNL     1      -1.363   9.857  16.896  0.00  0.00    +0.000 OA
ATOM     29  H   UNL     1      -1.633   8.971  17.201  0.00  0.00    +0.000 HD
ENDBRANCH  27  28
ENDBRANCH  17  18
ENDBRANCH   1  17
TORSDOF 5
ENDMDL
