MODEL 1
REMARK VINA RESULT:      -7.8      0.000      0.000
REMARK  Name = 
REMARK  6 active torsions:
REMARK  status: ('A' for Active; 'I' for Inactive)
REMARK    1  A    between atoms: C_1  and  C_2
REMARK    2  A    between atoms: C_7  and  C_8
REMARK    3  A    between atoms: N_10  and  C_11
REMARK    4  A    between atoms: C_11  and  C_12
REMARK    5  A    between atoms: C_12  and  C_13
REMARK    6  A    between atoms: N_15  and  C_16
REMARK                            x       y       z     vdW  Elec       q    Type
REMARK                         _______ _______ _______ _____ _____    ______ ____
ROOT
ATOM      1  C   UNL     1       4.872   4.432  18.604  0.00  0.00    +0.000 C 
ATOM      2  O   UNL     1       5.863   4.101  19.251  0.00  0.00    +0.000 OA
ATOM      3  N   UNL     1       4.966   5.134  17.427  0.00  0.00    +0.000 N 
ATOM      4  H   UNL     1       4.138   5.391  16.911  0.00  0.00    +0.000 HD
ENDROOT
BRANCH   1  11
ATOM      5  C   UNL     1       3.348   1.716  18.219  0.00  0.00    +0.000 C 
ATOM      6  C   UNL     1       2.812   2.903  18.965  0.00  0.00    +0.000 A 
ATOM      7  C   UNL     1       1.538   2.768  19.563  0.00  0.00    +0.000 A 
ATOM      8  C   UNL     1       0.977   3.793  20.323  0.00  0.00    +0.000 A 
ATOM      9  C   UNL     1       1.669   4.985  20.494  0.00  0.00    +0.000 A 
ATOM     10  C   UNL     1       2.923   5.145  19.902  0.00  0.00    +0.000 A 
ATOM     11  C   UNL     1       3.507   4.121  19.133  0.00  0.00    +0.000 A 
ENDBRANCH   1  11
BRANCH   3  12
ATOM     12  C   UNL     1       6.241   5.480  16.826  0.00  0.00    +0.000 C 
BRANCH  12  13
ATOM     13  C   UNL     1       6.908   4.313  16.106  0.00  0.00    +0.000 C 
BRANCH  13  14
ATOM     14  C   UNL     1       6.942   4.511  14.604  0.00  0.00    +0.000 C 
ATOM     15  O   UNL     1       7.541   5.430  14.055  0.00  0.00    +0.000 OA
ATOM     16  N   UNL     1       6.231   3.544  13.915  0.00  0.00    +0.000 N 
ATOM     17  H   UNL     1       5.737   2.827  14.434  0.00  0.00    +0.000 HD
BRANCH  16  18
ATOM     18  C   UNL     1       6.113   3.572  12.493  0.00  0.00    +0.000 C 
ATOM     19  C   UNL     1       5.879   2.299  11.728  0.00  0.00    +0.000 C 
ATOM     20  C   UNL     1       4.794   3.333  11.809  0.00  0.00    +0.000 C 
ENDBRANCH  16  18
ENDBRANCH  13  14
ENDBRANCH  12  13
ENDBRANCH   3  12
TORSDOF 5
ENDMDL
MODEL 2
REMARK VINA RESULT:      -7.3      1.534      2.469
REMARK  Name = 
REMARK  6 active torsions:
REMARK  status: ('A' for Active; 'I' for Inactive)
REMARK    1  A    between atoms: C_1  and  C_2
REMARK    2  A    between atoms: C_7  and  C_8
REMARK    3  A    between atoms: N_10  and  C_11
REMARK    4  A    between atoms: C_11  and  C_12
REMARK    5  A    between atoms: C_12  and  C_13
REMARK    6  A    between atoms: N_15  and  C_16
REMARK                            x       y       z     vdW  Elec       q    Type
REMARK                         _______ _______ _______ _____ _____    ______ ____
ROOT
ATOM      1  C   UNL     1       4.152   5.020  18.510  0.00  0.00    +0.000 C 
ATOM      2  O   UNL     1       4.119   5.793  17.556  0.00  0.00    +0.000 OA
ATOM      3  N   UNL     1       5.291   4.818  19.250  0.00  0.00    +0.000 N 
ATOM      4  H   UNL     1       5.294   4.181  20.033  0.00  0.00    +0.000 HD
ENDROOT
BRANCH   1  11
ATOM      5  C   UNL     1       1.939   5.870  20.567  0.00  0.00    +0.000 C 
ATOM      6  C   UNL     1       1.934   4.592  19.779  0.00  0.00    +0.000 A 
ATOM      7  C   UNL     1       0.830   3.727  19.959  0.00  0.00    +0.000 A 
ATOM      8  C   UNL     1       0.706   2.543  19.233  0.00  0.00    +0.000 A 
ATOM      9  C   UNL     1       1.688   2.187  18.318  0.00  0.00    +0.000 A 
ATOM     10  C   UNL     1       2.793   3.020  18.133  0.00  0.00    +0.000 A 
ATOM     11  C   UNL     1       2.935   4.220  18.855  0.00  0.00    +0.000 A 
ENDBRANCH   1  11
BRANCH   3  12
ATOM     12  C   UNL     1       6.521   5.547  19.002  0.00  0.00    +0.000 C 
BRANCH  12  13
ATOM     13  C   UNL     1       7.434   4.869  17.986  0.00  0.00    +0.000 C 
BRANCH  13  14
ATOM     14  C   UNL     1       7.208   5.384  16.579  0.00  0.00    +0.000 C 
ATOM     15  O   UNL     1       7.593   6.482  16.190  0.00  0.00    +0.000 OA
ATOM     16  N   UNL     1       6.526   4.486  15.778  0.00  0.00    +0.000 N 
ATOM     17  H   UNL     1       6.213   3.607  16.172  0.00  0.00    +0.000 HD
BRANCH  16  18
ATOM     18  C   UNL     1       6.185   4.797  14.427  0.00  0.00    +0.000 C 
ATOM     19  C   UNL     1       7.181   4.575  13.324  0.00  0.00    +0.000 C 
ATOM     20  C   UNL     1       5.953   3.716  13.406  0.00  0.00    +0.000 C 
ENDBRANCH  16  18
ENDBRANCH  13  14
ENDBRANCH  12  13
ENDBRANCH   3  12
TORSDOF 5
ENDMDL
MODEL 3
REMARK VINA RESULT:      -7.2      1.335      2.090
REMARK  Name = 
REMARK  6 active torsions:
REMARK  status: ('A' for Active; 'I' for Inactive)
REMARK    1  A    between atoms: C_1  and  C_2
REMARK    2  A    between atoms: C_7  and  C_8
REMARK    3  A    between atoms: N_10  and  C_11
REMARK    4  A    between atoms: C_11  and  C_12
REMARK    5  A    between atoms: C_12  and  C_13
REMARK    6  A    between atoms: N_15  and  C_16
REMARK                            x       y       z     vdW  Elec       q    Type
REMARK                         _______ _______ _______ _____ _____    ______ ____
ROOT
ATOM      1  C   UNL     1       3.371   5.338  17.737  0.00  0.00    +0.000 C 
ATOM      2  O   UNL     1       3.221   6.557  17.734  0.00  0.00    +0.000 OA
ATOM      3  N   UNL     1       4.341   4.717  16.987  0.00  0.00    +0.000 N 
ATOM      4  H   UNL     1       4.449   3.714  17.009  0.00  0.00    +0.000 HD
ENDROOT
BRANCH   1  11
ATOM      5  C   UNL     1       2.012   6.156  20.444  0.00  0.00    +0.000 C 
ATOM      6  C   UNL     1       1.821   4.838  19.751  0.00  0.00    +0.000 A 
ATOM      7  C   UNL     1       0.936   3.914  20.353  0.00  0.00    +0.000 A 
ATOM      8  C   UNL     1       0.650   2.685  19.760  0.00  0.00    +0.000 A 
ATOM      9  C   UNL     1       1.250   2.343  18.555  0.00  0.00    +0.000 A 
ATOM     10  C   UNL     1       2.138   3.235  17.949  0.00  0.00    +0.000 A 
ATOM     11  C   UNL     1       2.437   4.480  18.532  0.00  0.00    +0.000 A 
ENDBRANCH   1  11
BRANCH   3  12
ATOM     12  C   UNL     1       5.300   5.457  16.187  0.00  0.00    +0.000 C 
BRANCH  12  13
ATOM     13  C   UNL     1       6.527   4.638  15.802  0.00  0.00    +0.000 C 
BRANCH  13  14
ATOM     14  C   UNL     1       6.733   4.586  14.301  0.00  0.00    +0.000 C 
ATOM     15  O   UNL     1       7.493   5.335  13.696  0.00  0.00    +0.000 OA
ATOM     16  N   UNL     1       5.979   3.604  13.686  0.00  0.00    +0.000 N 
ATOM     17  H   UNL     1       5.351   3.037  14.244  0.00  0.00    +0.000 HD
BRANCH  16  18
ATOM     18  C   UNL     1       6.006   3.414  12.271  0.00  0.00    +0.000 C 
ATOM     19  C   UNL     1       5.741   2.056  11.684  0.00  0.00    +0.000 C 
ATOM     20  C   UNL     1       4.746   3.163  11.488  0.00  0.00    +0.000 C 
ENDBRANCH  16  18
ENDBRANCH  13  14
ENDBRANCH  12  13
ENDBRANCH   3  12
TORSDOF 5
ENDMDL
MODEL 4
REMARK VINA RESULT:      -7.2      0.745      1.786
REMARK  Name = 
REMARK  6 active torsions:
REMARK  status: ('A' for Active; 'I' for Inactive)
REMARK    1  A    between atoms: C_1  and  C_2
REMARK    2  A    between atoms: C_7  and  C_8
REMARK    3  A    between atoms: N_10  and  C_11
REMARK    4  A    between atoms: C_11  and  C_12
REMARK    5  A    between atoms: C_12  and  C_13
REMARK    6  A    between atoms: N_15  and  C_16
REMARK                            x       y       z     vdW  Elec       q    Type
REMARK                         _______ _______ _______ _____ _____    ______ ____
ROOT
ATOM      1  C   UNL     1       4.584   5.113  18.652  0.00  0.00    +0.000 C 
ATOM      2  O   UNL     1       5.604   5.365  19.286  0.00  0.00    +0.000 OA
ATOM      3  N   UNL     1       4.486   5.339  17.300  0.00  0.00    +0.000 N 
ATOM      4  H   UNL     1       3.639   5.120  16.798  0.00  0.00    +0.000 HD
ENDROOT
BRANCH   1  11
ATOM      5  C   UNL     1       2.278   6.883  19.835  0.00  0.00    +0.000 C 
ATOM      6  C   UNL     1       2.334   5.385  19.906  0.00  0.00    +0.000 A 
ATOM      7  C   UNL     1       1.247   4.728  20.527  0.00  0.00    +0.000 A 
ATOM      8  C   UNL     1       1.177   3.337  20.595  0.00  0.00    +0.000 A 
ATOM      9  C   UNL     1       2.200   2.567  20.056  0.00  0.00    +0.000 A 
ATOM     10  C   UNL     1       3.290   3.195  19.450  0.00  0.00    +0.000 A 
ATOM     11  C   UNL     1       3.376   4.597  19.369  0.00  0.00    +0.000 A 
ENDBRANCH   1  11
BRANCH   3  12
ATOM     12  C   UNL     1       5.600   5.832  16.510  0.00  0.00    +0.000 C 
BRANCH  12  13
ATOM     13  C   UNL     1       6.583   4.740  16.103  0.00  0.00    +0.000 C 
BRANCH  13  14
ATOM     14  C   UNL     1       6.828   4.718  14.607  0.00  0.00    +0.000 C 
ATOM     15  O   UNL     1       7.687   5.395  14.051  0.00  0.00    +0.000 OA
ATOM     16  N   UNL     1       5.984   3.854  13.934  0.00  0.00    +0.000 N 
ATOM     17  H   UNL     1       5.278   3.344  14.453  0.00  0.00    +0.000 HD
BRANCH  16  18
ATOM     18  C   UNL     1       6.032   3.713  12.514  0.00  0.00    +0.000 C 
ATOM     19  C   UNL     1       5.986   2.348  11.886  0.00  0.00    +0.000 C 
ATOM     20  C   UNL     1       4.824   3.285  11.726  0.00  0.00    +0.000 C 
ENDBRANCH  16  18
ENDBRANCH  13  14
ENDBRANCH  12  13
ENDBRANCH   3  12
TORSDOF 5
ENDMDL
MODEL 5
REMARK VINA RESULT:      -7.2      1.018      1.047
REMARK  Name = 
REMARK  6 active torsions:
REMARK  status: ('A' for Active; 'I' for Inactive)
REMARK    1  A    between atoms: C_1  and  C_2
REMARK    2  A    between atoms: C_7  and  C_8
REMARK    3  A    between atoms: N_10  and  C_11
REMARK    4  A    between atoms: C_11  and  C_12
REMARK    5  A    between atoms: C_12  and  C_13
REMARK    6  A    between atoms: N_15  and  C_16
REMARK                            x       y       z     vdW  Elec       q    Type
REMARK                         _______ _______ _______ _____ _____    ______ ____
ROOT
ATOM      1  C   UNL     1       4.154   4.540  17.881  0.00  0.00    +0.000 C 
ATOM      2  O   UNL     1       3.898   4.604  16.681  0.00  0.00    +0.000 OA
ATOM      3  N   UNL     1       5.392   4.860  18.383  0.00  0.00    +0.000 N 
ATOM      4  H   UNL     1       5.579   4.805  19.373  0.00  0.00    +0.000 HD
ENDROOT
BRANCH   1  11
ATOM      5  C   UNL     1       3.429   1.527  18.370  0.00  0.00    +0.000 C 
ATOM      6  C   UNL     1       2.778   2.690  19.061  0.00  0.00    +0.000 A 
ATOM      7  C   UNL     1       1.787   2.396  20.026  0.00  0.00    +0.000 A 
ATOM      8  C   UNL     1       1.163   3.403  20.761  0.00  0.00    +0.000 A 
ATOM      9  C   UNL     1       1.504   4.732  20.541  0.00  0.00    +0.000 A 
ATOM     10  C   UNL     1       2.471   5.046  19.583  0.00  0.00    +0.000 A 
ATOM     11  C   UNL     1       3.113   4.043  18.834  0.00  0.00    +0.000 A 
ENDBRANCH   1  11
BRANCH   3  12
ATOM     12  C   UNL     1       6.468   5.357  17.545  0.00  0.00    +0.000 C 
BRANCH  12  13
ATOM     13  C   UNL     1       7.087   4.286  16.654  0.00  0.00    +0.000 C 
BRANCH  13  14
ATOM     14  C   UNL     1       7.036   4.662  15.186  0.00  0.00    +0.000 C 
ATOM     15  O   UNL     1       7.649   5.612  14.709  0.00  0.00    +0.000 OA
ATOM     16  N   UNL     1       6.231   3.821  14.440  0.00  0.00    +0.000 N 
ATOM     17  H   UNL     1       5.733   3.070  14.904  0.00  0.00    +0.000 HD
BRANCH  16  18
ATOM     18  C   UNL     1       6.025   4.025  13.043  0.00  0.00    +0.000 C 
ATOM     19  C   UNL     1       6.851   3.274  12.037  0.00  0.00    +0.000 C 
ATOM     20  C   UNL     1       5.388   2.971  12.179  0.00  0.00    +0.000 C 
ENDBRANCH  16  18
ENDBRANCH  13  14
ENDBRANCH  12  13
ENDBRANCH   3  12
TORSDOF 5
ENDMDL
MODEL 6
REMARK VINA RESULT:      -7.1      1.727      2.064
REMARK  Name = 
REMARK  6 active torsions:
REMARK  status: ('A' for Active; 'I' for Inactive)
REMARK    1  A    between atoms: C_1  and  C_2
REMARK    2  A    between atoms: C_7  and  C_8
REMARK    3  A    between atoms: N_10  and  C_11
REMARK    4  A    between atoms: C_11  and  C_12
REMARK    5  A    between atoms: C_12  and  C_13
REMARK    6  A    between atoms: N_15  and  C_16
REMARK                            x       y       z     vdW  Elec       q    Type
REMARK                         _______ _______ _______ _____ _____    ______ ____
ROOT
ATOM      1  C   UNL     1       4.310   5.367  19.110  0.00  0.00    +0.000 C 
ATOM      2  O   UNL     1       4.202   6.507  18.667  0.00  0.00    +0.000 OA
ATOM      3  N   UNL     1       5.529   4.815  19.423  0.00  0.00    +0.000 N 
ATOM      4  H   UNL     1       5.593   3.877  19.790  0.00  0.00    +0.000 HD
ENDROOT
BRANCH   1  11
ATOM      5  C   UNL     1       3.213   3.354  16.967  0.00  0.00    +0.000 C 
ATOM      6  C   UNL     1       2.586   3.608  18.308  0.00  0.00    +0.000 A 
ATOM      7  C   UNL     1       1.434   2.856  18.634  0.00  0.00    +0.000 A 
ATOM      8  C   UNL     1       0.811   2.978  19.875  0.00  0.00    +0.000 A 
ATOM      9  C   UNL     1       1.316   3.865  20.818  0.00  0.00    +0.000 A 
ATOM     10  C   UNL     1       2.445   4.627  20.512  0.00  0.00    +0.000 A 
ATOM     11  C   UNL     1       3.089   4.515  19.266  0.00  0.00    +0.000 A 
ENDBRANCH   1  11
BRANCH   3  12
ATOM     12  C   UNL     1       6.771   5.557  19.314  0.00  0.00    +0.000 C 
BRANCH  12  13
ATOM     13  C   UNL     1       7.674   5.067  18.187  0.00  0.00    +0.000 C 
BRANCH  13  14
ATOM     14  C   UNL     1       7.213   5.559  16.829  0.00  0.00    +0.000 C 
ATOM     15  O   UNL     1       6.865   6.715  16.610  0.00  0.00    +0.000 OA
ATOM     16  N   UNL     1       7.230   4.571  15.862  0.00  0.00    +0.000 N 
ATOM     17  H   UNL     1       7.504   3.629  16.118  0.00  0.00    +0.000 HD
BRANCH  16  18
ATOM     18  C   UNL     1       6.801   4.824  14.524  0.00  0.00    +0.000 C 
ATOM     19  C   UNL     1       6.323   3.694  13.656  0.00  0.00    +0.000 C 
ATOM     20  C   UNL     1       5.351   4.733  14.133  0.00  0.00    +0.000 C 
ENDBRANCH  16  18
ENDBRANCH  13  14
ENDBRANCH  12  13
ENDBRANCH   3  12
TORSDOF 5
ENDMDL
MODEL 7
REMARK VINA RESULT:      -7.1      0.997      1.784
REMARK  Name = 
REMARK  6 active torsions:
REMARK  status: ('A' for Active; 'I' for Inactive)
REMARK    1  A    between atoms: C_1  and  C_2
REMARK    2  A    between atoms: C_7  and  C_8
REMARK    3  A    between atoms: N_10  and  C_11
REMARK    4  A    between atoms: C_11  and  C_12
REMARK    5  A    between atoms: C_12  and  C_13
REMARK    6  A    between atoms: N_15  and  C_16
REMARK                            x       y       z     vdW  Elec       q    Type
REMARK                         _______ _______ _______ _____ _____    ______ ____
ROOT
ATOM      1  C   UNL     1       4.945   3.777  18.132  0.00  0.00    +0.000 C 
ATOM      2  O   UNL     1       5.778   4.035  18.998  0.00  0.00    +0.000 OA
ATOM      3  N   UNL     1       5.264   3.745  16.797  0.00  0.00    +0.000 N 
ATOM      4  H   UNL     1       4.564   3.527  16.103  0.00  0.00    +0.000 HD
ENDROOT
BRANCH   1  11
ATOM      5  C   UNL     1       2.701   5.969  18.201  0.00  0.00    +0.000 C 
ATOM      6  C   UNL     1       2.502   4.525  18.559  0.00  0.00    +0.000 A 
ATOM      7  C   UNL     1       1.196   4.124  18.923  0.00  0.00    +0.000 A 
ATOM      8  C   UNL     1       0.897   2.795  19.219  0.00  0.00    +0.000 A 
ATOM      9  C   UNL     1       1.899   1.834  19.172  0.00  0.00    +0.000 A 
ATOM     10  C   UNL     1       3.199   2.210  18.828  0.00  0.00    +0.000 A 
ATOM     11  C   UNL     1       3.520   3.546  18.524  0.00  0.00    +0.000 A 
ENDBRANCH   1  11
BRANCH   3  12
ATOM     12  C   UNL     1       6.617   3.950  16.313  0.00  0.00    +0.000 C 
BRANCH  12  13
ATOM     13  C   UNL     1       6.777   5.214  15.476  0.00  0.00    +0.000 C 
BRANCH  13  14
ATOM     14  C   UNL     1       6.924   4.908  13.999  0.00  0.00    +0.000 C 
ATOM     15  O   UNL     1       7.775   5.424  13.282  0.00  0.00    +0.000 OA
ATOM     16  N   UNL     1       6.002   3.984  13.544  0.00  0.00    +0.000 N 
ATOM     17  H   UNL     1       5.308   3.617  14.186  0.00  0.00    +0.000 HD
BRANCH  16  18
ATOM     18  C   UNL     1       5.952   3.586  12.174  0.00  0.00    +0.000 C 
ATOM     19  C   UNL     1       5.692   2.151  11.811  0.00  0.00    +0.000 C 
ATOM     20  C   UNL     1       4.657   3.196  11.515  0.00  0.00    +0.000 C 
ENDBRANCH  16  18
ENDBRANCH  13  14
ENDBRANCH  12  13
ENDBRANCH   3  12
TORSDOF 5
ENDMDL
MODEL 8
REMARK VINA RESULT:      -7.1      1.055      1.315
REMARK  Name = 
REMARK  6 active torsions:
REMARK  status: ('A' for Active; 'I' for Inactive)
REMARK    1  A    between atoms: C_1  and  C_2
REMARK    2  A    between atoms: C_7  and  C_8
REMARK    3  A    between atoms: N_10  and  C_11
REMARK    4  A    between atoms: C_11  and  C_12
REMARK    5  A    between atoms: C_12  and  C_13
REMARK    6  A    between atoms: N_15  and  C_16
REMARK                            x       y       z     vdW  Elec       q    Type
REMARK                         _______ _______ _______ _____ _____    ______ ____
ROOT
ATOM      1  C   UNL     1       4.719   4.484  19.012  0.00  0.00    +0.000 C 
ATOM      2  O   UNL     1       5.707   3.864  19.398  0.00  0.00    +0.000 OA
ATOM      3  N   UNL     1       4.819   5.676  18.338  0.00  0.00    +0.000 N 
ATOM      4  H   UNL     1       3.993   6.165  18.027  0.00  0.00    +0.000 HD
ENDROOT
BRANCH   1  11
ATOM      5  C   UNL     1       3.554   1.726  18.070  0.00  0.00    +0.000 C 
ATOM      6  C   UNL     1       2.818   2.728  18.912  0.00  0.00    +0.000 A 
ATOM      7  C   UNL     1       1.513   2.381  19.333  0.00  0.00    +0.000 A 
ATOM      8  C   UNL     1       0.768   3.218  20.163  0.00  0.00    +0.000 A 
ATOM      9  C   UNL     1       1.303   4.430  20.581  0.00  0.00    +0.000 A 
ATOM     10  C   UNL     1       2.584   4.799  20.166  0.00  0.00    +0.000 A 
ATOM     11  C   UNL     1       3.352   3.966  19.331  0.00  0.00    +0.000 A 
ENDBRANCH   1  11
BRANCH   3  12
ATOM     12  C   UNL     1       6.097   6.261  17.975  0.00  0.00    +0.000 C 
BRANCH  12  13
ATOM     13  C   UNL     1       6.284   6.421  16.470  0.00  0.00    +0.000 C 
BRANCH  13  14
ATOM     14  C   UNL     1       6.637   5.111  15.795  0.00  0.00    +0.000 C 
ATOM     15  O   UNL     1       7.118   4.151  16.388  0.00  0.00    +0.000 OA
ATOM     16  N   UNL     1       6.356   5.109  14.441  0.00  0.00    +0.000 N 
ATOM     17  H   UNL     1       5.983   5.946  14.009  0.00  0.00    +0.000 HD
BRANCH  16  18
ATOM     18  C   UNL     1       6.646   3.979  13.617  0.00  0.00    +0.000 C 
ATOM     19  C   UNL     1       5.651   3.515  12.591  0.00  0.00    +0.000 C 
ATOM     20  C   UNL     1       6.946   4.132  12.151  0.00  0.00    +0.000 C 
ENDBRANCH  16  18
ENDBRANCH  13  14
ENDBRANCH  12  13
ENDBRANCH   3  12
TORSDOF 5
ENDMDL
MODEL 9
REMARK VINA RESULT:      -7.1      1.257      1.374
REMARK  Name = 
REMARK  6 active torsions:
REMARK  status: ('A' for Active; 'I' for Inactive)
REMARK    1  A    between atoms: C_1  and  C_2
REMARK    2  A    between atoms: C_7  and  C_8
REMARK    3  A    between atoms: N_10  and  C_11
REMARK    4  A    between atoms: C_11  and  C_12
REMARK    5  A    between atoms: C_12  and  C_13
REMARK    6  A    between atoms: N_15  and  C_16
REMARK                            x       y       z     vdW  Elec       q    Type
REMARK                         _______ _______ _______ _____ _____    ______ ____
ROOT
ATOM      1  C   UNL     1       3.892   5.203  18.683  0.00  0.00    +0.000 C 
ATOM      2  O   UNL     1       3.947   6.418  18.858  0.00  0.00    +0.000 OA
ATOM      3  N   UNL     1       4.712   4.554  17.794  0.00  0.00    +0.000 N 
ATOM      4  H   UNL     1       4.652   3.554  17.669  0.00  0.00    +0.000 HD
ENDROOT
BRANCH   1  11
ATOM      5  C   UNL     1       1.247   4.074  17.428  0.00  0.00    +0.000 C 
ATOM      6  C   UNL     1       1.668   3.886  18.857  0.00  0.00    +0.000 A 
ATOM      7  C   UNL     1       0.820   3.114  19.683  0.00  0.00    +0.000 A 
ATOM      8  C   UNL     1       1.149   2.836  21.010  0.00  0.00    +0.000 A 
ATOM      9  C   UNL     1       2.330   3.333  21.547  0.00  0.00    +0.000 A 
ATOM     10  C   UNL     1       3.176   4.109  20.752  0.00  0.00    +0.000 A 
ATOM     11  C   UNL     1       2.862   4.398  19.411  0.00  0.00    +0.000 A 
ENDBRANCH   1  11
BRANCH   3  12
ATOM     12  C   UNL     1       5.747   5.241  17.043  0.00  0.00    +0.000 C 
BRANCH  12  13
ATOM     13  C   UNL     1       6.762   4.297  16.407  0.00  0.00    +0.000 C 
BRANCH  13  14
ATOM     14  C   UNL     1       6.913   4.537  14.918  0.00  0.00    +0.000 C 
ATOM     15  O   UNL     1       7.619   5.421  14.443  0.00  0.00    +0.000 OA
ATOM     16  N   UNL     1       6.177   3.653  14.151  0.00  0.00    +0.000 N 
ATOM     17  H   UNL     1       5.594   2.963  14.610  0.00  0.00    +0.000 HD
BRANCH  16  18
ATOM     18  C   UNL     1       6.158   3.733  12.726  0.00  0.00    +0.000 C 
ATOM     19  C   UNL     1       6.167   2.480  11.897  0.00  0.00    +0.000 C 
ATOM     20  C   UNL     1       4.941   3.345  11.933  0.00  0.00    +0.000 C 
ENDBRANCH  16  18
ENDBRANCH  13  14
ENDBRANCH  12  13
ENDBRANCH   3  12
TORSDOF 5
ENDMDL
