MODEL 1
REMARK VINA RESULT:      -7.7      0.000      0.000
REMARK  Name = 
REMARK  7 active torsions:
REMARK  status: ('A' for Active; 'I' for Inactive)
REMARK    1  A    between atoms: C_1  and  C_2
REMARK    2  A    between atoms: C_2  and  N_3
REMARK    3  A    between atoms: C_4  and  S_5
REMARK    4  A    between atoms: S_5  and  C_6
REMARK    5  A    between atoms: C_6  and  C_7
REMARK    6  A    between atoms: C_8  and  C_9
REMARK    7  A    between atoms: C_17  and  C_18
REMARK                            x       y       z     vdW  Elec       q    Type
REMARK                         _______ _______ _______ _____ _____    ______ ____
ROOT
ATOM      1  N   UNL     1       4.666   5.326  17.976  0.00  0.00    +0.000 N 
ATOM      2  C   UNL     1       6.039   5.404  18.000  0.00  0.00    +0.000 A 
ATOM      3  N   UNL     1       6.521   4.479  18.793  0.00  0.00    +0.000 NA
ATOM      4  N   UNL     1       5.460   3.789  19.320  0.00  0.00    +0.000 NA
ATOM      5  C   UNL     1       4.339   4.291  18.833  0.00  0.00    +0.000 A 
ENDROOT
BRANCH   5   6
ATOM      6  C   UNL     1       3.032   3.798  19.198  0.00  0.00    +0.000 A 
ATOM      7  C   UNL     1       2.238   4.091  20.295  0.00  0.00    +0.000 A 
ATOM      8  C   UNL     1       0.980   3.416  20.279  0.00  0.00    +0.000 A 
ATOM      9  C   UNL     1       0.842   2.618  19.167  0.00  0.00    +0.000 A 
ATOM     10  S   UNL     1       2.216   2.687  18.159  0.00  0.00    +0.000 S 
ENDBRANCH   5   6
BRANCH   1  12
ATOM     11  C   UNL     1       3.075   7.208  18.192  0.00  0.00    +0.000 C 
ATOM     12  C   UNL     1       3.750   6.199  17.274  0.00  0.00    +0.000 C 
ENDBRANCH   1  12
BRANCH   2  13
ATOM     13  S   UNL     1       6.978   6.567  17.122  0.00  0.00    +0.000 S 
BRANCH  13  14
ATOM     14  C   UNL     1       7.988   7.285  18.462  0.00  0.00    +0.000 C 
BRANCH  14  15
ATOM     15  C   UNL     1       8.339   8.711  18.123  0.00  0.00    +0.000 C 
ATOM     16  C   UNL     1       9.125   9.498  18.882  0.00  0.00    +0.000 C 
BRANCH  16  17
ATOM     17  C   UNL     1       9.480  10.897  18.577  0.00  0.00    +0.000 A 
ATOM     18  C   UNL     1       8.565  11.684  17.861  0.00  0.00    +0.000 A 
ATOM     19  C   UNL     1       8.849  13.017  17.553  0.00  0.00    +0.000 A 
ATOM     20  C   UNL     1      10.047  13.591  17.972  0.00  0.00    +0.000 A 
ATOM     21  C   UNL     1      10.954  12.833  18.707  0.00  0.00    +0.000 A 
ATOM     22  C   UNL     1      10.669  11.496  19.015  0.00  0.00    +0.000 A 
ENDBRANCH  16  17
ENDBRANCH  14  15
ENDBRANCH  13  14
ENDBRANCH   2  13
TORSDOF 6
ENDMDL
MODEL 2
REMARK VINA RESULT:      -7.7      0.415      1.043
REMARK  Name = 
REMARK  7 active torsions:
REMARK  status: ('A' for Active; 'I' for Inactive)
REMARK    1  A    between atoms: C_1  and  C_2
REMARK    2  A    between atoms: C_2  and  N_3
REMARK    3  A    between atoms: C_4  and  S_5
REMARK    4  A    between atoms: S_5  and  C_6
REMARK    5  A    between atoms: C_6  and  C_7
REMARK    6  A    between atoms: C_8  and  C_9
REMARK    7  A    between atoms: C_17  and  C_18
REMARK                            x       y       z     vdW  Elec       q    Type
REMARK                         _______ _______ _______ _____ _____    ______ ____
ROOT
ATOM      1  N   UNL     1       4.534   5.370  18.092  0.00  0.00    +0.000 N 
ATOM      2  C   UNL     1       5.903   5.491  18.049  0.00  0.00    +0.000 A 
ATOM      3  N   UNL     1       6.451   4.610  18.849  0.00  0.00    +0.000 NA
ATOM      4  N   UNL     1       5.438   3.907  19.449  0.00  0.00    +0.000 NA
ATOM      5  C   UNL     1       4.279   4.357  18.998  0.00  0.00    +0.000 A 
ENDROOT
BRANCH   5   6
ATOM      6  C   UNL     1       3.007   3.837  19.440  0.00  0.00    +0.000 A 
ATOM      7  C   UNL     1       2.268   4.125  20.576  0.00  0.00    +0.000 A 
ATOM      8  C   UNL     1       1.028   3.420  20.637  0.00  0.00    +0.000 A 
ATOM      9  C   UNL     1       0.849   2.605  19.544  0.00  0.00    +0.000 A 
ATOM     10  S   UNL     1       2.163   2.694  18.460  0.00  0.00    +0.000 S 
ENDBRANCH   5   6
BRANCH   1  12
ATOM     11  C   UNL     1       2.948   7.257  18.301  0.00  0.00    +0.000 C 
ATOM     12  C   UNL     1       3.559   6.190  17.405  0.00  0.00    +0.000 C 
ENDBRANCH   1  12
BRANCH   2  13
ATOM     13  S   UNL     1       6.764   6.650  17.089  0.00  0.00    +0.000 S 
BRANCH  13  14
ATOM     14  C   UNL     1       7.905   7.353  18.329  0.00  0.00    +0.000 C 
BRANCH  14  15
ATOM     15  C   UNL     1       8.366   8.716  17.878  0.00  0.00    +0.000 C 
ATOM     16  C   UNL     1       8.913   9.637  18.693  0.00  0.00    +0.000 C 
BRANCH  16  17
ATOM     17  C   UNL     1       9.366  10.979  18.280  0.00  0.00    +0.000 A 
ATOM     18  C   UNL     1      10.740  11.205  18.111  0.00  0.00    +0.000 A 
ATOM     19  C   UNL     1      11.221  12.455  17.714  0.00  0.00    +0.000 A 
ATOM     20  C   UNL     1      10.332  13.498  17.463  0.00  0.00    +0.000 A 
ATOM     21  C   UNL     1       8.963  13.284  17.600  0.00  0.00    +0.000 A 
ATOM     22  C   UNL     1       8.482  12.029  17.998  0.00  0.00    +0.000 A 
ENDBRANCH  16  17
ENDBRANCH  14  15
ENDBRANCH  13  14
ENDBRANCH   2  13
TORSDOF 6
ENDMDL
MODEL 3
REMARK VINA RESULT:      -7.7      1.114      1.458
REMARK  Name = 
REMARK  7 active torsions:
REMARK  status: ('A' for Active; 'I' for Inactive)
REMARK    1  A    between atoms: C_1  and  C_2
REMARK    2  A    between atoms: C_2  and  N_3
REMARK    3  A    between atoms: C_4  and  S_5
REMARK    4  A    between atoms: S_5  and  C_6
REMARK    5  A    between atoms: C_6  and  C_7
REMARK    6  A    between atoms: C_8  and  C_9
REMARK    7  A    between atoms: C_17  and  C_18
REMARK                            x       y       z     vdW  Elec       q    Type
REMARK                         _______ _______ _______ _____ _____    ______ ____
ROOT
ATOM      1  N   UNL     1       5.092   5.678  18.089  0.00  0.00    +0.000 N 
ATOM      2  C   UNL     1       6.455   5.802  18.224  0.00  0.00    +0.000 A 
ATOM      3  N   UNL     1       6.854   5.161  19.294  0.00  0.00    +0.000 NA
ATOM      4  N   UNL     1       5.745   4.619  19.892  0.00  0.00    +0.000 NA
ATOM      5  C   UNL     1       4.679   4.924  19.172  0.00  0.00    +0.000 A 
ENDROOT
BRANCH   5   6
ATOM      6  C   UNL     1       3.342   4.517  19.534  0.00  0.00    +0.000 A 
ATOM      7  C   UNL     1       2.497   4.995  20.522  0.00  0.00    +0.000 A 
ATOM      8  C   UNL     1       1.225   4.346  20.540  0.00  0.00    +0.000 A 
ATOM      9  C   UNL     1       1.129   3.382  19.564  0.00  0.00    +0.000 A 
ATOM     10  S   UNL     1       2.558   3.267  18.639  0.00  0.00    +0.000 S 
ENDBRANCH   5   6
BRANCH   1  12
ATOM     11  C   UNL     1       3.437   7.452  17.608  0.00  0.00    +0.000 C 
ATOM     12  C   UNL     1       4.252   6.283  17.077  0.00  0.00    +0.000 C 
ENDBRANCH   1  12
BRANCH   2  13
ATOM     13  S   UNL     1       7.479   6.691  17.143  0.00  0.00    +0.000 S 
BRANCH  13  14
ATOM     14  C   UNL     1       7.086   8.408  17.622  0.00  0.00    +0.000 C 
BRANCH  14  15
ATOM     15  C   UNL     1       8.322   9.076  18.168  0.00  0.00    +0.000 C 
ATOM     16  C   UNL     1       8.582  10.393  18.059  0.00  0.00    +0.000 C 
BRANCH  16  17
ATOM     17  C   UNL     1       9.785  11.071  18.577  0.00  0.00    +0.000 A 
ATOM     18  C   UNL     1       9.946  11.190  19.966  0.00  0.00    +0.000 A 
ATOM     19  C   UNL     1      11.071  11.817  20.508  0.00  0.00    +0.000 A 
ATOM     20  C   UNL     1      12.062  12.322  19.670  0.00  0.00    +0.000 A 
ATOM     21  C   UNL     1      11.932  12.188  18.290  0.00  0.00    +0.000 A 
ATOM     22  C   UNL     1      10.803  11.559  17.747  0.00  0.00    +0.000 A 
ENDBRANCH  16  17
ENDBRANCH  14  15
ENDBRANCH  13  14
ENDBRANCH   2  13
TORSDOF 6
ENDMDL
MODEL 4
REMARK VINA RESULT:      -7.4      1.405      1.827
REMARK  Name = 
REMARK  7 active torsions:
REMARK  status: ('A' for Active; 'I' for Inactive)
REMARK    1  A    between atoms: C_1  and  C_2
REMARK    2  A    between atoms: C_2  and  N_3
REMARK    3  A    between atoms: C_4  and  S_5
REMARK    4  A    between atoms: S_5  and  C_6
REMARK    5  A    between atoms: C_6  and  C_7
REMARK    6  A    between atoms: C_8  and  C_9
REMARK    7  A    between atoms: C_17  and  C_18
REMARK                            x       y       z     vdW  Elec       q    Type
REMARK                         _______ _______ _______ _____ _____    ______ ____
ROOT
ATOM      1  N   UNL     1       5.383   5.275  17.739  0.00  0.00    +0.000 N 
ATOM      2  C   UNL     1       6.542   5.743  18.310  0.00  0.00    +0.000 A 
ATOM      3  N   UNL     1       6.602   5.366  19.563  0.00  0.00    +0.000 NA
ATOM      4  N   UNL     1       5.462   4.655  19.838  0.00  0.00    +0.000 NA
ATOM      5  C   UNL     1       4.722   4.594  18.745  0.00  0.00    +0.000 A 
ENDROOT
BRANCH   5   6
ATOM      6  C   UNL     1       3.443   3.926  18.696  0.00  0.00    +0.000 A 
ATOM      7  C   UNL     1       2.164   4.446  18.589  0.00  0.00    +0.000 A 
ATOM      8  C   UNL     1       1.148   3.444  18.538  0.00  0.00    +0.000 A 
ATOM      9  C   UNL     1       1.677   2.176  18.610  0.00  0.00    +0.000 A 
ATOM     10  S   UNL     1       3.378   2.201  18.737  0.00  0.00    +0.000 S 
ENDBRANCH   5   6
BRANCH   1  12
ATOM     11  C   UNL     1       5.269   4.399  15.428  0.00  0.00    +0.000 C 
ATOM     12  C   UNL     1       4.907   5.518  16.393  0.00  0.00    +0.000 C 
ENDBRANCH   1  12
BRANCH   2  13
ATOM     13  S   UNL     1       7.730   6.704  17.490  0.00  0.00    +0.000 S 
BRANCH  13  14
ATOM     14  C   UNL     1       7.084   8.385  17.783  0.00  0.00    +0.000 C 
BRANCH  14  15
ATOM     15  C   UNL     1       8.224   9.372  17.785  0.00  0.00    +0.000 C 
ATOM     16  C   UNL     1       8.763   9.904  18.898  0.00  0.00    +0.000 C 
BRANCH  16  17
ATOM     17  C   UNL     1       9.872  10.875  18.929  0.00  0.00    +0.000 A 
ATOM     18  C   UNL     1      10.425  11.230  20.169  0.00  0.00    +0.000 A 
ATOM     19  C   UNL     1      11.481  12.140  20.253  0.00  0.00    +0.000 A 
ATOM     20  C   UNL     1      12.015  12.699  19.093  0.00  0.00    +0.000 A 
ATOM     21  C   UNL     1      11.497  12.338  17.852  0.00  0.00    +0.000 A 
ATOM     22  C   UNL     1      10.436  11.425  17.770  0.00  0.00    +0.000 A 
ENDBRANCH  16  17
ENDBRANCH  14  15
ENDBRANCH  13  14
ENDBRANCH   2  13
TORSDOF 6
ENDMDL
MODEL 5
REMARK VINA RESULT:      -7.3      5.017      6.617
REMARK  Name = 
REMARK  7 active torsions:
REMARK  status: ('A' for Active; 'I' for Inactive)
REMARK    1  A    between atoms: C_1  and  C_2
REMARK    2  A    between atoms: C_2  and  N_3
REMARK    3  A    between atoms: C_4  and  S_5
REMARK    4  A    between atoms: S_5  and  C_6
REMARK    5  A    between atoms: C_6  and  C_7
REMARK    6  A    between atoms: C_8  and  C_9
REMARK    7  A    between atoms: C_17  and  C_18
REMARK                            x       y       z     vdW  Elec       q    Type
REMARK                         _______ _______ _______ _____ _____    ______ ____
ROOT
ATOM      1  N   UNL     1       3.608   3.340  18.237  0.00  0.00    +0.000 N 
ATOM      2  C   UNL     1       3.679   3.037  19.575  0.00  0.00    +0.000 A 
ATOM      3  N   UNL     1       4.871   3.333  20.033  0.00  0.00    +0.000 NA
ATOM      4  N   UNL     1       5.609   3.820  18.985  0.00  0.00    +0.000 NA
ATOM      5  C   UNL     1       4.857   3.829  17.899  0.00  0.00    +0.000 A 
ENDROOT
BRANCH   5   6
ATOM      6  C   UNL     1       5.337   4.272  16.612  0.00  0.00    +0.000 A 
ATOM      7  C   UNL     1       5.925   3.558  15.581  0.00  0.00    +0.000 A 
ATOM      8  C   UNL     1       6.233   4.361  14.441  0.00  0.00    +0.000 A 
ATOM      9  C   UNL     1       5.874   5.675  14.630  0.00  0.00    +0.000 A 
ATOM     10  S   UNL     1       5.175   5.931  16.164  0.00  0.00    +0.000 S 
ENDBRANCH   5   6
BRANCH   1  12
ATOM     11  C   UNL     1       1.434   4.203  17.430  0.00  0.00    +0.000 C 
ATOM     12  C   UNL     1       2.491   3.112  17.344  0.00  0.00    +0.000 C 
ENDBRANCH   1  12
BRANCH   2  13
ATOM     13  S   UNL     1       2.387   2.350  20.505  0.00  0.00    +0.000 S 
BRANCH  13  14
ATOM     14  C   UNL     1       1.914   3.770  21.550  0.00  0.00    +0.000 C 
BRANCH  14  15
ATOM     15  C   UNL     1       1.630   4.968  20.679  0.00  0.00    +0.000 C 
ATOM     16  C   UNL     1       2.288   6.140  20.765  0.00  0.00    +0.000 C 
BRANCH  16  17
ATOM     17  C   UNL     1       2.026   7.328  19.931  0.00  0.00    +0.000 A 
ATOM     18  C   UNL     1       2.510   7.348  18.615  0.00  0.00    +0.000 A 
ATOM     19  C   UNL     1       2.284   8.445  17.781  0.00  0.00    +0.000 A 
ATOM     20  C   UNL     1       1.554   9.537  18.246  0.00  0.00    +0.000 A 
ATOM     21  C   UNL     1       1.042   9.523  19.541  0.00  0.00    +0.000 A 
ATOM     22  C   UNL     1       1.270   8.421  20.376  0.00  0.00    +0.000 A 
ENDBRANCH  16  17
ENDBRANCH  14  15
ENDBRANCH  13  14
ENDBRANCH   2  13
TORSDOF 6
ENDMDL
MODEL 6
REMARK VINA RESULT:      -7.2      1.345      1.911
REMARK  Name = 
REMARK  7 active torsions:
REMARK  status: ('A' for Active; 'I' for Inactive)
REMARK    1  A    between atoms: C_1  and  C_2
REMARK    2  A    between atoms: C_2  and  N_3
REMARK    3  A    between atoms: C_4  and  S_5
REMARK    4  A    between atoms: S_5  and  C_6
REMARK    5  A    between atoms: C_6  and  C_7
REMARK    6  A    between atoms: C_8  and  C_9
REMARK    7  A    between atoms: C_17  and  C_18
REMARK                            x       y       z     vdW  Elec       q    Type
REMARK                         _______ _______ _______ _____ _____    ______ ____
ROOT
ATOM      1  N   UNL     1       5.522   5.291  17.717  0.00  0.00    +0.000 N 
ATOM      2  C   UNL     1       6.650   5.935  18.167  0.00  0.00    +0.000 A 
ATOM      3  N   UNL     1       6.959   5.503  19.364  0.00  0.00    +0.000 NA
ATOM      4  N   UNL     1       6.018   4.575  19.727  0.00  0.00    +0.000 NA
ATOM      5  C   UNL     1       5.148   4.439  18.741  0.00  0.00    +0.000 A 
ENDROOT
BRANCH   5   6
ATOM      6  C   UNL     1       4.016   3.545  18.807  0.00  0.00    +0.000 A 
ATOM      7  C   UNL     1       3.680   2.465  18.008  0.00  0.00    +0.000 A 
ATOM      8  C   UNL     1       2.484   1.805  18.423  0.00  0.00    +0.000 A 
ATOM      9  C   UNL     1       1.931   2.400  19.533  0.00  0.00    +0.000 A 
ATOM     10  S   UNL     1       2.847   3.738  20.063  0.00  0.00    +0.000 S 
ENDBRANCH   5   6
BRANCH   1  12
ATOM     11  C   UNL     1       5.356   4.673  15.328  0.00  0.00    +0.000 C 
ATOM     12  C   UNL     1       4.818   5.518  16.473  0.00  0.00    +0.000 C 
ENDBRANCH   1  12
BRANCH   2  13
ATOM     13  S   UNL     1       7.514   7.149  17.280  0.00  0.00    +0.000 S 
BRANCH  13  14
ATOM     14  C   UNL     1       8.290   8.088  18.639  0.00  0.00    +0.000 C 
BRANCH  14  15
ATOM     15  C   UNL     1       8.602   9.488  18.174  0.00  0.00    +0.000 C 
ATOM     16  C   UNL     1       9.521  10.289  18.745  0.00  0.00    +0.000 C 
BRANCH  16  17
ATOM     17  C   UNL     1       9.841  11.663  18.315  0.00  0.00    +0.000 A 
ATOM     18  C   UNL     1      11.090  11.912  17.728  0.00  0.00    +0.000 A 
ATOM     19  C   UNL     1      11.440  13.195  17.296  0.00  0.00    +0.000 A 
ATOM     20  C   UNL     1      10.537  14.247  17.431  0.00  0.00    +0.000 A 
ATOM     21  C   UNL     1       9.283  14.012  17.987  0.00  0.00    +0.000 A 
ATOM     22  C   UNL     1       8.933  12.725  18.419  0.00  0.00    +0.000 A 
ENDBRANCH  16  17
ENDBRANCH  14  15
ENDBRANCH  13  14
ENDBRANCH   2  13
TORSDOF 6
ENDMDL
MODEL 7
REMARK VINA RESULT:      -7.0      1.472      1.961
REMARK  Name = 
REMARK  7 active torsions:
REMARK  status: ('A' for Active; 'I' for Inactive)
REMARK    1  A    between atoms: C_1  and  C_2
REMARK    2  A    between atoms: C_2  and  N_3
REMARK    3  A    between atoms: C_4  and  S_5
REMARK    4  A    between atoms: S_5  and  C_6
REMARK    5  A    between atoms: C_6  and  C_7
REMARK    6  A    between atoms: C_8  and  C_9
REMARK    7  A    between atoms: C_17  and  C_18
REMARK                            x       y       z     vdW  Elec       q    Type
REMARK                         _______ _______ _______ _____ _____    ______ ____
ROOT
ATOM      1  N   UNL     1       5.472   5.105  17.754  0.00  0.00    +0.000 N 
ATOM      2  C   UNL     1       6.580   5.615  18.389  0.00  0.00    +0.000 A 
ATOM      3  N   UNL     1       6.593   5.224  19.639  0.00  0.00    +0.000 NA
ATOM      4  N   UNL     1       5.472   4.462  19.848  0.00  0.00    +0.000 NA
ATOM      5  C   UNL     1       4.791   4.384  18.718  0.00  0.00    +0.000 A 
ENDROOT
BRANCH   5   6
ATOM      6  C   UNL     1       3.546   3.663  18.597  0.00  0.00    +0.000 A 
ATOM      7  C   UNL     1       3.281   2.419  18.049  0.00  0.00    +0.000 A 
ATOM      8  C   UNL     1       1.910   2.036  18.153  0.00  0.00    +0.000 A 
ATOM      9  C   UNL     1       1.155   3.001  18.778  0.00  0.00    +0.000 A 
ATOM     10  S   UNL     1       2.096   4.350  19.232  0.00  0.00    +0.000 S 
ENDBRANCH   5   6
BRANCH   1  12
ATOM     11  C   UNL     1       5.576   4.296  15.419  0.00  0.00    +0.000 C 
ATOM     12  C   UNL     1       5.055   5.346  16.389  0.00  0.00    +0.000 C 
ENDBRANCH   1  12
BRANCH   2  13
ATOM     13  S   UNL     1       7.766   6.635  17.641  0.00  0.00    +0.000 S 
BRANCH  13  14
ATOM     14  C   UNL     1       6.799   8.159  17.374  0.00  0.00    +0.000 C 
BRANCH  14  15
ATOM     15  C   UNL     1       7.636   9.360  17.733  0.00  0.00    +0.000 C 
ATOM     16  C   UNL     1       8.669   9.331  18.597  0.00  0.00    +0.000 C 
BRANCH  16  17
ATOM     17  C   UNL     1       9.500  10.491  18.971  0.00  0.00    +0.000 A 
ATOM     18  C   UNL     1       9.600  10.839  20.327  0.00  0.00    +0.000 A 
ATOM     19  C   UNL     1      10.380  11.924  20.735  0.00  0.00    +0.000 A 
ATOM     20  C   UNL     1      11.086  12.670  19.795  0.00  0.00    +0.000 A 
ATOM     21  C   UNL     1      11.020  12.322  18.448  0.00  0.00    +0.000 A 
ATOM     22  C   UNL     1      10.238  11.233  18.039  0.00  0.00    +0.000 A 
ENDBRANCH  16  17
ENDBRANCH  14  15
ENDBRANCH  13  14
ENDBRANCH   2  13
TORSDOF 6
ENDMDL
MODEL 8
REMARK VINA RESULT:      -7.0      1.368      1.701
REMARK  Name = 
REMARK  7 active torsions:
REMARK  status: ('A' for Active; 'I' for Inactive)
REMARK    1  A    between atoms: C_1  and  C_2
REMARK    2  A    between atoms: C_2  and  N_3
REMARK    3  A    between atoms: C_4  and  S_5
REMARK    4  A    between atoms: S_5  and  C_6
REMARK    5  A    between atoms: C_6  and  C_7
REMARK    6  A    between atoms: C_8  and  C_9
REMARK    7  A    between atoms: C_17  and  C_18
REMARK                            x       y       z     vdW  Elec       q    Type
REMARK                         _______ _______ _______ _____ _____    ______ ____
ROOT
ATOM      1  N   UNL     1       5.416   5.199  17.484  0.00  0.00    +0.000 N 
ATOM      2  C   UNL     1       6.525   5.792  18.039  0.00  0.00    +0.000 A 
ATOM      3  N   UNL     1       6.688   5.365  19.267  0.00  0.00    +0.000 NA
ATOM      4  N   UNL     1       5.667   4.494  19.543  0.00  0.00    +0.000 NA
ATOM      5  C   UNL     1       4.895   4.386  18.475  0.00  0.00    +0.000 A 
ENDROOT
BRANCH   5   6
ATOM      6  C   UNL     1       3.717   3.553  18.436  0.00  0.00    +0.000 A 
ATOM      7  C   UNL     1       3.593   2.183  18.279  0.00  0.00    +0.000 A 
ATOM      8  C   UNL     1       2.241   1.727  18.329  0.00  0.00    +0.000 A 
ATOM      9  C   UNL     1       1.359   2.765  18.523  0.00  0.00    +0.000 A 
ATOM     10  S   UNL     1       2.159   4.267  18.642  0.00  0.00    +0.000 S 
ENDBRANCH   5   6
BRANCH   1  12
ATOM     11  C   UNL     1       5.389   4.483  15.117  0.00  0.00    +0.000 C 
ATOM     12  C   UNL     1       4.856   5.440  16.172  0.00  0.00    +0.000 C 
ENDBRANCH   1  12
BRANCH   2  13
ATOM     13  S   UNL     1       7.539   6.944  17.231  0.00  0.00    +0.000 S 
BRANCH  13  14
ATOM     14  C   UNL     1       8.266   7.828  18.652  0.00  0.00    +0.000 C 
BRANCH  14  15
ATOM     15  C   UNL     1       8.624   9.235  18.244  0.00  0.00    +0.000 C 
ATOM     16  C   UNL     1       9.329  10.089  19.009  0.00  0.00    +0.000 C 
BRANCH  16  17
ATOM     17  C   UNL     1       9.687  11.470  18.638  0.00  0.00    +0.000 A 
ATOM     18  C   UNL     1       9.100  12.532  19.342  0.00  0.00    +0.000 A 
ATOM     19  C   UNL     1       9.410  13.859  19.035  0.00  0.00    +0.000 A 
ATOM     20  C   UNL     1      10.328  14.146  18.026  0.00  0.00    +0.000 A 
ATOM     21  C   UNL     1      10.941  13.105  17.335  0.00  0.00    +0.000 A 
ATOM     22  C   UNL     1      10.628  11.774  17.644  0.00  0.00    +0.000 A 
ENDBRANCH  16  17
ENDBRANCH  14  15
ENDBRANCH  13  14
ENDBRANCH   2  13
TORSDOF 6
ENDMDL
MODEL 9
REMARK VINA RESULT:      -7.0      0.970      1.384
REMARK  Name = 
REMARK  7 active torsions:
REMARK  status: ('A' for Active; 'I' for Inactive)
REMARK    1  A    between atoms: C_1  and  C_2
REMARK    2  A    between atoms: C_2  and  N_3
REMARK    3  A    between atoms: C_4  and  S_5
REMARK    4  A    between atoms: S_5  and  C_6
REMARK    5  A    between atoms: C_6  and  C_7
REMARK    6  A    between atoms: C_8  and  C_9
REMARK    7  A    between atoms: C_17  and  C_18
REMARK                            x       y       z     vdW  Elec       q    Type
REMARK                         _______ _______ _______ _____ _____    ______ ____
ROOT
ATOM      1  N   UNL     1       4.084   5.589  18.529  0.00  0.00    +0.000 N 
ATOM      2  C   UNL     1       5.417   5.825  18.291  0.00  0.00    +0.000 A 
ATOM      3  N   UNL     1       6.135   4.847  18.789  0.00  0.00    +0.000 NA
ATOM      4  N   UNL     1       5.274   3.960  19.382  0.00  0.00    +0.000 NA
ATOM      5  C   UNL     1       4.036   4.398  19.230  0.00  0.00    +0.000 A 
ENDROOT
BRANCH   5   6
ATOM      6  C   UNL     1       2.885   3.701  19.752  0.00  0.00    +0.000 A 
ATOM      7  C   UNL     1       2.454   3.536  21.058  0.00  0.00    +0.000 A 
ATOM      8  C   UNL     1       1.234   2.802  21.163  0.00  0.00    +0.000 A 
ATOM      9  C   UNL     1       0.760   2.420  19.930  0.00  0.00    +0.000 A 
ATOM     10  S   UNL     1       1.778   2.944  18.665  0.00  0.00    +0.000 S 
ENDBRANCH   5   6
BRANCH   1  12
ATOM     11  C   UNL     1       2.480   7.267  19.384  0.00  0.00    +0.000 C 
ATOM     12  C   UNL     1       2.969   6.450  18.197  0.00  0.00    +0.000 C 
ENDBRANCH   1  12
BRANCH   2  13
ATOM     13  S   UNL     1       6.046   7.217  17.472  0.00  0.00    +0.000 S 
BRANCH  13  14
ATOM     14  C   UNL     1       7.842   6.940  17.637  0.00  0.00    +0.000 C 
BRANCH  14  15
ATOM     15  C   UNL     1       8.478   8.129  18.312  0.00  0.00    +0.000 C 
ATOM     16  C   UNL     1       8.227   9.410  17.983  0.00  0.00    +0.000 C 
BRANCH  16  17
ATOM     17  C   UNL     1       8.839  10.590  18.622  0.00  0.00    +0.000 A 
ATOM     18  C   UNL     1       9.228  10.503  19.967  0.00  0.00    +0.000 A 
ATOM     19  C   UNL     1       9.818  11.590  20.618  0.00  0.00    +0.000 A 
ATOM     20  C   UNL     1      10.046  12.778  19.926  0.00  0.00    +0.000 A 
ATOM     21  C   UNL     1       9.692  12.873  18.583  0.00  0.00    +0.000 A 
ATOM     22  C   UNL     1       9.099  11.782  17.932  0.00  0.00    +0.000 A 
ENDBRANCH  16  17
ENDBRANCH  14  15
ENDBRANCH  13  14
ENDBRANCH   2  13
TORSDOF 6
ENDMDL
