MODEL 1
REMARK VINA RESULT:      -8.9      0.000      0.000
REMARK  Name = 
REMARK  4 active torsions:
REMARK  status: ('A' for Active; 'I' for Inactive)
REMARK    1  A    between atoms: C_1  and  C_2
REMARK    2  A    between atoms: C_5  and  S_6
REMARK    3  A    between atoms: S_6  and  N_9
REMARK    4  A    between atoms: C_15  and  C_16
REMARK                            x       y       z     vdW  Elec       q    Type
REMARK                         _______ _______ _______ _____ _____    ______ ____
ROOT
ATOM      1  N   UNL     1       3.746   4.984  19.165  0.00  0.00    +0.000 N 
ATOM      2  C   UNL     1       3.258   4.320  20.386  0.00  0.00    +0.000 C 
ATOM      3  C   UNL     1       2.108   4.859  21.143  0.00  0.00    +0.000 C 
ATOM      4  C   UNL     1       1.431   6.090  20.715  0.00  0.00    +0.000 C 
ATOM      5  C   UNL     1       2.096   6.820  19.625  0.00  0.00    +0.000 A 
ATOM      6  C   UNL     1       1.351   8.038  19.411  0.00  0.00    +0.000 A 
ATOM      7  C   UNL     1       1.638   9.040  18.494  0.00  0.00    +0.000 A 
ATOM      8  C   UNL     1       2.750   8.660  17.713  0.00  0.00    +0.000 A 
ATOM      9  C   UNL     1       3.537   7.377  17.915  0.00  0.00    +0.000 A 
ATOM     10  C   UNL     1       3.246   6.430  18.937  0.00  0.00    +0.000 A 
ENDROOT
BRANCH   7  11
ATOM     11  C   UNL     1       0.729  10.271  18.519  0.00  0.00    +0.000 A 
ATOM     12  C   UNL     1      -0.645  10.185  18.120  0.00  0.00    +0.000 A 
ATOM     13  C   UNL     1      -1.502  11.291  18.009  0.00  0.00    +0.000 A 
ATOM     14  C   UNL     1      -0.986  12.523  18.327  0.00  0.00    +0.000 A 
ATOM     15  N   UNL     1       0.295  12.692  18.721  0.00  0.00    +0.000 NA
ATOM     16  C   UNL     1       1.108  11.579  18.800  0.00  0.00    +0.000 A 
ENDBRANCH   7  11
BRANCH   1  17
ATOM     17  S   UNL     1       5.402   4.291  19.010  0.00  0.00    +0.000 S 
ATOM     18  O   UNL     1       5.337   2.855  19.270  0.00  0.00    +0.000 OA
ATOM     19  O   UNL     1       6.370   5.139  19.687  0.00  0.00    +0.000 OA
BRANCH  17  24
ATOM     20  C   UNL     1       6.759   4.335  12.728  0.00  0.00    +0.000 C 
ATOM     21  C   UNL     1       6.428   4.396  14.208  0.00  0.00    +0.000 A 
ATOM     22  C   UNL     1       5.148   4.068  14.687  0.00  0.00    +0.000 A 
ATOM     23  C   UNL     1       4.843   4.088  16.090  0.00  0.00    +0.000 A 
ATOM     24  C   UNL     1       5.824   4.426  17.048  0.00  0.00    +0.000 A 
ATOM     25  C   UNL     1       7.090   4.804  16.556  0.00  0.00    +0.000 A 
ATOM     26  C   UNL     1       7.387   4.778  15.159  0.00  0.00    +0.000 A 
ENDBRANCH  17  24
ENDBRANCH   1  17
TORSDOF 3
ENDMDL
MODEL 2
REMARK VINA RESULT:      -8.8      2.473      3.266
REMARK  Name = 
REMARK  4 active torsions:
REMARK  status: ('A' for Active; 'I' for Inactive)
REMARK    1  A    between atoms: C_1  and  C_2
REMARK    2  A    between atoms: C_5  and  S_6
REMARK    3  A    between atoms: S_6  and  N_9
REMARK    4  A    between atoms: C_15  and  C_16
REMARK                            x       y       z     vdW  Elec       q    Type
REMARK                         _______ _______ _______ _____ _____    ______ ____
ROOT
ATOM      1  N   UNL     1       3.088   4.479  18.469  0.00  0.00    +0.000 N 
ATOM      2  C   UNL     1       3.092   3.380  19.451  0.00  0.00    +0.000 C 
ATOM      3  C   UNL     1       2.450   3.535  20.774  0.00  0.00    +0.000 C 
ATOM      4  C   UNL     1       1.809   4.798  21.161  0.00  0.00    +0.000 C 
ATOM      5  C   UNL     1       2.027   5.918  20.233  0.00  0.00    +0.000 A 
ATOM      6  C   UNL     1       1.416   7.086  20.821  0.00  0.00    +0.000 A 
ATOM      7  C   UNL     1       1.402   8.372  20.299  0.00  0.00    +0.000 A 
ATOM      8  C   UNL     1       2.019   8.372  19.030  0.00  0.00    +0.000 A 
ATOM      9  C   UNL     1       2.656   7.150  18.390  0.00  0.00    +0.000 A 
ATOM     10  C   UNL     1       2.717   5.876  19.020  0.00  0.00    +0.000 A 
ENDROOT
BRANCH   7  11
ATOM     11  C   UNL     1       0.746   9.453  21.160  0.00  0.00    +0.000 A 
ATOM     12  C   UNL     1      -0.088   9.109  22.273  0.00  0.00    +0.000 A 
ATOM     13  C   UNL     1      -0.809  10.043  23.034  0.00  0.00    +0.000 A 
ATOM     14  C   UNL     1      -0.682  11.367  22.693  0.00  0.00    +0.000 A 
ATOM     15  N   UNL     1       0.091  11.779  21.664  0.00  0.00    +0.000 NA
ATOM     16  C   UNL     1       0.770  10.825  20.933  0.00  0.00    +0.000 A 
ENDBRANCH   7  11
BRANCH   1  17
ATOM     17  S   UNL     1       4.422   3.984  17.364  0.00  0.00    +0.000 S 
ATOM     18  O   UNL     1       3.969   4.133  15.983  0.00  0.00    +0.000 OA
ATOM     19  O   UNL     1       5.034   2.750  17.830  0.00  0.00    +0.000 OA
BRANCH  17  24
ATOM     20  C   UNL     1       8.717   8.649  18.411  0.00  0.00    +0.000 C 
ATOM     21  C   UNL     1       7.743   7.526  18.107  0.00  0.00    +0.000 A 
ATOM     22  C   UNL     1       7.781   6.311  18.815  0.00  0.00    +0.000 A 
ATOM     23  C   UNL     1       6.836   5.261  18.555  0.00  0.00    +0.000 A 
ATOM     24  C   UNL     1       5.819   5.413  17.587  0.00  0.00    +0.000 A 
ATOM     25  C   UNL     1       5.821   6.613  16.847  0.00  0.00    +0.000 A 
ATOM     26  C   UNL     1       6.761   7.654  17.113  0.00  0.00    +0.000 A 
ENDBRANCH  17  24
ENDBRANCH   1  17
TORSDOF 3
ENDMDL
MODEL 3
REMARK VINA RESULT:      -8.7      4.405      9.020
REMARK  Name = 
REMARK  4 active torsions:
REMARK  status: ('A' for Active; 'I' for Inactive)
REMARK    1  A    between atoms: C_1  and  C_2
REMARK    2  A    between atoms: C_5  and  S_6
REMARK    3  A    between atoms: S_6  and  N_9
REMARK    4  A    between atoms: C_15  and  C_16
REMARK                            x       y       z     vdW  Elec       q    Type
REMARK                         _______ _______ _______ _____ _____    ______ ____
ROOT
ATOM      1  N   UNL     1       0.663  11.376  20.246  0.00  0.00    +0.000 N 
ATOM      2  C   UNL     1       0.031  11.156  21.559  0.00  0.00    +0.000 C 
ATOM      3  C   UNL     1       0.121   9.848  22.242  0.00  0.00    +0.000 C 
ATOM      4  C   UNL     1       0.822   8.717  21.621  0.00  0.00    +0.000 C 
ATOM      5  C   UNL     1       1.239   8.931  20.227  0.00  0.00    +0.000 A 
ATOM      6  C   UNL     1       1.814   7.693  19.758  0.00  0.00    +0.000 A 
ATOM      7  C   UNL     1       2.316   7.434  18.490  0.00  0.00    +0.000 A 
ATOM      8  C   UNL     1       2.262   8.611  17.713  0.00  0.00    +0.000 A 
ATOM      9  C   UNL     1       1.673   9.926  18.194  0.00  0.00    +0.000 A 
ATOM     10  C   UNL     1       1.089  10.101  19.480  0.00  0.00    +0.000 A 
ENDROOT
BRANCH   7  11
ATOM     11  C   UNL     1       2.804   6.009  18.225  0.00  0.00    +0.000 A 
ATOM     12  C   UNL     1       1.887   4.965  17.873  0.00  0.00    +0.000 A 
ATOM     13  C   UNL     1       2.249   3.616  17.728  0.00  0.00    +0.000 A 
ATOM     14  C   UNL     1       3.570   3.295  17.915  0.00  0.00    +0.000 A 
ATOM     15  N   UNL     1       4.502   4.217  18.238  0.00  0.00    +0.000 NA
ATOM     16  C   UNL     1       4.099   5.530  18.388  0.00  0.00    +0.000 A 
ENDBRANCH   7  11
BRANCH   1  17
ATOM     17  S   UNL     1      -0.205  12.843  19.664  0.00  0.00    +0.000 S 
ATOM     18  O   UNL     1       0.332  13.221  18.360  0.00  0.00    +0.000 OA
ATOM     19  O   UNL     1      -0.334  13.814  20.739  0.00  0.00    +0.000 OA
BRANCH  17  24
ATOM     20  C   UNL     1      -6.162  11.018  18.087  0.00  0.00    +0.000 C 
ATOM     21  C   UNL     1      -4.756  11.399  18.512  0.00  0.00    +0.000 A 
ATOM     22  C   UNL     1      -3.627  10.905  17.836  0.00  0.00    +0.000 A 
ATOM     23  C   UNL     1      -2.296  11.295  18.212  0.00  0.00    +0.000 A 
ATOM     24  C   UNL     1      -2.070  12.203  19.270  0.00  0.00    +0.000 A 
ATOM     25  C   UNL     1      -3.206  12.652  19.976  0.00  0.00    +0.000 A 
ATOM     26  C   UNL     1      -4.525  12.264  19.593  0.00  0.00    +0.000 A 
ENDBRANCH  17  24
ENDBRANCH   1  17
TORSDOF 3
ENDMDL
MODEL 4
REMARK VINA RESULT:      -8.7      4.421      8.680
REMARK  Name = 
REMARK  4 active torsions:
REMARK  status: ('A' for Active; 'I' for Inactive)
REMARK    1  A    between atoms: C_1  and  C_2
REMARK    2  A    between atoms: C_5  and  S_6
REMARK    3  A    between atoms: S_6  and  N_9
REMARK    4  A    between atoms: C_15  and  C_16
REMARK                            x       y       z     vdW  Elec       q    Type
REMARK                         _______ _______ _______ _____ _____    ______ ____
ROOT
ATOM      1  N   UNL     1       0.383  11.010  20.180  0.00  0.00    +0.000 N 
ATOM      2  C   UNL     1      -0.240  10.820  21.502  0.00  0.00    +0.000 C 
ATOM      3  C   UNL     1      -0.005   9.591  22.290  0.00  0.00    +0.000 C 
ATOM      4  C   UNL     1       0.838   8.508  21.768  0.00  0.00    +0.000 C 
ATOM      5  C   UNL     1       1.250   8.660  20.364  0.00  0.00    +0.000 A 
ATOM      6  C   UNL     1       1.978   7.467  20.001  0.00  0.00    +0.000 A 
ATOM      7  C   UNL     1       2.528   7.171  18.762  0.00  0.00    +0.000 A 
ATOM      8  C   UNL     1       2.346   8.267  17.892  0.00  0.00    +0.000 A 
ATOM      9  C   UNL     1       1.595   9.534  18.260  0.00  0.00    +0.000 A 
ATOM     10  C   UNL     1       0.972   9.739  19.524  0.00  0.00    +0.000 A 
ENDROOT
BRANCH   7  11
ATOM     11  C   UNL     1       3.189   5.798  18.616  0.00  0.00    +0.000 A 
ATOM     12  C   UNL     1       2.637   4.799  17.751  0.00  0.00    +0.000 A 
ATOM     13  C   UNL     1       3.124   3.485  17.656  0.00  0.00    +0.000 A 
ATOM     14  C   UNL     1       4.210   3.158  18.429  0.00  0.00    +0.000 A 
ATOM     15  N   UNL     1       4.798   4.042  19.263  0.00  0.00    +0.000 NA
ATOM     16  C   UNL     1       4.277   5.319  19.338  0.00  0.00    +0.000 A 
ENDBRANCH   7  11
BRANCH   1  17
ATOM     17  S   UNL     1      -0.646  12.310  19.476  0.00  0.00    +0.000 S 
ATOM     18  O   UNL     1      -1.409  12.940  20.550  0.00  0.00    +0.000 OA
ATOM     19  O   UNL     1      -1.295  11.839  18.263  0.00  0.00    +0.000 OA
BRANCH  17  24
ATOM     20  C   UNL     1       3.732  16.753  17.926  0.00  0.00    +0.000 C 
ATOM     21  C   UNL     1       2.667  15.714  18.227  0.00  0.00    +0.000 A 
ATOM     22  C   UNL     1       2.915  14.340  18.061  0.00  0.00    +0.000 A 
ATOM     23  C   UNL     1       1.922  13.354  18.381  0.00  0.00    +0.000 A 
ATOM     24  C   UNL     1       0.659  13.725  18.893  0.00  0.00    +0.000 A 
ATOM     25  C   UNL     1       0.400  15.107  19.007  0.00  0.00    +0.000 A 
ATOM     26  C   UNL     1       1.394  16.081  18.690  0.00  0.00    +0.000 A 
ENDBRANCH  17  24
ENDBRANCH   1  17
TORSDOF 3
ENDMDL
MODEL 5
REMARK VINA RESULT:      -8.7      2.829      3.603
REMARK  Name = 
REMARK  4 active torsions:
REMARK  status: ('A' for Active; 'I' for Inactive)
REMARK    1  A    between atoms: C_1  and  C_2
REMARK    2  A    between atoms: C_5  and  S_6
REMARK    3  A    between atoms: S_6  and  N_9
REMARK    4  A    between atoms: C_15  and  C_16
REMARK                            x       y       z     vdW  Elec       q    Type
REMARK                         _______ _______ _______ _____ _____    ______ ____
ROOT
ATOM      1  N   UNL     1       3.755   4.939  17.900  0.00  0.00    +0.000 N 
ATOM      2  C   UNL     1       3.946   3.765  18.770  0.00  0.00    +0.000 C 
ATOM      3  C   UNL     1       3.298   3.682  20.096  0.00  0.00    +0.000 C 
ATOM      4  C   UNL     1       2.463   4.779  20.600  0.00  0.00    +0.000 C 
ATOM      5  C   UNL     1       2.488   6.005  19.788  0.00  0.00    +0.000 A 
ATOM      6  C   UNL     1       1.699   6.994  20.484  0.00  0.00    +0.000 A 
ATOM      7  C   UNL     1       1.471   8.306  20.091  0.00  0.00    +0.000 A 
ATOM      8  C   UNL     1       2.069   8.531  18.833  0.00  0.00    +0.000 A 
ATOM      9  C   UNL     1       2.891   7.499  18.081  0.00  0.00    +0.000 A 
ATOM     10  C   UNL     1       3.165   6.195  18.583  0.00  0.00    +0.000 A 
ENDROOT
BRANCH   7  11
ATOM     11  C   UNL     1       0.655   9.176  21.049  0.00  0.00    +0.000 A 
ATOM     12  C   UNL     1      -0.180  10.233  20.560  0.00  0.00    +0.000 A 
ATOM     13  C   UNL     1      -0.865  11.139  21.386  0.00  0.00    +0.000 A 
ATOM     14  C   UNL     1      -0.735  10.977  22.743  0.00  0.00    +0.000 A 
ATOM     15  N   UNL     1       0.024  10.002  23.287  0.00  0.00    +0.000 NA
ATOM     16  C   UNL     1       0.693   9.143  22.439  0.00  0.00    +0.000 A 
ENDBRANCH   7  11
BRANCH   1  17
ATOM     17  S   UNL     1       5.142   4.779  16.762  0.00  0.00    +0.000 S 
ATOM     18  O   UNL     1       4.712   5.206  15.433  0.00  0.00    +0.000 OA
ATOM     19  O   UNL     1       5.820   3.510  16.966  0.00  0.00    +0.000 OA
BRANCH  17  24
ATOM     20  C   UNL     1       9.096   9.343  18.964  0.00  0.00    +0.000 C 
ATOM     21  C   UNL     1       8.207   8.257  18.387  0.00  0.00    +0.000 A 
ATOM     22  C   UNL     1       8.278   6.931  18.848  0.00  0.00    +0.000 A 
ATOM     23  C   UNL     1       7.410   5.909  18.331  0.00  0.00    +0.000 A 
ATOM     24  C   UNL     1       6.440   6.200  17.347  0.00  0.00    +0.000 A 
ATOM     25  C   UNL     1       6.412   7.521  16.853  0.00  0.00    +0.000 A 
ATOM     26  C   UNL     1       7.275   8.532  17.375  0.00  0.00    +0.000 A 
ENDBRANCH  17  24
ENDBRANCH   1  17
TORSDOF 3
ENDMDL
MODEL 6
REMARK VINA RESULT:      -8.6      4.147      8.907
REMARK  Name = 
REMARK  4 active torsions:
REMARK  status: ('A' for Active; 'I' for Inactive)
REMARK    1  A    between atoms: C_1  and  C_2
REMARK    2  A    between atoms: C_5  and  S_6
REMARK    3  A    between atoms: S_6  and  N_9
REMARK    4  A    between atoms: C_15  and  C_16
REMARK                            x       y       z     vdW  Elec       q    Type
REMARK                         _______ _______ _______ _____ _____    ______ ____
ROOT
ATOM      1  N   UNL     1       0.942  11.165  20.243  0.00  0.00    +0.000 N 
ATOM      2  C   UNL     1       0.345  10.959  21.575  0.00  0.00    +0.000 C 
ATOM      3  C   UNL     1       0.381   9.635  22.232  0.00  0.00    +0.000 C 
ATOM      4  C   UNL     1       0.991   8.476  21.568  0.00  0.00    +0.000 C 
ATOM      5  C   UNL     1       1.370   8.691  20.163  0.00  0.00    +0.000 A 
ATOM      6  C   UNL     1       1.853   7.430  19.653  0.00  0.00    +0.000 A 
ATOM      7  C   UNL     1       2.293   7.166  18.363  0.00  0.00    +0.000 A 
ATOM      8  C   UNL     1       2.282   8.358  17.608  0.00  0.00    +0.000 A 
ATOM      9  C   UNL     1       1.790   9.696  18.132  0.00  0.00    +0.000 A 
ATOM     10  C   UNL     1       1.263   9.881  19.442  0.00  0.00    +0.000 A 
ENDROOT
BRANCH   7  11
ATOM     11  C   UNL     1       2.685   5.719  18.056  0.00  0.00    +0.000 A 
ATOM     12  C   UNL     1       4.054   5.351  17.848  0.00  0.00    +0.000 A 
ATOM     13  C   UNL     1       4.473   4.071  17.452  0.00  0.00    +0.000 A 
ATOM     14  C   UNL     1       3.502   3.116  17.280  0.00  0.00    +0.000 A 
ATOM     15  N   UNL     1       2.190   3.375  17.465  0.00  0.00    +0.000 NA
ATOM     16  C   UNL     1       1.821   4.652  17.837  0.00  0.00    +0.000 A 
ENDBRANCH   7  11
BRANCH   1  17
ATOM     17  S   UNL     1       0.143  12.691  19.718  0.00  0.00    +0.000 S 
ATOM     18  O   UNL     1       0.741  13.126  18.458  0.00  0.00    +0.000 OA
ATOM     19  O   UNL     1       0.004  13.602  20.843  0.00  0.00    +0.000 OA
BRANCH  17  24
ATOM     20  C   UNL     1      -5.806  11.165  17.825  0.00  0.00    +0.000 C 
ATOM     21  C   UNL     1      -4.405  11.472  18.321  0.00  0.00    +0.000 A 
ATOM     22  C   UNL     1      -3.268  10.994  17.646  0.00  0.00    +0.000 A 
ATOM     23  C   UNL     1      -1.940  11.315  18.092  0.00  0.00    +0.000 A 
ATOM     24  C   UNL     1      -1.725  12.138  19.220  0.00  0.00    +0.000 A 
ATOM     25  C   UNL     1      -2.871  12.569  19.920  0.00  0.00    +0.000 A 
ATOM     26  C   UNL     1      -4.187  12.249  19.469  0.00  0.00    +0.000 A 
ENDBRANCH  17  24
ENDBRANCH   1  17
TORSDOF 3
ENDMDL
MODEL 7
REMARK VINA RESULT:      -8.5      4.078      8.373
REMARK  Name = 
REMARK  4 active torsions:
REMARK  status: ('A' for Active; 'I' for Inactive)
REMARK    1  A    between atoms: C_1  and  C_2
REMARK    2  A    between atoms: C_5  and  S_6
REMARK    3  A    between atoms: S_6  and  N_9
REMARK    4  A    between atoms: C_15  and  C_16
REMARK                            x       y       z     vdW  Elec       q    Type
REMARK                         _______ _______ _______ _____ _____    ______ ____
ROOT
ATOM      1  N   UNL     1       0.205  10.738  20.458  0.00  0.00    +0.000 N 
ATOM      2  C   UNL     1      -0.387  10.190  21.691  0.00  0.00    +0.000 C 
ATOM      3  C   UNL     1      -0.019   8.845  22.184  0.00  0.00    +0.000 C 
ATOM      4  C   UNL     1       0.929   8.002  21.445  0.00  0.00    +0.000 C 
ATOM      5  C   UNL     1       1.314   8.510  20.119  0.00  0.00    +0.000 A 
ATOM      6  C   UNL     1       2.160   7.513  19.508  0.00  0.00    +0.000 A 
ATOM      7  C   UNL     1       2.731   7.566  18.244  0.00  0.00    +0.000 A 
ATOM      8  C   UNL     1       2.429   8.806  17.642  0.00  0.00    +0.000 A 
ATOM      9  C   UNL     1       1.552   9.871  18.275  0.00  0.00    +0.000 A 
ATOM     10  C   UNL     1       0.919   9.718  19.541  0.00  0.00    +0.000 A 
ENDROOT
BRANCH   7  11
ATOM     11  C   UNL     1       3.531   6.338  17.802  0.00  0.00    +0.000 A 
ATOM     12  C   UNL     1       4.823   6.474  17.198  0.00  0.00    +0.000 A 
ATOM     13  C   UNL     1       5.560   5.403  16.668  0.00  0.00    +0.000 A 
ATOM     14  C   UNL     1       5.006   4.150  16.760  0.00  0.00    +0.000 A 
ATOM     15  N   UNL     1       3.798   3.932  17.322  0.00  0.00    +0.000 NA
ATOM     16  C   UNL     1       3.100   5.016  17.816  0.00  0.00    +0.000 A 
ENDBRANCH   7  11
BRANCH   1  17
ATOM     17  S   UNL     1      -0.959  12.051  20.049  0.00  0.00    +0.000 S 
ATOM     18  O   UNL     1      -0.216  13.185  19.505  0.00  0.00    +0.000 OA
ATOM     19  O   UNL     1      -1.925  12.223  21.122  0.00  0.00    +0.000 OA
BRANCH  17  24
ATOM     20  C   UNL     1      -4.032   9.959  14.806  0.00  0.00    +0.000 C 
ATOM     21  C   UNL     1      -3.347  10.407  16.083  0.00  0.00    +0.000 A 
ATOM     22  C   UNL     1      -2.098   9.886  16.467  0.00  0.00    +0.000 A 
ATOM     23  C   UNL     1      -1.430  10.338  17.656  0.00  0.00    +0.000 A 
ATOM     24  C   UNL     1      -1.996  11.335  18.481  0.00  0.00    +0.000 A 
ATOM     25  C   UNL     1      -3.271  11.814  18.116  0.00  0.00    +0.000 A 
ATOM     26  C   UNL     1      -3.927  11.363  16.930  0.00  0.00    +0.000 A 
ENDBRANCH  17  24
ENDBRANCH   1  17
TORSDOF 3
ENDMDL
MODEL 8
REMARK VINA RESULT:      -8.5      4.361      8.636
REMARK  Name = 
REMARK  4 active torsions:
REMARK  status: ('A' for Active; 'I' for Inactive)
REMARK    1  A    between atoms: C_1  and  C_2
REMARK    2  A    between atoms: C_5  and  S_6
REMARK    3  A    between atoms: S_6  and  N_9
REMARK    4  A    between atoms: C_15  and  C_16
REMARK                            x       y       z     vdW  Elec       q    Type
REMARK                         _______ _______ _______ _____ _____    ______ ____
ROOT
ATOM      1  N   UNL     1       0.504  10.981  20.504  0.00  0.00    +0.000 N 
ATOM      2  C   UNL     1      -0.022  10.596  21.826  0.00  0.00    +0.000 C 
ATOM      3  C   UNL     1       0.251   9.261  22.399  0.00  0.00    +0.000 C 
ATOM      4  C   UNL     1       1.036   8.265  21.657  0.00  0.00    +0.000 C 
ATOM      5  C   UNL     1       1.344   8.626  20.265  0.00  0.00    +0.000 A 
ATOM      6  C   UNL     1       2.024   7.499  19.673  0.00  0.00    +0.000 A 
ATOM      7  C   UNL     1       2.477   7.392  18.365  0.00  0.00    +0.000 A 
ATOM      8  C   UNL     1       2.248   8.608  17.686  0.00  0.00    +0.000 A 
ATOM      9  C   UNL     1       1.547   9.808  18.298  0.00  0.00    +0.000 A 
ATOM     10  C   UNL     1       1.023   9.822  19.621  0.00  0.00    +0.000 A 
ENDROOT
BRANCH   7  11
ATOM     11  C   UNL     1       3.103   6.054  17.964  0.00  0.00    +0.000 A 
ATOM     12  C   UNL     1       2.317   4.859  17.898  0.00  0.00    +0.000 A 
ATOM     13  C   UNL     1       2.846   3.582  17.650  0.00  0.00    +0.000 A 
ATOM     14  C   UNL     1       4.199   3.491  17.437  0.00  0.00    +0.000 A 
ATOM     15  N   UNL     1       5.012   4.569  17.472  0.00  0.00    +0.000 NA
ATOM     16  C   UNL     1       4.452   5.803  17.736  0.00  0.00    +0.000 A 
ENDBRANCH   7  11
BRANCH   1  17
ATOM     17  S   UNL     1      -0.553  12.377  20.084  0.00  0.00    +0.000 S 
ATOM     18  O   UNL     1      -1.064  12.969  21.318  0.00  0.00    +0.000 OA
ATOM     19  O   UNL     1      -1.443  12.026  18.989  0.00  0.00    +0.000 OA
BRANCH  17  24
ATOM     20  C   UNL     1       3.244  16.834  17.433  0.00  0.00    +0.000 C 
ATOM     21  C   UNL     1       2.388  15.786  18.119  0.00  0.00    +0.000 A 
ATOM     22  C   UNL     1       1.163  16.120  18.722  0.00  0.00    +0.000 A 
ATOM     23  C   UNL     1       0.332  15.123  19.339  0.00  0.00    +0.000 A 
ATOM     24  C   UNL     1       0.708  13.762  19.350  0.00  0.00    +0.000 A 
ATOM     25  C   UNL     1       1.962  13.444  18.789  0.00  0.00    +0.000 A 
ATOM     26  C   UNL     1       2.780  14.440  18.175  0.00  0.00    +0.000 A 
ENDBRANCH  17  24
ENDBRANCH   1  17
TORSDOF 3
ENDMDL
MODEL 9
REMARK VINA RESULT:      -8.5      4.685      9.296
REMARK  Name = 
REMARK  4 active torsions:
REMARK  status: ('A' for Active; 'I' for Inactive)
REMARK    1  A    between atoms: C_1  and  C_2
REMARK    2  A    between atoms: C_5  and  S_6
REMARK    3  A    between atoms: S_6  and  N_9
REMARK    4  A    between atoms: C_15  and  C_16
REMARK                            x       y       z     vdW  Elec       q    Type
REMARK                         _______ _______ _______ _____ _____    ______ ____
ROOT
ATOM      1  N   UNL     1       0.254  11.592  20.525  0.00  0.00    +0.000 N 
ATOM      2  C   UNL     1      -0.471  11.669  21.806  0.00  0.00    +0.000 C 
ATOM      3  C   UNL     1      -0.466  10.537  22.756  0.00  0.00    +0.000 C 
ATOM      4  C   UNL     1       0.242   9.289  22.443  0.00  0.00    +0.000 C 
ATOM      5  C   UNL     1       0.758   9.193  21.069  0.00  0.00    +0.000 A 
ATOM      6  C   UNL     1       1.326   7.874  20.918  0.00  0.00    +0.000 A 
ATOM      7  C   UNL     1       1.904   7.342  19.773  0.00  0.00    +0.000 A 
ATOM      8  C   UNL     1       1.938   8.326  18.762  0.00  0.00    +0.000 A 
ATOM      9  C   UNL     1       1.357   9.721  18.908  0.00  0.00    +0.000 A 
ATOM     10  C   UNL     1       0.693  10.177  20.082  0.00  0.00    +0.000 A 
ENDROOT
BRANCH   7  11
ATOM     11  C   UNL     1       2.367   5.886  19.854  0.00  0.00    +0.000 A 
ATOM     12  C   UNL     1       1.621   4.912  20.594  0.00  0.00    +0.000 A 
ATOM     13  C   UNL     1       2.045   3.590  20.804  0.00  0.00    +0.000 A 
ATOM     14  C   UNL     1       3.239   3.214  20.240  0.00  0.00    +0.000 A 
ATOM     15  N   UNL     1       4.000   4.066  19.520  0.00  0.00    +0.000 NA
ATOM     16  C   UNL     1       3.553   5.362  19.352  0.00  0.00    +0.000 A 
ENDBRANCH   7  11
BRANCH   1  17
ATOM     17  S   UNL     1      -0.529  12.913  19.583  0.00  0.00    +0.000 S 
ATOM     18  O   UNL     1       0.072  12.962  18.253  0.00  0.00    +0.000 OA
ATOM     19  O   UNL     1      -0.656  14.110  20.400  0.00  0.00    +0.000 OA
BRANCH  17  24
ATOM     20  C   UNL     1      -6.529  11.046  18.236  0.00  0.00    +0.000 C 
ATOM     21  C   UNL     1      -5.110  11.437  18.606  0.00  0.00    +0.000 A 
ATOM     22  C   UNL     1      -4.004  10.949  17.889  0.00  0.00    +0.000 A 
ATOM     23  C   UNL     1      -2.663  11.348  18.214  0.00  0.00    +0.000 A 
ATOM     24  C   UNL     1      -2.403  12.260  19.261  0.00  0.00    +0.000 A 
ATOM     25  C   UNL     1      -3.514  12.703  20.008  0.00  0.00    +0.000 A 
ATOM     26  C   UNL     1      -4.845  12.305  19.676  0.00  0.00    +0.000 A 
ENDBRANCH  17  24
ENDBRANCH   1  17
TORSDOF 3
ENDMDL
