MODEL 1
REMARK VINA RESULT:      -7.2      0.000      0.000
REMARK  Name = 
REMARK  9 active torsions:
REMARK  status: ('A' for Active; 'I' for Inactive)
REMARK    1  A    between atoms: C_1  and  O_2
REMARK    2  A    between atoms: O_2  and  C_3
REMARK    3  A    between atoms: C_6  and  C_7
REMARK    4  A    between atoms: C_7  and  O_9
REMARK    5  A    between atoms: O_9  and  C_10
REMARK    6  A    between atoms: C_10  and  C_11
REMARK    7  A    between atoms: N_13  and  C_14
REMARK    8  A    between atoms: C_22  and  O_23
REMARK    9  A    between atoms: O_23  and  C_24
REMARK                            x       y       z     vdW  Elec       q    Type
REMARK                         _______ _______ _______ _____ _____    ______ ____
ROOT
ATOM      1  O   UNL     1       2.040   2.908  18.367  0.00  0.00    +0.000 OA
ENDROOT
BRANCH   1   2
ATOM      2  C   UNL     1       3.290   2.396  18.316  0.00  0.00    +0.000 C 
ATOM      3  O   UNL     1       3.581   1.215  18.424  0.00  0.00    +0.000 OA
BRANCH   2   7
ATOM      4  C   UNL     1       6.376   5.183  17.261  0.00  0.00    +0.000 A 
ATOM      5  C   UNL     1       6.116   4.851  18.602  0.00  0.00    +0.000 A 
ATOM      6  C   UNL     1       5.091   3.969  18.940  0.00  0.00    +0.000 A 
ATOM      7  C   UNL     1       4.258   3.448  17.944  0.00  0.00    +0.000 A 
ATOM      8  C   UNL     1       4.450   3.866  16.619  0.00  0.00    +0.000 A 
ATOM      9  C   UNL     1       5.497   4.728  16.267  0.00  0.00    +0.000 A 
BRANCH   4  11
ATOM     10  C   UNL     1       7.433   7.296  17.433  0.00  0.00    +0.000 C 
ATOM     11  O   UNL     1       7.452   5.958  16.931  0.00  0.00    +0.000 OA
ENDBRANCH   4  11
BRANCH   9  12
ATOM     12  O   UNL     1       5.516   4.974  14.918  0.00  0.00    +0.000 OA
ATOM     13  C   UNL     1       6.382   4.227  14.083  0.00  0.00    +0.000 C 
ENDBRANCH   9  12
ENDBRANCH   2   7
ENDBRANCH   1   2
BRANCH   1  14
ATOM     14  C   UNL     1       1.469   2.964  19.674  0.00  0.00    +0.000 C 
BRANCH  14  15
ATOM     15  C   UNL     1       1.896   4.275  20.335  0.00  0.00    +0.000 C 
ATOM     16  O   UNL     1       2.299   4.317  21.494  0.00  0.00    +0.000 OA
ATOM     17  N   UNL     1       1.826   5.384  19.514  0.00  0.00    +0.000 N 
ATOM     18  H   UNL     1       1.690   5.223  18.519  0.00  0.00    +0.000 HD
BRANCH  17  19
ATOM     19  C   UNL     1       2.311   6.699  19.944  0.00  0.00    +0.000 C 
ATOM     20  C   UNL     1       2.934   7.470  18.769  0.00  0.00    +0.000 C 
ATOM     21  C   UNL     1       1.918   8.128  17.837  0.00  0.00    +0.000 C 
ATOM     22  C   UNL     1       1.557   9.550  18.264  0.00  0.00    +0.000 C 
ATOM     23  C   UNL     1       0.755   9.672  19.558  0.00  0.00    +0.000 C 
ATOM     24  C   UNL     1       1.341   8.954  20.774  0.00  0.00    +0.000 C 
ATOM     25  C   UNL     1       1.192   7.434  20.696  0.00  0.00    +0.000 C 
ENDBRANCH  17  19
ENDBRANCH  14  15
ENDBRANCH   1  14
TORSDOF 7
ENDMDL
MODEL 2
REMARK VINA RESULT:      -6.6      2.154      5.840
REMARK  Name = 
REMARK  9 active torsions:
REMARK  status: ('A' for Active; 'I' for Inactive)
REMARK    1  A    between atoms: C_1  and  O_2
REMARK    2  A    between atoms: O_2  and  C_3
REMARK    3  A    between atoms: C_6  and  C_7
REMARK    4  A    between atoms: C_7  and  O_9
REMARK    5  A    between atoms: O_9  and  C_10
REMARK    6  A    between atoms: C_10  and  C_11
REMARK    7  A    between atoms: N_13  and  C_14
REMARK    8  A    between atoms: C_22  and  O_23
REMARK    9  A    between atoms: O_23  and  C_24
REMARK                            x       y       z     vdW  Elec       q    Type
REMARK                         _______ _______ _______ _____ _____    ______ ____
ROOT
ATOM      1  O   UNL     1       2.144   3.872  19.169  0.00  0.00    +0.000 OA
ENDROOT
BRANCH   1   2
ATOM      2  C   UNL     1       2.073   4.649  20.273  0.00  0.00    +0.000 C 
ATOM      3  O   UNL     1       2.125   4.253  21.427  0.00  0.00    +0.000 OA
BRANCH   2   7
ATOM      4  C   UNL     1       1.818   8.722  18.952  0.00  0.00    +0.000 A 
ATOM      5  C   UNL     1       2.442   7.736  18.168  0.00  0.00    +0.000 A 
ATOM      6  C   UNL     1       2.549   6.420  18.618  0.00  0.00    +0.000 A 
ATOM      7  C   UNL     1       2.091   6.077  19.894  0.00  0.00    +0.000 A 
ATOM      8  C   UNL     1       1.569   7.085  20.717  0.00  0.00    +0.000 A 
ATOM      9  C   UNL     1       1.429   8.403  20.261  0.00  0.00    +0.000 A 
BRANCH   4  11
ATOM     10  C   UNL     1       0.252  10.377  18.302  0.00  0.00    +0.000 C 
ATOM     11  O   UNL     1       1.616   9.979  18.457  0.00  0.00    +0.000 OA
ENDBRANCH   4  11
BRANCH   9  12
ATOM     12  O   UNL     1       0.865   9.209  21.216  0.00  0.00    +0.000 OA
ATOM     13  C   UNL     1      -0.054   8.660  22.143  0.00  0.00    +0.000 C 
ENDBRANCH   9  12
ENDBRANCH   2   7
ENDBRANCH   1   2
BRANCH   1  14
ATOM     14  C   UNL     1       2.874   2.657  19.337  0.00  0.00    +0.000 C 
BRANCH  14  15
ATOM     15  C   UNL     1       4.362   2.993  19.432  0.00  0.00    +0.000 C 
ATOM     16  O   UNL     1       5.091   2.482  20.278  0.00  0.00    +0.000 OA
ATOM     17  N   UNL     1       4.816   3.877  18.472  0.00  0.00    +0.000 N 
ATOM     18  H   UNL     1       4.198   4.077  17.689  0.00  0.00    +0.000 HD
BRANCH  17  19
ATOM     19  C   UNL     1       6.237   4.215  18.338  0.00  0.00    +0.000 C 
ATOM     20  C   UNL     1       6.613   4.446  16.865  0.00  0.00    +0.000 C 
ATOM     21  C   UNL     1       6.215   5.816  16.320  0.00  0.00    +0.000 C 
ATOM     22  C   UNL     1       7.306   6.869  16.513  0.00  0.00    +0.000 C 
ATOM     23  C   UNL     1       7.571   7.294  17.956  0.00  0.00    +0.000 C 
ATOM     24  C   UNL     1       7.838   6.159  18.945  0.00  0.00    +0.000 C 
ATOM     25  C   UNL     1       6.578   5.366  19.294  0.00  0.00    +0.000 C 
ENDBRANCH  17  19
ENDBRANCH  14  15
ENDBRANCH   1  14
TORSDOF 7
ENDMDL
MODEL 3
REMARK VINA RESULT:      -6.6      2.319      6.996
REMARK  Name = 
REMARK  9 active torsions:
REMARK  status: ('A' for Active; 'I' for Inactive)
REMARK    1  A    between atoms: C_1  and  O_2
REMARK    2  A    between atoms: O_2  and  C_3
REMARK    3  A    between atoms: C_6  and  C_7
REMARK    4  A    between atoms: C_7  and  O_9
REMARK    5  A    between atoms: O_9  and  C_10
REMARK    6  A    between atoms: C_10  and  C_11
REMARK    7  A    between atoms: N_13  and  C_14
REMARK    8  A    between atoms: C_22  and  O_23
REMARK    9  A    between atoms: O_23  and  C_24
REMARK                            x       y       z     vdW  Elec       q    Type
REMARK                         _______ _______ _______ _____ _____    ______ ____
ROOT
ATOM      1  O   UNL     1       4.221   7.143  16.850  0.00  0.00    +0.000 OA
ENDROOT
BRANCH   1   2
ATOM      2  C   UNL     1       3.146   7.514  17.581  0.00  0.00    +0.000 C 
ATOM      3  O   UNL     1       2.546   8.573  17.479  0.00  0.00    +0.000 OA
BRANCH   2   7
ATOM      4  C   UNL     1       1.455   4.404  20.002  0.00  0.00    +0.000 A 
ATOM      5  C   UNL     1       1.855   5.630  20.560  0.00  0.00    +0.000 A 
ATOM      6  C   UNL     1       2.433   6.625  19.773  0.00  0.00    +0.000 A 
ATOM      7  C   UNL     1       2.684   6.388  18.417  0.00  0.00    +0.000 A 
ATOM      8  C   UNL     1       2.385   5.124  17.888  0.00  0.00    +0.000 A 
ATOM      9  C   UNL     1       1.775   4.130  18.664  0.00  0.00    +0.000 A 
BRANCH   4  11
ATOM     10  C   UNL     1       1.603   2.621  21.557  0.00  0.00    +0.000 C 
ATOM     11  O   UNL     1       0.787   3.480  20.756  0.00  0.00    +0.000 OA
ENDBRANCH   4  11
BRANCH   9  12
ATOM     12  O   UNL     1       1.543   2.992  17.935  0.00  0.00    +0.000 OA
ATOM     13  C   UNL     1       2.610   2.099  17.672  0.00  0.00    +0.000 C 
ENDBRANCH   9  12
ENDBRANCH   2   7
ENDBRANCH   1   2
BRANCH   1  14
ATOM     14  C   UNL     1       5.482   7.390  17.471  0.00  0.00    +0.000 C 
BRANCH  14  15
ATOM     15  C   UNL     1       6.559   6.621  16.706  0.00  0.00    +0.000 C 
ATOM     16  O   UNL     1       7.752   6.728  16.980  0.00  0.00    +0.000 OA
ATOM     17  N   UNL     1       6.077   5.780  15.720  0.00  0.00    +0.000 N 
ATOM     18  H   UNL     1       5.077   5.595  15.710  0.00  0.00    +0.000 HD
BRANCH  17  19
ATOM     19  C   UNL     1       6.959   4.878  14.972  0.00  0.00    +0.000 C 
ATOM     20  C   UNL     1       6.249   3.552  14.653  0.00  0.00    +0.000 C 
ATOM     21  C   UNL     1       5.284   3.621  13.472  0.00  0.00    +0.000 C 
ATOM     22  C   UNL     1       5.957   3.303  12.137  0.00  0.00    +0.000 C 
ATOM     23  C   UNL     1       6.964   4.337  11.638  0.00  0.00    +0.000 C 
ATOM     24  C   UNL     1       8.057   4.734  12.630  0.00  0.00    +0.000 C 
ATOM     25  C   UNL     1       7.540   5.622  13.762  0.00  0.00    +0.000 C 
ENDBRANCH  17  19
ENDBRANCH  14  15
ENDBRANCH   1  14
TORSDOF 7
ENDMDL
MODEL 4
REMARK VINA RESULT:      -6.6      4.534      8.818
REMARK  Name = 
REMARK  9 active torsions:
REMARK  status: ('A' for Active; 'I' for Inactive)
REMARK    1  A    between atoms: C_1  and  O_2
REMARK    2  A    between atoms: O_2  and  C_3
REMARK    3  A    between atoms: C_6  and  C_7
REMARK    4  A    between atoms: C_7  and  O_9
REMARK    5  A    between atoms: O_9  and  C_10
REMARK    6  A    between atoms: C_10  and  C_11
REMARK    7  A    between atoms: N_13  and  C_14
REMARK    8  A    between atoms: C_22  and  O_23
REMARK    9  A    between atoms: O_23  and  C_24
REMARK                            x       y       z     vdW  Elec       q    Type
REMARK                         _______ _______ _______ _____ _____    ______ ____
ROOT
ATOM      1  O   UNL     1       1.036   9.220  18.475  0.00  0.00    +0.000 OA
ENDROOT
BRANCH   1   2
ATOM      2  C   UNL     1       0.648  10.398  19.012  0.00  0.00    +0.000 C 
ATOM      3  O   UNL     1       1.369  11.179  19.613  0.00  0.00    +0.000 OA
BRANCH   2   7
ATOM      4  C   UNL     1      -3.501  10.944  18.070  0.00  0.00    +0.000 A 
ATOM      5  C   UNL     1      -2.678  10.111  17.294  0.00  0.00    +0.000 A 
ATOM      6  C   UNL     1      -1.323   9.963  17.586  0.00  0.00    +0.000 A 
ATOM      7  C   UNL     1      -0.747  10.699  18.627  0.00  0.00    +0.000 A 
ATOM      8  C   UNL     1      -1.546  11.612  19.329  0.00  0.00    +0.000 A 
ATOM      9  C   UNL     1      -2.915  11.745  19.062  0.00  0.00    +0.000 A 
BRANCH   4  11
ATOM     10  C   UNL     1      -5.296  12.033  16.970  0.00  0.00    +0.000 C 
ATOM     11  O   UNL     1      -4.848  10.996  17.846  0.00  0.00    +0.000 OA
ENDBRANCH   4  11
BRANCH   9  12
ATOM     12  O   UNL     1      -3.504  12.665  19.889  0.00  0.00    +0.000 OA
ATOM     13  C   UNL     1      -2.694  13.552  20.639  0.00  0.00    +0.000 C 
ENDBRANCH   9  12
ENDBRANCH   2   7
ENDBRANCH   1   2
BRANCH   1  14
ATOM     14  C   UNL     1       2.275   9.264  17.767  0.00  0.00    +0.000 C 
BRANCH  14  15
ATOM     15  C   UNL     1       2.872   7.856  17.745  0.00  0.00    +0.000 C 
ATOM     16  O   UNL     1       3.905   7.598  17.133  0.00  0.00    +0.000 OA
ATOM     17  N   UNL     1       2.179   6.924  18.495  0.00  0.00    +0.000 N 
ATOM     18  H   UNL     1       1.469   7.272  19.135  0.00  0.00    +0.000 HD
BRANCH  17  19
ATOM     19  C   UNL     1       2.677   5.558  18.686  0.00  0.00    +0.000 C 
ATOM     20  C   UNL     1       2.653   5.164  20.171  0.00  0.00    +0.000 C 
ATOM     21  C   UNL     1       1.276   4.757  20.694  0.00  0.00    +0.000 C 
ATOM     22  C   UNL     1       1.004   3.261  20.541  0.00  0.00    +0.000 C 
ATOM     23  C   UNL     1       0.834   2.759  19.109  0.00  0.00    +0.000 C 
ATOM     24  C   UNL     1       1.954   3.132  18.136  0.00  0.00    +0.000 C 
ATOM     25  C   UNL     1       1.930   4.608  17.739  0.00  0.00    +0.000 C 
ENDBRANCH  17  19
ENDBRANCH  14  15
ENDBRANCH   1  14
TORSDOF 7
ENDMDL
MODEL 5
REMARK VINA RESULT:      -6.5      1.116      1.956
REMARK  Name = 
REMARK  9 active torsions:
REMARK  status: ('A' for Active; 'I' for Inactive)
REMARK    1  A    between atoms: C_1  and  O_2
REMARK    2  A    between atoms: O_2  and  C_3
REMARK    3  A    between atoms: C_6  and  C_7
REMARK    4  A    between atoms: C_7  and  O_9
REMARK    5  A    between atoms: O_9  and  C_10
REMARK    6  A    between atoms: C_10  and  C_11
REMARK    7  A    between atoms: N_13  and  C_14
REMARK    8  A    between atoms: C_22  and  O_23
REMARK    9  A    between atoms: O_23  and  C_24
REMARK                            x       y       z     vdW  Elec       q    Type
REMARK                         _______ _______ _______ _____ _____    ______ ____
ROOT
ATOM      1  O   UNL     1       2.406   3.581  17.842  0.00  0.00    +0.000 OA
ENDROOT
BRANCH   1   2
ATOM      2  C   UNL     1       3.578   2.907  17.867  0.00  0.00    +0.000 C 
ATOM      3  O   UNL     1       3.709   1.713  18.087  0.00  0.00    +0.000 OA
BRANCH   2   7
ATOM      4  C   UNL     1       6.586   5.751  16.742  0.00  0.00    +0.000 A 
ATOM      5  C   UNL     1       5.420   5.577  15.977  0.00  0.00    +0.000 A 
ATOM      6  C   UNL     1       4.462   4.628  16.331  0.00  0.00    +0.000 A 
ATOM      7  C   UNL     1       4.681   3.785  17.425  0.00  0.00    +0.000 A 
ATOM      8  C   UNL     1       5.894   3.887  18.121  0.00  0.00    +0.000 A 
ATOM      9  C   UNL     1       6.849   4.857  17.791  0.00  0.00    +0.000 A 
BRANCH   4  11
ATOM     10  C   UNL     1       7.432   7.883  17.333  0.00  0.00    +0.000 C 
ATOM     11  O   UNL     1       7.465   6.757  16.454  0.00  0.00    +0.000 OA
ENDBRANCH   4  11
BRANCH   9  12
ATOM     12  O   UNL     1       7.938   4.797  18.622  0.00  0.00    +0.000 OA
ATOM     13  C   UNL     1       7.907   5.473  19.866  0.00  0.00    +0.000 C 
ENDBRANCH   9  12
ENDBRANCH   2   7
ENDBRANCH   1   2
BRANCH   1  14
ATOM     14  C   UNL     1       1.678   3.562  19.070  0.00  0.00    +0.000 C 
BRANCH  14  15
ATOM     15  C   UNL     1       2.001   4.839  19.846  0.00  0.00    +0.000 C 
ATOM     16  O   UNL     1       2.353   4.814  21.022  0.00  0.00    +0.000 OA
ATOM     17  N   UNL     1       1.901   6.003  19.107  0.00  0.00    +0.000 N 
ATOM     18  H   UNL     1       1.816   5.912  18.098  0.00  0.00    +0.000 HD
BRANCH  17  19
ATOM     19  C   UNL     1       2.292   7.306  19.656  0.00  0.00    +0.000 C 
ATOM     20  C   UNL     1       2.563   8.320  18.533  0.00  0.00    +0.000 C 
ATOM     21  C   UNL     1       1.306   8.933  17.919  0.00  0.00    +0.000 C 
ATOM     22  C   UNL     1       0.860  10.208  18.634  0.00  0.00    +0.000 C 
ATOM     23  C   UNL     1       0.325  10.023  20.051  0.00  0.00    +0.000 C 
ATOM     24  C   UNL     1       1.228   9.244  21.008  0.00  0.00    +0.000 C 
ATOM     25  C   UNL     1       1.262   7.745  20.706  0.00  0.00    +0.000 C 
ENDBRANCH  17  19
ENDBRANCH  14  15
ENDBRANCH   1  14
TORSDOF 7
ENDMDL
MODEL 6
REMARK VINA RESULT:      -6.5      3.801      7.068
REMARK  Name = 
REMARK  9 active torsions:
REMARK  status: ('A' for Active; 'I' for Inactive)
REMARK    1  A    between atoms: C_1  and  O_2
REMARK    2  A    between atoms: O_2  and  C_3
REMARK    3  A    between atoms: C_6  and  C_7
REMARK    4  A    between atoms: C_7  and  O_9
REMARK    5  A    between atoms: O_9  and  C_10
REMARK    6  A    between atoms: C_10  and  C_11
REMARK    7  A    between atoms: N_13  and  C_14
REMARK    8  A    between atoms: C_22  and  O_23
REMARK    9  A    between atoms: O_23  and  C_24
REMARK                            x       y       z     vdW  Elec       q    Type
REMARK                         _______ _______ _______ _____ _____    ______ ____
ROOT
ATOM      1  O   UNL     1       6.511   6.861  17.313  0.00  0.00    +0.000 OA
ENDROOT
BRANCH   1   2
ATOM      2  C   UNL     1       5.564   6.438  16.445  0.00  0.00    +0.000 C 
ATOM      3  O   UNL     1       5.539   6.676  15.248  0.00  0.00    +0.000 OA
BRANCH   2   7
ATOM      4  C   UNL     1       3.171   3.624  18.624  0.00  0.00    +0.000 A 
ATOM      5  C   UNL     1       4.043   3.208  17.604  0.00  0.00    +0.000 A 
ATOM      6  C   UNL     1       4.795   4.131  16.878  0.00  0.00    +0.000 A 
ATOM      7  C   UNL     1       4.640   5.501  17.115  0.00  0.00    +0.000 A 
ATOM      8  C   UNL     1       3.688   5.918  18.057  0.00  0.00    +0.000 A 
ATOM      9  C   UNL     1       2.952   4.996  18.812  0.00  0.00    +0.000 A 
BRANCH   4  11
ATOM     10  C   UNL     1       1.239   2.288  18.941  0.00  0.00    +0.000 C 
ATOM     11  O   UNL     1       2.525   2.707  19.405  0.00  0.00    +0.000 OA
ENDBRANCH   4  11
BRANCH   9  12
ATOM     12  O   UNL     1       2.110   5.625  19.694  0.00  0.00    +0.000 OA
ATOM     13  C   UNL     1       2.200   7.027  19.869  0.00  0.00    +0.000 C 
ENDBRANCH   9  12
ENDBRANCH   2   7
ENDBRANCH   1   2
BRANCH   1  14
ATOM     14  C   UNL     1       6.770   8.264  17.281  0.00  0.00    +0.000 C 
BRANCH  14  15
ATOM     15  C   UNL     1       8.012   8.548  18.127  0.00  0.00    +0.000 C 
ATOM     16  O   UNL     1       8.618   7.655  18.712  0.00  0.00    +0.000 OA
ATOM     17  N   UNL     1       8.409   9.872  18.141  0.00  0.00    +0.000 N 
ATOM     18  H   UNL     1       7.981  10.497  17.462  0.00  0.00    +0.000 HD
BRANCH  17  19
ATOM     19  C   UNL     1       9.646  10.303  18.799  0.00  0.00    +0.000 C 
ATOM     20  C   UNL     1      10.472  11.217  17.878  0.00  0.00    +0.000 C 
ATOM     21  C   UNL     1       9.978  12.661  17.815  0.00  0.00    +0.000 C 
ATOM     22  C   UNL     1      10.622  13.553  18.876  0.00  0.00    +0.000 C 
ATOM     23  C   UNL     1      10.220  13.264  20.320  0.00  0.00    +0.000 C 
ATOM     24  C   UNL     1      10.373  11.813  20.776  0.00  0.00    +0.000 C 
ATOM     25  C   UNL     1       9.313  10.887  20.179  0.00  0.00    +0.000 C 
ENDBRANCH  17  19
ENDBRANCH  14  15
ENDBRANCH   1  14
TORSDOF 7
ENDMDL
MODEL 7
REMARK VINA RESULT:      -6.5      3.980      7.368
REMARK  Name = 
REMARK  9 active torsions:
REMARK  status: ('A' for Active; 'I' for Inactive)
REMARK    1  A    between atoms: C_1  and  O_2
REMARK    2  A    between atoms: O_2  and  C_3
REMARK    3  A    between atoms: C_6  and  C_7
REMARK    4  A    between atoms: C_7  and  O_9
REMARK    5  A    between atoms: O_9  and  C_10
REMARK    6  A    between atoms: C_10  and  C_11
REMARK    7  A    between atoms: N_13  and  C_14
REMARK    8  A    between atoms: C_22  and  O_23
REMARK    9  A    between atoms: O_23  and  C_24
REMARK                            x       y       z     vdW  Elec       q    Type
REMARK                         _______ _______ _______ _____ _____    ______ ____
ROOT
ATOM      1  O   UNL     1       7.064   6.627  17.804  0.00  0.00    +0.000 OA
ENDROOT
BRANCH   1   2
ATOM      2  C   UNL     1       6.870   5.326  18.117  0.00  0.00    +0.000 C 
ATOM      3  O   UNL     1       7.744   4.479  18.213  0.00  0.00    +0.000 OA
BRANCH   2   7
ATOM      4  C   UNL     1       2.727   4.507  18.868  0.00  0.00    +0.000 A 
ATOM      5  C   UNL     1       3.130   5.647  18.152  0.00  0.00    +0.000 A 
ATOM      6  C   UNL     1       4.479   5.924  17.939  0.00  0.00    +0.000 A 
ATOM      7  C   UNL     1       5.461   5.097  18.496  0.00  0.00    +0.000 A 
ATOM      8  C   UNL     1       5.058   4.022  19.302  0.00  0.00    +0.000 A 
ATOM      9  C   UNL     1       3.704   3.719  19.495  0.00  0.00    +0.000 A 
BRANCH   4  11
ATOM     10  C   UNL     1       1.038   2.888  18.493  0.00  0.00    +0.000 C 
ATOM     11  O   UNL     1       1.404   4.183  18.974  0.00  0.00    +0.000 OA
ENDBRANCH   4  11
BRANCH   9  12
ATOM     12  O   UNL     1       3.543   2.610  20.285  0.00  0.00    +0.000 OA
ATOM     13  C   UNL     1       4.669   1.821  20.621  0.00  0.00    +0.000 C 
ENDBRANCH   9  12
ENDBRANCH   2   7
ENDBRANCH   1   2
BRANCH   1  14
ATOM     14  C   UNL     1       8.114   7.267  18.527  0.00  0.00    +0.000 C 
BRANCH  14  15
ATOM     15  C   UNL     1       8.182   8.731  18.091  0.00  0.00    +0.000 C 
ATOM     16  O   UNL     1       7.489   9.170  17.177  0.00  0.00    +0.000 OA
ATOM     17  N   UNL     1       9.049   9.513  18.830  0.00  0.00    +0.000 N 
ATOM     18  H   UNL     1       9.413   9.121  19.695  0.00  0.00    +0.000 HD
BRANCH  17  19
ATOM     19  C   UNL     1       9.148  10.963  18.630  0.00  0.00    +0.000 C 
ATOM     20  C   UNL     1       9.287  11.698  19.973  0.00  0.00    +0.000 C 
ATOM     21  C   UNL     1      10.693  11.663  20.569  0.00  0.00    +0.000 C 
ATOM     22  C   UNL     1      11.558  12.838  20.112  0.00  0.00    +0.000 C 
ATOM     23  C   UNL     1      11.961  12.833  18.639  0.00  0.00    +0.000 C 
ATOM     24  C   UNL     1      10.817  12.678  17.637  0.00  0.00    +0.000 C 
ATOM     25  C   UNL     1      10.246  11.260  17.599  0.00  0.00    +0.000 C 
ENDBRANCH  17  19
ENDBRANCH  14  15
ENDBRANCH   1  14
TORSDOF 7
ENDMDL
MODEL 8
REMARK VINA RESULT:      -6.5      3.909      7.020
REMARK  Name = 
REMARK  9 active torsions:
REMARK  status: ('A' for Active; 'I' for Inactive)
REMARK    1  A    between atoms: C_1  and  O_2
REMARK    2  A    between atoms: O_2  and  C_3
REMARK    3  A    between atoms: C_6  and  C_7
REMARK    4  A    between atoms: C_7  and  O_9
REMARK    5  A    between atoms: O_9  and  C_10
REMARK    6  A    between atoms: C_10  and  C_11
REMARK    7  A    between atoms: N_13  and  C_14
REMARK    8  A    between atoms: C_22  and  O_23
REMARK    9  A    between atoms: O_23  and  C_24
REMARK                            x       y       z     vdW  Elec       q    Type
REMARK                         _______ _______ _______ _____ _____    ______ ____
ROOT
ATOM      1  O   UNL     1       6.786   6.874  17.458  0.00  0.00    +0.000 OA
ENDROOT
BRANCH   1   2
ATOM      2  C   UNL     1       5.796   6.388  16.675  0.00  0.00    +0.000 C 
ATOM      3  O   UNL     1       5.848   6.254  15.463  0.00  0.00    +0.000 OA
BRANCH   2   7
ATOM      4  C   UNL     1       2.381   4.861  18.774  0.00  0.00    +0.000 A 
ATOM      5  C   UNL     1       2.455   6.207  18.377  0.00  0.00    +0.000 A 
ATOM      6  C   UNL     1       3.581   6.704  17.723  0.00  0.00    +0.000 A 
ATOM      7  C   UNL     1       4.690   5.877  17.510  0.00  0.00    +0.000 A 
ATOM      8  C   UNL     1       4.657   4.566  18.006  0.00  0.00    +0.000 A 
ATOM      9  C   UNL     1       3.517   4.049  18.636  0.00  0.00    +0.000 A 
BRANCH   4  11
ATOM     10  C   UNL     1       1.195   4.268  20.738  0.00  0.00    +0.000 C 
ATOM     11  O   UNL     1       1.231   4.355  19.312  0.00  0.00    +0.000 OA
ENDBRANCH   4  11
BRANCH   9  12
ATOM     12  O   UNL     1       3.695   2.741  19.006  0.00  0.00    +0.000 OA
ATOM     13  C   UNL     1       3.578   1.717  18.035  0.00  0.00    +0.000 C 
ENDBRANCH   9  12
ENDBRANCH   2   7
ENDBRANCH   1   2
BRANCH   1  14
ATOM     14  C   UNL     1       7.096   8.251  17.244  0.00  0.00    +0.000 C 
BRANCH  14  15
ATOM     15  C   UNL     1       8.220   8.650  18.201  0.00  0.00    +0.000 C 
ATOM     16  O   UNL     1       8.723   7.848  18.983  0.00  0.00    +0.000 OA
ATOM     17  N   UNL     1       8.638   9.962  18.084  0.00  0.00    +0.000 N 
ATOM     18  H   UNL     1       8.319  10.485  17.272  0.00  0.00    +0.000 HD
BRANCH  17  19
ATOM     19  C   UNL     1       9.786  10.480  18.836  0.00  0.00    +0.000 C 
ATOM     20  C   UNL     1      10.555  11.529  18.017  0.00  0.00    +0.000 C 
ATOM     21  C   UNL     1       9.912  12.915  18.004  0.00  0.00    +0.000 C 
ATOM     22  C   UNL     1      10.398  13.804  19.149  0.00  0.00    +0.000 C 
ATOM     23  C   UNL     1       9.954  13.386  20.549  0.00  0.00    +0.000 C 
ATOM     24  C   UNL     1      10.239  11.934  20.932  0.00  0.00    +0.000 C 
ATOM     25  C   UNL     1       9.318  10.940  20.224  0.00  0.00    +0.000 C 
ENDBRANCH  17  19
ENDBRANCH  14  15
ENDBRANCH   1  14
TORSDOF 7
ENDMDL
MODEL 9
REMARK VINA RESULT:      -6.5      2.352      3.926
REMARK  Name = 
REMARK  9 active torsions:
REMARK  status: ('A' for Active; 'I' for Inactive)
REMARK    1  A    between atoms: C_1  and  O_2
REMARK    2  A    between atoms: O_2  and  C_3
REMARK    3  A    between atoms: C_6  and  C_7
REMARK    4  A    between atoms: C_7  and  O_9
REMARK    5  A    between atoms: O_9  and  C_10
REMARK    6  A    between atoms: C_10  and  C_11
REMARK    7  A    between atoms: N_13  and  C_14
REMARK    8  A    between atoms: C_22  and  O_23
REMARK    9  A    between atoms: O_23  and  C_24
REMARK                            x       y       z     vdW  Elec       q    Type
REMARK                         _______ _______ _______ _____ _____    ______ ____
ROOT
ATOM      1  O   UNL     1       2.764   6.065  18.273  0.00  0.00    +0.000 OA
ENDROOT
BRANCH   1   2
ATOM      2  C   UNL     1       3.687   5.163  18.678  0.00  0.00    +0.000 C 
ATOM      3  O   UNL     1       3.583   4.422  19.642  0.00  0.00    +0.000 OA
BRANCH   2   7
ATOM      4  C   UNL     1       6.634   5.093  15.562  0.00  0.00    +0.000 A 
ATOM      5  C   UNL     1       5.593   4.150  15.606  0.00  0.00    +0.000 A 
ATOM      6  C   UNL     1       4.657   4.159  16.639  0.00  0.00    +0.000 A 
ATOM      7  C   UNL     1       4.781   5.075  17.689  0.00  0.00    +0.000 A 
ATOM      8  C   UNL     1       5.883   5.941  17.700  0.00  0.00    +0.000 A 
ATOM      9  C   UNL     1       6.811   5.960  16.650  0.00  0.00    +0.000 A 
BRANCH   4  11
ATOM     10  C   UNL     1       7.001   4.539  13.287  0.00  0.00    +0.000 C 
ATOM     11  O   UNL     1       7.478   5.148  14.489  0.00  0.00    +0.000 OA
ENDBRANCH   4  11
BRANCH   9  12
ATOM     12  O   UNL     1       7.781   6.907  16.851  0.00  0.00    +0.000 OA
ATOM     13  C   UNL     1       7.486   8.061  17.618  0.00  0.00    +0.000 C 
ENDBRANCH   9  12
ENDBRANCH   2   7
ENDBRANCH   1   2
BRANCH   1  14
ATOM     14  C   UNL     1       2.563   7.158  19.168  0.00  0.00    +0.000 C 
BRANCH  14  15
ATOM     15  C   UNL     1       2.171   8.389  18.351  0.00  0.00    +0.000 C 
ATOM     16  O   UNL     1       2.550   8.549  17.194  0.00  0.00    +0.000 OA
ATOM     17  N   UNL     1       1.335   9.274  19.005  0.00  0.00    +0.000 N 
ATOM     18  H   UNL     1       0.903   8.958  19.870  0.00  0.00    +0.000 HD
BRANCH  17  19
ATOM     19  C   UNL     1       0.763  10.444  18.331  0.00  0.00    +0.000 C 
ATOM     20  C   UNL     1      -0.764  10.489  18.504  0.00  0.00    +0.000 C 
ATOM     21  C   UNL     1      -1.230  11.017  19.859  0.00  0.00    +0.000 C 
ATOM     22  C   UNL     1      -1.426  12.533  19.868  0.00  0.00    +0.000 C 
ATOM     23  C   UNL     1      -0.153  13.368  19.751  0.00  0.00    +0.000 C 
ATOM     24  C   UNL     1       0.764  13.023  18.578  0.00  0.00    +0.000 C 
ATOM     25  C   UNL     1       1.515  11.706  18.777  0.00  0.00    +0.000 C 
ENDBRANCH  17  19
ENDBRANCH  14  15
ENDBRANCH   1  14
TORSDOF 7
ENDMDL
