MODEL 1
REMARK VINA RESULT:      -8.5      0.000      0.000
REMARK  Name = 
REMARK  7 active torsions:
REMARK  status: ('A' for Active; 'I' for Inactive)
REMARK    1  A    between atoms: C_1  and  C_2
REMARK    2  A    between atoms: C_10  and  C_11
REMARK    3  A    between atoms: C_14  and  N_15
REMARK    4  A    between atoms: C_17  and  C_18
REMARK    5  A    between atoms: C_23  and  C_24
REMARK    6  A    between atoms: C_24  and  S_25
REMARK    7  A    between atoms: S_25  and  C_26
REMARK                            x       y       z     vdW  Elec       q    Type
REMARK                         _______ _______ _______ _____ _____    ______ ____
ROOT
ATOM      1  C   UNL     1       2.396   2.742  17.480  0.00  0.00    +0.000 C 
ATOM      2  C   UNL     1       1.763   3.010  18.844  0.00  0.00    +0.000 C 
ATOM      3  C   UNL     1       2.066   1.829  19.799  0.00  0.00    +0.000 C 
ATOM      4  O   UNL     1       1.438   2.001  21.085  0.00  0.00    +0.000 OA
ATOM      5  C   UNL     1       1.857   3.235  21.700  0.00  0.00    +0.000 C 
ATOM      6  C   UNL     1       1.507   4.437  20.818  0.00  0.00    +0.000 C 
ATOM      7  N   UNL     1       2.194   4.239  19.539  0.00  0.00    +0.000 N 
ATOM      8  C   UNL     1       2.648   5.357  18.899  0.00  0.00    +0.000 A 
ATOM      9  N   UNL     1       2.160   6.553  19.239  0.00  0.00    +0.000 NA
ATOM     10  C   UNL     1       2.609   7.630  18.590  0.00  0.00    +0.000 A 
ATOM     11  C   UNL     1       3.678   7.558  17.721  0.00  0.00    +0.000 A 
ATOM     12  C   UNL     1       4.189   6.306  17.455  0.00  0.00    +0.000 A 
ATOM     13  N   UNL     1       3.651   5.215  18.027  0.00  0.00    +0.000 NA
ENDROOT
BRANCH  10  14
ATOM     14  C   UNL     1       1.859   8.872  18.832  0.00  0.00    +0.000 A 
ATOM     15  C   UNL     1       1.825   9.849  17.836  0.00  0.00    +0.000 A 
ATOM     16  N   UNL     1       1.100  10.994  17.869  0.00  0.00    +0.000 NA
ATOM     17  C   UNL     1       0.370  11.216  18.969  0.00  0.00    +0.000 A 
ATOM     18  C   UNL     1       0.361  10.346  20.036  0.00  0.00    +0.000 A 
ATOM     19  C   UNL     1       1.111   9.143  19.997  0.00  0.00    +0.000 A 
BRANCH  19  20
ATOM     20  C   UNL     1       0.987   8.272  21.228  0.00  0.00    +0.000 C 
ATOM     21  F   UNL     1       0.162   7.205  21.200  0.00  0.00    +0.000 F 
ATOM     22  F   UNL     1       2.204   7.795  21.624  0.00  0.00    +0.000 F 
ATOM     23  F   UNL     1       0.538   9.006  22.300  0.00  0.00    +0.000 F 
ENDBRANCH  19  20
BRANCH  17  24
ATOM     24  N   UNL     1      -0.438  12.343  18.947  0.00  0.00    +0.000 N 
ATOM     25  H   UNL     1      -1.183  12.200  19.619  0.00  0.00    +0.000 HD
ATOM     26  H   UNL     1      -0.797  12.538  18.021  0.00  0.00    +0.000 HD
ENDBRANCH  17  24
ENDBRANCH  10  14
BRANCH  12  27
ATOM     27  C   UNL     1       5.323   6.099  16.505  0.00  0.00    +0.000 C 
ATOM     28  C   UNL     1       5.177   5.175  15.316  0.00  0.00    +0.000 C 
ATOM     29  C   UNL     1       5.284   6.660  15.101  0.00  0.00    +0.000 C 
BRANCH  27  30
ATOM     30  S   UNL     1       6.994   6.062  17.252  0.00  0.00    +0.000 S 
ATOM     31  C   UNL     1       6.708   5.750  18.974  0.00  0.00    +0.000 C 
ATOM     32  O   UNL     1       7.711   4.923  16.706  0.00  0.00    +0.000 OA
ATOM     33  O   UNL     1       7.526   7.406  17.109  0.00  0.00    +0.000 OA
ENDBRANCH  27  30
ENDBRANCH  12  27
TORSDOF 5
ENDMDL
MODEL 2
REMARK VINA RESULT:      -8.4      0.703      1.012
REMARK  Name = 
REMARK  7 active torsions:
REMARK  status: ('A' for Active; 'I' for Inactive)
REMARK    1  A    between atoms: C_1  and  C_2
REMARK    2  A    between atoms: C_10  and  C_11
REMARK    3  A    between atoms: C_14  and  N_15
REMARK    4  A    between atoms: C_17  and  C_18
REMARK    5  A    between atoms: C_23  and  C_24
REMARK    6  A    between atoms: C_24  and  S_25
REMARK    7  A    between atoms: S_25  and  C_26
REMARK                            x       y       z     vdW  Elec       q    Type
REMARK                         _______ _______ _______ _____ _____    ______ ____
ROOT
ATOM      1  C   UNL     1       2.398   2.807  17.499  0.00  0.00    +0.000 C 
ATOM      2  C   UNL     1       1.714   3.042  18.843  0.00  0.00    +0.000 C 
ATOM      3  C   UNL     1       2.015   1.857  19.794  0.00  0.00    +0.000 C 
ATOM      4  O   UNL     1       1.340   1.997  21.060  0.00  0.00    +0.000 OA
ATOM      5  C   UNL     1       1.706   3.232  21.703  0.00  0.00    +0.000 C 
ATOM      6  C   UNL     1       1.356   4.437  20.825  0.00  0.00    +0.000 C 
ATOM      7  N   UNL     1       2.090   4.272  19.567  0.00  0.00    +0.000 N 
ATOM      8  C   UNL     1       2.536   5.409  18.956  0.00  0.00    +0.000 A 
ATOM      9  N   UNL     1       2.008   6.588  19.294  0.00  0.00    +0.000 NA
ATOM     10  C   UNL     1       2.451   7.684  18.673  0.00  0.00    +0.000 A 
ATOM     11  C   UNL     1       3.549   7.650  17.840  0.00  0.00    +0.000 A 
ATOM     12  C   UNL     1       4.100   6.415  17.576  0.00  0.00    +0.000 A 
ATOM     13  N   UNL     1       3.571   5.303  18.117  0.00  0.00    +0.000 NA
ENDROOT
BRANCH  10  14
ATOM     14  C   UNL     1       1.662   8.904  18.904  0.00  0.00    +0.000 A 
ATOM     15  C   UNL     1       1.511   9.821  17.864  0.00  0.00    +0.000 A 
ATOM     16  N   UNL     1       0.737  10.934  17.890  0.00  0.00    +0.000 NA
ATOM     17  C   UNL     1       0.077  11.185  19.027  0.00  0.00    +0.000 A 
ATOM     18  C   UNL     1       0.185  10.376  20.137  0.00  0.00    +0.000 A 
ATOM     19  C   UNL     1       0.986   9.207  20.105  0.00  0.00    +0.000 A 
BRANCH  19  20
ATOM     20  C   UNL     1       0.992   8.400  21.386  0.00  0.00    +0.000 C 
ATOM     21  F   UNL     1       2.085   7.679  21.706  0.00  0.00    +0.000 F 
ATOM     22  F   UNL     1       0.731   9.188  22.471  0.00  0.00    +0.000 F 
ATOM     23  F   UNL     1      -0.024   7.474  21.381  0.00  0.00    +0.000 F 
ENDBRANCH  19  20
BRANCH  17  24
ATOM     24  N   UNL     1      -0.783  12.273  19.006  0.00  0.00    +0.000 N 
ATOM     25  H   UNL     1      -1.414  12.181  19.793  0.00  0.00    +0.000 HD
ATOM     26  H   UNL     1      -1.283  12.348  18.129  0.00  0.00    +0.000 HD
ENDBRANCH  17  24
ENDBRANCH  10  14
BRANCH  12  27
ATOM     27  C   UNL     1       5.271   6.248  16.663  0.00  0.00    +0.000 C 
ATOM     28  C   UNL     1       5.176   5.367  15.437  0.00  0.00    +0.000 C 
ATOM     29  C   UNL     1       5.281   6.859  15.280  0.00  0.00    +0.000 C 
BRANCH  27  30
ATOM     30  S   UNL     1       6.913   6.192  17.470  0.00  0.00    +0.000 S 
ATOM     31  C   UNL     1       7.480   7.873  17.446  0.00  0.00    +0.000 C 
ATOM     32  O   UNL     1       6.726   5.805  18.856  0.00  0.00    +0.000 OA
ATOM     33  O   UNL     1       7.764   5.406  16.593  0.00  0.00    +0.000 OA
ENDBRANCH  27  30
ENDBRANCH  12  27
TORSDOF 5
ENDMDL
MODEL 3
REMARK VINA RESULT:      -8.3      5.108      8.624
REMARK  Name = 
REMARK  7 active torsions:
REMARK  status: ('A' for Active; 'I' for Inactive)
REMARK    1  A    between atoms: C_1  and  C_2
REMARK    2  A    between atoms: C_10  and  C_11
REMARK    3  A    between atoms: C_14  and  N_15
REMARK    4  A    between atoms: C_17  and  C_18
REMARK    5  A    between atoms: C_23  and  C_24
REMARK    6  A    between atoms: C_24  and  S_25
REMARK    7  A    between atoms: S_25  and  C_26
REMARK                            x       y       z     vdW  Elec       q    Type
REMARK                         _______ _______ _______ _____ _____    ______ ____
ROOT
ATOM      1  C   UNL     1      -3.922  13.554  20.720  0.00  0.00    +0.000 C 
ATOM      2  C   UNL     1      -4.332  12.434  19.766  0.00  0.00    +0.000 C 
ATOM      3  C   UNL     1      -5.535  12.896  18.907  0.00  0.00    +0.000 C 
ATOM      4  O   UNL     1      -6.004  11.852  18.030  0.00  0.00    +0.000 OA
ATOM      5  C   UNL     1      -4.947  11.393  17.167  0.00  0.00    +0.000 C 
ATOM      6  C   UNL     1      -3.765  10.856  17.980  0.00  0.00    +0.000 C 
ATOM      7  N   UNL     1      -3.298  11.958  18.827  0.00  0.00    +0.000 N 
ATOM      8  C   UNL     1      -1.956  12.025  19.073  0.00  0.00    +0.000 A 
ATOM      9  N   UNL     1      -1.195  10.948  18.865  0.00  0.00    +0.000 NA
ATOM     10  C   UNL     1       0.112  11.034  19.125  0.00  0.00    +0.000 A 
ATOM     11  C   UNL     1       0.713  12.238  19.423  0.00  0.00    +0.000 A 
ATOM     12  C   UNL     1      -0.110  13.335  19.561  0.00  0.00    +0.000 A 
ATOM     13  N   UNL     1      -1.441  13.211  19.410  0.00  0.00    +0.000 NA
ENDROOT
BRANCH  10  14
ATOM     14  C   UNL     1       0.843   9.757  19.117  0.00  0.00    +0.000 A 
ATOM     15  C   UNL     1       1.419   9.312  17.927  0.00  0.00    +0.000 A 
ATOM     16  N   UNL     1       2.204   8.216  17.782  0.00  0.00    +0.000 NA
ATOM     17  C   UNL     1       2.424   7.481  18.880  0.00  0.00    +0.000 A 
ATOM     18  C   UNL     1       1.869   7.796  20.101  0.00  0.00    +0.000 A 
ATOM     19  C   UNL     1       1.058   8.949  20.253  0.00  0.00    +0.000 A 
BRANCH  19  20
ATOM     20  C   UNL     1       0.538   9.184  21.655  0.00  0.00    +0.000 C 
ATOM     21  F   UNL     1       0.311  10.447  22.071  0.00  0.00    +0.000 F 
ATOM     22  F   UNL     1      -0.624   8.502  21.875  0.00  0.00    +0.000 F 
ATOM     23  F   UNL     1       1.414   8.683  22.588  0.00  0.00    +0.000 F 
ENDBRANCH  19  20
BRANCH  17  24
ATOM     24  N   UNL     1       3.302   6.418  18.736  0.00  0.00    +0.000 N 
ATOM     25  H   UNL     1       3.892   6.394  19.560  0.00  0.00    +0.000 HD
ATOM     26  H   UNL     1       3.846   6.485  17.886  0.00  0.00    +0.000 HD
ENDBRANCH  17  24
ENDBRANCH  10  14
BRANCH  12  27
ATOM     27  C   UNL     1       0.421  14.686  19.915  0.00  0.00    +0.000 C 
ATOM     28  C   UNL     1       1.384  15.403  18.995  0.00  0.00    +0.000 C 
ATOM     29  C   UNL     1      -0.017  15.923  19.164  0.00  0.00    +0.000 C 
BRANCH  27  30
ATOM     30  S   UNL     1       0.767  14.969  21.690  0.00  0.00    +0.000 S 
ATOM     31  C   UNL     1      -0.589  14.201  22.538  0.00  0.00    +0.000 C 
ATOM     32  O   UNL     1       1.977  14.248  22.039  0.00  0.00    +0.000 OA
ATOM     33  O   UNL     1       0.680  16.406  21.890  0.00  0.00    +0.000 OA
ENDBRANCH  27  30
ENDBRANCH  12  27
TORSDOF 5
ENDMDL
MODEL 4
REMARK VINA RESULT:      -8.2      4.658      7.973
REMARK  Name = 
REMARK  7 active torsions:
REMARK  status: ('A' for Active; 'I' for Inactive)
REMARK    1  A    between atoms: C_1  and  C_2
REMARK    2  A    between atoms: C_10  and  C_11
REMARK    3  A    between atoms: C_14  and  N_15
REMARK    4  A    between atoms: C_17  and  C_18
REMARK    5  A    between atoms: C_23  and  C_24
REMARK    6  A    between atoms: C_24  and  S_25
REMARK    7  A    between atoms: S_25  and  C_26
REMARK                            x       y       z     vdW  Elec       q    Type
REMARK                         _______ _______ _______ _____ _____    ______ ____
ROOT
ATOM      1  C   UNL     1      -3.650  12.260  19.147  0.00  0.00    +0.000 C 
ATOM      2  C   UNL     1      -3.680  11.240  18.011  0.00  0.00    +0.000 C 
ATOM      3  C   UNL     1      -4.620  11.740  16.887  0.00  0.00    +0.000 C 
ATOM      4  O   UNL     1      -4.735  10.784  15.814  0.00  0.00    +0.000 OA
ATOM      5  C   UNL     1      -3.442  10.481  15.257  0.00  0.00    +0.000 C 
ATOM      6  C   UNL     1      -2.501   9.911  16.323  0.00  0.00    +0.000 C 
ATOM      7  N   UNL     1      -2.386  10.928  17.373  0.00  0.00    +0.000 N 
ATOM      8  C   UNL     1      -1.180  11.031  18.006  0.00  0.00    +0.000 A 
ATOM      9  N   UNL     1      -0.307  10.024  17.926  0.00  0.00    +0.000 NA
ATOM     10  C   UNL     1       0.860  10.142  18.564  0.00  0.00    +0.000 A 
ATOM     11  C   UNL     1       1.253  11.332  19.140  0.00  0.00    +0.000 A 
ATOM     12  C   UNL     1       0.339  12.363  19.138  0.00  0.00    +0.000 A 
ATOM     13  N   UNL     1      -0.879  12.193  18.593  0.00  0.00    +0.000 NA
ENDROOT
BRANCH  10  14
ATOM     14  C   UNL     1       1.663   8.912  18.646  0.00  0.00    +0.000 A 
ATOM     15  C   UNL     1       2.445   8.539  17.552  0.00  0.00    +0.000 A 
ATOM     16  N   UNL     1       3.311   7.496  17.512  0.00  0.00    +0.000 NA
ATOM     17  C   UNL     1       3.403   6.743  18.615  0.00  0.00    +0.000 A 
ATOM     18  C   UNL     1       2.645   6.987  19.739  0.00  0.00    +0.000 A 
ATOM     19  C   UNL     1       1.749   8.084  19.785  0.00  0.00    +0.000 A 
BRANCH  19  20
ATOM     20  C   UNL     1       1.002   8.246  21.091  0.00  0.00    +0.000 C 
ATOM     21  F   UNL     1      -0.312   8.545  21.066  0.00  0.00    +0.000 F 
ATOM     22  F   UNL     1       1.118   7.131  21.871  0.00  0.00    +0.000 F 
ATOM     23  F   UNL     1       1.555   9.254  21.845  0.00  0.00    +0.000 F 
ENDBRANCH  19  20
BRANCH  17  24
ATOM     24  N   UNL     1       4.359   5.739  18.590  0.00  0.00    +0.000 N 
ATOM     25  H   UNL     1       5.270   6.183  18.581  0.00  0.00    +0.000 HD
ATOM     26  H   UNL     1       4.237   5.114  17.804  0.00  0.00    +0.000 HD
ENDBRANCH  17  24
ENDBRANCH  10  14
BRANCH  12  27
ATOM     27  C   UNL     1       0.636  13.688  19.762  0.00  0.00    +0.000 C 
ATOM     28  C   UNL     1       1.659  14.619  19.149  0.00  0.00    +0.000 C 
ATOM     29  C   UNL     1       0.200  14.979  19.107  0.00  0.00    +0.000 C 
BRANCH  27  30
ATOM     30  S   UNL     1       0.621  13.731  21.592  0.00  0.00    +0.000 S 
ATOM     31  C   UNL     1      -0.527  15.020  21.999  0.00  0.00    +0.000 C 
ATOM     32  O   UNL     1       0.071  12.476  22.072  0.00  0.00    +0.000 OA
ATOM     33  O   UNL     1       1.951  14.155  21.993  0.00  0.00    +0.000 OA
ENDBRANCH  27  30
ENDBRANCH  12  27
TORSDOF 5
ENDMDL
MODEL 5
REMARK VINA RESULT:      -8.0      1.039      1.627
REMARK  Name = 
REMARK  7 active torsions:
REMARK  status: ('A' for Active; 'I' for Inactive)
REMARK    1  A    between atoms: C_1  and  C_2
REMARK    2  A    between atoms: C_10  and  C_11
REMARK    3  A    between atoms: C_14  and  N_15
REMARK    4  A    between atoms: C_17  and  C_18
REMARK    5  A    between atoms: C_23  and  C_24
REMARK    6  A    between atoms: C_24  and  S_25
REMARK    7  A    between atoms: S_25  and  C_26
REMARK                            x       y       z     vdW  Elec       q    Type
REMARK                         _______ _______ _______ _____ _____    ______ ____
ROOT
ATOM      1  C   UNL     1       3.026   2.546  17.315  0.00  0.00    +0.000 C 
ATOM      2  C   UNL     1       2.020   2.753  18.445  0.00  0.00    +0.000 C 
ATOM      3  C   UNL     1       2.034   1.524  19.387  0.00  0.00    +0.000 C 
ATOM      4  O   UNL     1       1.054   1.640  20.439  0.00  0.00    +0.000 OA
ATOM      5  C   UNL     1       1.269   2.837  21.209  0.00  0.00    +0.000 C 
ATOM      6  C   UNL     1       1.188   4.085  20.326  0.00  0.00    +0.000 C 
ATOM      7  N   UNL     1       2.222   3.942  19.296  0.00  0.00    +0.000 N 
ATOM      8  C   UNL     1       2.838   5.085  18.873  0.00  0.00    +0.000 A 
ATOM      9  N   UNL     1       2.267   6.268  19.115  0.00  0.00    +0.000 NA
ATOM     10  C   UNL     1       2.882   7.371  18.681  0.00  0.00    +0.000 A 
ATOM     11  C   UNL     1       4.159   7.331  18.162  0.00  0.00    +0.000 A 
ATOM     12  C   UNL     1       4.731   6.088  17.995  0.00  0.00    +0.000 A 
ATOM     13  N   UNL     1       4.054   4.976  18.329  0.00  0.00    +0.000 NA
ENDROOT
BRANCH  10  14
ATOM     14  C   UNL     1       2.088   8.608  18.753  0.00  0.00    +0.000 A 
ATOM     15  C   UNL     1       2.043   9.451  17.642  0.00  0.00    +0.000 A 
ATOM     16  N   UNL     1       1.282  10.566  17.519  0.00  0.00    +0.000 NA
ATOM     17  C   UNL     1       0.523  10.899  18.571  0.00  0.00    +0.000 A 
ATOM     18  C   UNL     1       0.520  10.169  19.739  0.00  0.00    +0.000 A 
ATOM     19  C   UNL     1       1.308   8.996  19.863  0.00  0.00    +0.000 A 
BRANCH  19  20
ATOM     20  C   UNL     1       1.187   8.282  21.191  0.00  0.00    +0.000 C 
ATOM     21  F   UNL     1       1.610   7.005  21.294  0.00  0.00    +0.000 F 
ATOM     22  F   UNL     1       1.824   8.969  22.185  0.00  0.00    +0.000 F 
ATOM     23  F   UNL     1      -0.125   8.227  21.595  0.00  0.00    +0.000 F 
ENDBRANCH  19  20
BRANCH  17  24
ATOM     24  N   UNL     1      -0.319  11.986  18.395  0.00  0.00    +0.000 N 
ATOM     25  H   UNL     1      -1.213  11.754  18.813  0.00  0.00    +0.000 HD
ATOM     26  H   UNL     1      -0.415  12.242  17.421  0.00  0.00    +0.000 HD
ENDBRANCH  17  24
ENDBRANCH  10  14
BRANCH  12  27
ATOM     27  C   UNL     1       6.096   5.916  17.411  0.00  0.00    +0.000 C 
ATOM     28  C   UNL     1       7.285   6.643  17.999  0.00  0.00    +0.000 C 
ATOM     29  C   UNL     1       7.173   5.151  18.147  0.00  0.00    +0.000 C 
BRANCH  27  30
ATOM     30  S   UNL     1       6.172   5.754  15.590  0.00  0.00    +0.000 S 
ATOM     31  C   UNL     1       5.548   4.127  15.259  0.00  0.00    +0.000 C 
ATOM     32  O   UNL     1       5.248   6.712  15.009  0.00  0.00    +0.000 OA
ATOM     33  O   UNL     1       7.582   5.786  15.244  0.00  0.00    +0.000 OA
ENDBRANCH  27  30
ENDBRANCH  12  27
TORSDOF 5
ENDMDL
MODEL 6
REMARK VINA RESULT:      -8.0      2.473      5.121
REMARK  Name = 
REMARK  7 active torsions:
REMARK  status: ('A' for Active; 'I' for Inactive)
REMARK    1  A    between atoms: C_1  and  C_2
REMARK    2  A    between atoms: C_10  and  C_11
REMARK    3  A    between atoms: C_14  and  N_15
REMARK    4  A    between atoms: C_17  and  C_18
REMARK    5  A    between atoms: C_23  and  C_24
REMARK    6  A    between atoms: C_24  and  S_25
REMARK    7  A    between atoms: S_25  and  C_26
REMARK                            x       y       z     vdW  Elec       q    Type
REMARK                         _______ _______ _______ _____ _____    ______ ____
ROOT
ATOM      1  C   UNL     1       6.420   4.375  19.340  0.00  0.00    +0.000 C 
ATOM      2  C   UNL     1       6.441   5.609  18.440  0.00  0.00    +0.000 C 
ATOM      3  C   UNL     1       7.167   5.273  17.114  0.00  0.00    +0.000 C 
ATOM      4  O   UNL     1       7.271   6.423  16.250  0.00  0.00    +0.000 OA
ATOM      5  C   UNL     1       5.969   6.965  15.960  0.00  0.00    +0.000 C 
ATOM      6  C   UNL     1       5.245   7.381  17.244  0.00  0.00    +0.000 C 
ATOM      7  N   UNL     1       5.129   6.178  18.073  0.00  0.00    +0.000 N 
ATOM      8  C   UNL     1       4.006   6.060  18.841  0.00  0.00    +0.000 A 
ATOM      9  N   UNL     1       3.264   7.142  19.092  0.00  0.00    +0.000 NA
ATOM     10  C   UNL     1       2.178   7.004  19.856  0.00  0.00    +0.000 A 
ATOM     11  C   UNL     1       1.710   5.762  20.232  0.00  0.00    +0.000 A 
ATOM     12  C   UNL     1       2.479   4.671  19.890  0.00  0.00    +0.000 A 
ATOM     13  N   UNL     1       3.633   4.834  19.219  0.00  0.00    +0.000 NA
ENDROOT
BRANCH  10  14
ATOM     14  C   UNL     1       1.553   8.260  20.299  0.00  0.00    +0.000 A 
ATOM     15  C   UNL     1       1.446   8.519  21.666  0.00  0.00    +0.000 A 
ATOM     16  N   UNL     1       0.991   9.667  22.226  0.00  0.00    +0.000 NA
ATOM     17  C   UNL     1       0.585  10.629  21.387  0.00  0.00    +0.000 A 
ATOM     18  C   UNL     1       0.600  10.469  20.019  0.00  0.00    +0.000 A 
ATOM     19  C   UNL     1       1.087   9.272  19.435  0.00  0.00    +0.000 A 
BRANCH  19  20
ATOM     20  C   UNL     1       1.068   9.246  17.921  0.00  0.00    +0.000 C 
ATOM     21  F   UNL     1       1.166   8.064  17.281  0.00  0.00    +0.000 F 
ATOM     22  F   UNL     1      -0.054   9.848  17.428  0.00  0.00    +0.000 F 
ATOM     23  F   UNL     1       2.109   9.984  17.410  0.00  0.00    +0.000 F 
ENDBRANCH  19  20
BRANCH  17  24
ATOM     24  N   UNL     1       0.212  11.829  21.972  0.00  0.00    +0.000 N 
ATOM     25  H   UNL     1       0.254  11.708  22.977  0.00  0.00    +0.000 HD
ATOM     26  H   UNL     1      -0.704  12.134  21.667  0.00  0.00    +0.000 HD
ENDBRANCH  17  24
ENDBRANCH  10  14
BRANCH  12  27
ATOM     27  C   UNL     1       2.093   3.279  20.271  0.00  0.00    +0.000 C 
ATOM     28  C   UNL     1       2.685   2.621  21.498  0.00  0.00    +0.000 C 
ATOM     29  C   UNL     1       1.232   3.008  21.484  0.00  0.00    +0.000 C 
BRANCH  27  30
ATOM     30  S   UNL     1       1.822   2.116  18.884  0.00  0.00    +0.000 S 
ATOM     31  C   UNL     1       3.430   1.458  18.531  0.00  0.00    +0.000 C 
ATOM     32  O   UNL     1       0.989   1.026  19.360  0.00  0.00    +0.000 OA
ATOM     33  O   UNL     1       1.399   2.930  17.757  0.00  0.00    +0.000 OA
ENDBRANCH  27  30
ENDBRANCH  12  27
TORSDOF 5
ENDMDL
MODEL 7
REMARK VINA RESULT:      -7.9      4.945      8.360
REMARK  Name = 
REMARK  7 active torsions:
REMARK  status: ('A' for Active; 'I' for Inactive)
REMARK    1  A    between atoms: C_1  and  C_2
REMARK    2  A    between atoms: C_10  and  C_11
REMARK    3  A    between atoms: C_14  and  N_15
REMARK    4  A    between atoms: C_17  and  C_18
REMARK    5  A    between atoms: C_23  and  C_24
REMARK    6  A    between atoms: C_24  and  S_25
REMARK    7  A    between atoms: S_25  and  C_26
REMARK                            x       y       z     vdW  Elec       q    Type
REMARK                         _______ _______ _______ _____ _____    ______ ____
ROOT
ATOM      1  C   UNL     1      -3.798  12.726  20.096  0.00  0.00    +0.000 C 
ATOM      2  C   UNL     1      -4.000  11.748  18.941  0.00  0.00    +0.000 C 
ATOM      3  C   UNL     1      -5.066  12.307  17.966  0.00  0.00    +0.000 C 
ATOM      4  O   UNL     1      -5.342  11.392  16.887  0.00  0.00    +0.000 OA
ATOM      5  C   UNL     1      -4.140  11.084  16.156  0.00  0.00    +0.000 C 
ATOM      6  C   UNL     1      -3.082  10.459  17.070  0.00  0.00    +0.000 C 
ATOM      7  N   UNL     1      -2.807  11.435  18.129  0.00  0.00    +0.000 N 
ATOM      8  C   UNL     1      -1.527  11.492  18.602  0.00  0.00    +0.000 A 
ATOM      9  N   UNL     1      -0.696  10.472  18.375  0.00  0.00    +0.000 NA
ATOM     10  C   UNL     1       0.547  10.545  18.858  0.00  0.00    +0.000 A 
ATOM     11  C   UNL     1       1.039  11.706  19.417  0.00  0.00    +0.000 A 
ATOM     12  C   UNL     1       0.157  12.754  19.569  0.00  0.00    +0.000 A 
ATOM     13  N   UNL     1      -1.125  12.626  19.183  0.00  0.00    +0.000 NA
ENDROOT
BRANCH  10  14
ATOM     14  C   UNL     1       1.325   9.298  18.793  0.00  0.00    +0.000 A 
ATOM     15  C   UNL     1       1.997   8.979  17.613  0.00  0.00    +0.000 A 
ATOM     16  N   UNL     1       2.831   7.925  17.432  0.00  0.00    +0.000 NA
ATOM     17  C   UNL     1       3.003   7.104  18.476  0.00  0.00    +0.000 A 
ATOM     18  C   UNL     1       2.354   7.291  19.676  0.00  0.00    +0.000 A 
ATOM     19  C   UNL     1       1.491   8.400  19.868  0.00  0.00    +0.000 A 
BRANCH  19  20
ATOM     20  C   UNL     1       0.868   8.494  21.244  0.00  0.00    +0.000 C 
ATOM     21  F   UNL     1       1.258   9.479  22.079  0.00  0.00    +0.000 F 
ATOM     22  F   UNL     1      -0.493   8.583  21.168  0.00  0.00    +0.000 F 
ATOM     23  F   UNL     1       1.099   7.345  21.962  0.00  0.00    +0.000 F 
ENDBRANCH  19  20
BRANCH  17  24
ATOM     24  N   UNL     1       3.929   6.086  18.305  0.00  0.00    +0.000 N 
ATOM     25  H   UNL     1       4.659   6.216  18.995  0.00  0.00    +0.000 HD
ATOM     26  H   UNL     1       4.300   6.062  17.364  0.00  0.00    +0.000 HD
ENDBRANCH  17  24
ENDBRANCH  10  14
BRANCH  12  27
ATOM     27  C   UNL     1       0.564  14.049  20.192  0.00  0.00    +0.000 C 
ATOM     28  C   UNL     1       1.880  14.702  19.828  0.00  0.00    +0.000 C 
ATOM     29  C   UNL     1       0.585  15.332  19.392  0.00  0.00    +0.000 C 
BRANCH  27  30
ATOM     30  S   UNL     1       0.107  14.269  21.951  0.00  0.00    +0.000 S 
ATOM     31  C   UNL     1      -1.404  15.196  21.908  0.00  0.00    +0.000 C 
ATOM     32  O   UNL     1      -0.188  12.962  22.511  0.00  0.00    +0.000 OA
ATOM     33  O   UNL     1       1.144  15.104  22.532  0.00  0.00    +0.000 OA
ENDBRANCH  27  30
ENDBRANCH  12  27
TORSDOF 5
ENDMDL
MODEL 8
REMARK VINA RESULT:      -7.9      5.350      8.732
REMARK  Name = 
REMARK  7 active torsions:
REMARK  status: ('A' for Active; 'I' for Inactive)
REMARK    1  A    between atoms: C_1  and  C_2
REMARK    2  A    between atoms: C_10  and  C_11
REMARK    3  A    between atoms: C_14  and  N_15
REMARK    4  A    between atoms: C_17  and  C_18
REMARK    5  A    between atoms: C_23  and  C_24
REMARK    6  A    between atoms: C_24  and  S_25
REMARK    7  A    between atoms: S_25  and  C_26
REMARK                            x       y       z     vdW  Elec       q    Type
REMARK                         _______ _______ _______ _____ _____    ______ ____
ROOT
ATOM      1  C   UNL     1      -4.287  13.076  20.647  0.00  0.00    +0.000 C 
ATOM      2  C   UNL     1      -4.513  12.134  19.467  0.00  0.00    +0.000 C 
ATOM      3  C   UNL     1      -5.629  12.701  18.554  0.00  0.00    +0.000 C 
ATOM      4  O   UNL     1      -5.928  11.817  17.455  0.00  0.00    +0.000 OA
ATOM      5  C   UNL     1      -4.750  11.560  16.668  0.00  0.00    +0.000 C 
ATOM      6  C   UNL     1      -3.644  10.928  17.519  0.00  0.00    +0.000 C 
ATOM      7  N   UNL     1      -3.348  11.873  18.599  0.00  0.00    +0.000 N 
ATOM      8  C   UNL     1      -2.052  11.942  19.024  0.00  0.00    +0.000 A 
ATOM      9  N   UNL     1      -1.209  10.949  18.730  0.00  0.00    +0.000 NA
ATOM     10  C   UNL     1       0.050  11.033  19.167  0.00  0.00    +0.000 A 
ATOM     11  C   UNL     1       0.539  12.184  19.746  0.00  0.00    +0.000 A 
ATOM     12  C   UNL     1      -0.357  13.207  19.968  0.00  0.00    +0.000 A 
ATOM     13  N   UNL     1      -1.650  13.065  19.627  0.00  0.00    +0.000 NA
ENDROOT
BRANCH  10  14
ATOM     14  C   UNL     1       0.850   9.806  19.029  0.00  0.00    +0.000 A 
ATOM     15  C   UNL     1       1.522   9.566  17.831  0.00  0.00    +0.000 A 
ATOM     16  N   UNL     1       2.374   8.539  17.587  0.00  0.00    +0.000 NA
ATOM     17  C   UNL     1       2.565   7.664  18.583  0.00  0.00    +0.000 A 
ATOM     18  C   UNL     1       1.920   7.772  19.794  0.00  0.00    +0.000 A 
ATOM     19  C   UNL     1       1.038   8.852  20.051  0.00  0.00    +0.000 A 
BRANCH  19  20
ATOM     20  C   UNL     1       0.419   8.858  21.433  0.00  0.00    +0.000 C 
ATOM     21  F   UNL     1      -0.182   9.978  21.882  0.00  0.00    +0.000 F 
ATOM     22  F   UNL     1      -0.501   7.858  21.570  0.00  0.00    +0.000 F 
ATOM     23  F   UNL     1       1.368   8.588  22.391  0.00  0.00    +0.000 F 
ENDBRANCH  19  20
BRANCH  17  24
ATOM     24  N   UNL     1       3.509   6.675  18.351  0.00  0.00    +0.000 N 
ATOM     25  H   UNL     1       3.802   6.312  19.251  0.00  0.00    +0.000 HD
ATOM     26  H   UNL     1       4.293   7.014  17.809  0.00  0.00    +0.000 HD
ENDBRANCH  17  24
ENDBRANCH  10  14
BRANCH  12  27
ATOM     27  C   UNL     1       0.048  14.490  20.618  0.00  0.00    +0.000 C 
ATOM     28  C   UNL     1      -0.659  14.983  21.862  0.00  0.00    +0.000 C 
ATOM     29  C   UNL     1       0.763  14.502  21.951  0.00  0.00    +0.000 C 
BRANCH  27  30
ATOM     30  S   UNL     1       0.549  15.837  19.486  0.00  0.00    +0.000 S 
ATOM     31  C   UNL     1       1.878  15.150  18.533  0.00  0.00    +0.000 C 
ATOM     32  O   UNL     1      -0.555  16.107  18.582  0.00  0.00    +0.000 OA
ATOM     33  O   UNL     1       1.085  16.891  20.331  0.00  0.00    +0.000 OA
ENDBRANCH  27  30
ENDBRANCH  12  27
TORSDOF 5
ENDMDL
MODEL 9
REMARK VINA RESULT:      -7.9      5.351      8.908
REMARK  Name = 
REMARK  7 active torsions:
REMARK  status: ('A' for Active; 'I' for Inactive)
REMARK    1  A    between atoms: C_1  and  C_2
REMARK    2  A    between atoms: C_10  and  C_11
REMARK    3  A    between atoms: C_14  and  N_15
REMARK    4  A    between atoms: C_17  and  C_18
REMARK    5  A    between atoms: C_23  and  C_24
REMARK    6  A    between atoms: C_24  and  S_25
REMARK    7  A    between atoms: S_25  and  C_26
REMARK                            x       y       z     vdW  Elec       q    Type
REMARK                         _______ _______ _______ _____ _____    ______ ____
ROOT
ATOM      1  C   UNL     1      -4.309  13.012  20.831  0.00  0.00    +0.000 C 
ATOM      2  C   UNL     1      -4.542  12.113  19.620  0.00  0.00    +0.000 C 
ATOM      3  C   UNL     1      -5.673  12.704  18.742  0.00  0.00    +0.000 C 
ATOM      4  O   UNL     1      -5.978  11.859  17.614  0.00  0.00    +0.000 OA
ATOM      5  C   UNL     1      -4.807  11.642  16.805  0.00  0.00    +0.000 C 
ATOM      6  C   UNL     1      -3.686  10.988  17.618  0.00  0.00    +0.000 C 
ATOM      7  N   UNL     1      -3.385  11.895  18.730  0.00  0.00    +0.000 N 
ATOM      8  C   UNL     1      -2.084  11.960  19.142  0.00  0.00    +0.000 A 
ATOM      9  N   UNL     1      -1.237  10.986  18.801  0.00  0.00    +0.000 NA
ATOM     10  C   UNL     1       0.026  11.064  19.226  0.00  0.00    +0.000 A 
ATOM     11  C   UNL     1       0.513  12.198  19.842  0.00  0.00    +0.000 A 
ATOM     12  C   UNL     1      -0.389  13.204  20.113  0.00  0.00    +0.000 A 
ATOM     13  N   UNL     1      -1.685  13.063  19.782  0.00  0.00    +0.000 NA
ENDROOT
BRANCH  10  14
ATOM     14  C   UNL     1       0.835   9.850  19.033  0.00  0.00    +0.000 A 
ATOM     15  C   UNL     1       1.442   9.629  17.797  0.00  0.00    +0.000 A 
ATOM     16  N   UNL     1       2.293   8.617  17.498  0.00  0.00    +0.000 NA
ATOM     17  C   UNL     1       2.553   7.738  18.473  0.00  0.00    +0.000 A 
ATOM     18  C   UNL     1       1.975   7.827  19.720  0.00  0.00    +0.000 A 
ATOM     19  C   UNL     1       1.094   8.892  20.035  0.00  0.00    +0.000 A 
BRANCH  19  20
ATOM     20  C   UNL     1       0.554   8.877  21.449  0.00  0.00    +0.000 C 
ATOM     21  F   UNL     1       0.352  10.047  22.090  0.00  0.00    +0.000 F 
ATOM     22  F   UNL     1      -0.630   8.200  21.522  0.00  0.00    +0.000 F 
ATOM     23  F   UNL     1       1.399   8.186  22.285  0.00  0.00    +0.000 F 
ENDBRANCH  19  20
BRANCH  17  24
ATOM     24  N   UNL     1       3.497   6.764  18.180  0.00  0.00    +0.000 N 
ATOM     25  H   UNL     1       4.306   7.229  17.787  0.00  0.00    +0.000 HD
ATOM     26  H   UNL     1       3.132   6.053  17.560  0.00  0.00    +0.000 HD
ENDBRANCH  17  24
ENDBRANCH  10  14
BRANCH  12  27
ATOM     27  C   UNL     1       0.013  14.464  20.806  0.00  0.00    +0.000 C 
ATOM     28  C   UNL     1      -0.134  14.602  22.306  0.00  0.00    +0.000 C 
ATOM     29  C   UNL     1       1.237  14.516  21.692  0.00  0.00    +0.000 C 
BRANCH  27  30
ATOM     30  S   UNL     1      -0.322  16.018  19.899  0.00  0.00    +0.000 S 
ATOM     31  C   UNL     1      -1.999  16.423  20.309  0.00  0.00    +0.000 C 
ATOM     32  O   UNL     1       0.534  17.057  20.443  0.00  0.00    +0.000 OA
ATOM     33  O   UNL     1      -0.262  15.678  18.487  0.00  0.00    +0.000 OA
ENDBRANCH  27  30
ENDBRANCH  12  27
TORSDOF 5
ENDMDL
