MODEL 1
REMARK VINA RESULT:      -7.1      0.000      0.000
REMARK  Name = 
REMARK  9 active torsions:
REMARK  status: ('A' for Active; 'I' for Inactive)
REMARK    1  A    between atoms: C_1  and  O_2
REMARK    2  A    between atoms: O_2  and  C_3
REMARK    3  A    between atoms: C_3  and  C_5
REMARK    4  A    between atoms: C_5  and  C_6
REMARK    5  A    between atoms: C_6  and  C_7
REMARK    6  A    between atoms: C_7  and  C_8
REMARK    7  A    between atoms: C_12  and  N_13
REMARK    8  A    between atoms: C_14  and  C_16
REMARK    9  A    between atoms: C_22  and  O_23
REMARK                            x       y       z     vdW  Elec       q    Type
REMARK                         _______ _______ _______ _____ _____    ______ ____
ROOT
ATOM      1  C   UNL     1       1.447   4.770  18.406  0.00  0.00    +0.000 C 
ATOM      2  C   UNL     1       2.614   5.424  18.271  0.00  0.00    +0.000 C 
ATOM      3  S   UNL     1       2.684   7.140  18.551  0.00  0.00    +0.000 S 
ATOM      4  C   UNL     1       4.008   7.366  17.332  0.00  0.00    +0.000 C 
ATOM      5  C   UNL     1       4.813   6.058  17.282  0.00  0.00    +0.000 C 
ATOM      6  C   UNL     1       3.940   4.877  17.799  0.00  0.00    +0.000 C 
ENDROOT
BRANCH   5   7
ATOM      7  N   UNL     1       5.314   5.777  15.932  0.00  0.00    +0.000 N 
ATOM      8  C   UNL     1       6.352   4.909  15.697  0.00  0.00    +0.000 C 
ATOM      9  O   UNL     1       6.964   4.332  16.587  0.00  0.00    +0.000 OA
ATOM     10  H   UNL     1       4.664   5.973  15.175  0.00  0.00    +0.000 HD
BRANCH   8  11
ATOM     11  C   UNL     1       6.679   4.680  14.266  0.00  0.00    +0.000 A 
ATOM     12  C   UNL     1       6.023   3.696  13.516  0.00  0.00    +0.000 A 
ATOM     13  C   UNL     1       6.370   3.492  12.180  0.00  0.00    +0.000 A 
ATOM     14  C   UNL     1       7.365   4.275  11.591  0.00  0.00    +0.000 A 
ATOM     15  C   UNL     1       7.999   5.275  12.331  0.00  0.00    +0.000 A 
ATOM     16  C   UNL     1       7.653   5.484  13.665  0.00  0.00    +0.000 A 
ENDBRANCH   8  11
ENDBRANCH   5   7
BRANCH   6  17
ATOM     17  O   UNL     1       3.788   3.895  16.767  0.00  0.00    +0.000 OA
ATOM     18  H   UNL     1       4.513   4.056  16.139  0.00  0.00    +0.000 HD
ENDBRANCH   6  17
BRANCH   1  19
ATOM     19  C   UNL     1       1.245   3.304  18.150  0.00  0.00    +0.000 C 
BRANCH  19  20
ATOM     20  C   UNL     1       0.590   2.597  19.335  0.00  0.00    +0.000 C 
BRANCH  20  21
ATOM     21  C   UNL     1       0.969   3.271  20.651  0.00  0.00    +0.000 C 
BRANCH  21  22
ATOM     22  C   UNL     1       2.255   2.710  21.204  0.00  0.00    +0.000 C 
ATOM     23  O   UNL     1       2.621   2.804  22.367  0.00  0.00    +0.000 OA
BRANCH  22  25
ATOM     24  C   UNL     1       4.356   2.301  20.276  0.00  0.00    +0.000 C 
ATOM     25  O   UNL     1       2.947   2.081  20.213  0.00  0.00    +0.000 OA
ENDBRANCH  22  25
ENDBRANCH  21  22
ENDBRANCH  20  21
ENDBRANCH  19  20
ENDBRANCH   1  19
TORSDOF 8
ENDMDL
MODEL 2
REMARK VINA RESULT:      -7.0      4.305      8.374
REMARK  Name = 
REMARK  9 active torsions:
REMARK  status: ('A' for Active; 'I' for Inactive)
REMARK    1  A    between atoms: C_1  and  O_2
REMARK    2  A    between atoms: O_2  and  C_3
REMARK    3  A    between atoms: C_3  and  C_5
REMARK    4  A    between atoms: C_5  and  C_6
REMARK    5  A    between atoms: C_6  and  C_7
REMARK    6  A    between atoms: C_7  and  C_8
REMARK    7  A    between atoms: C_12  and  N_13
REMARK    8  A    between atoms: C_14  and  C_16
REMARK    9  A    between atoms: C_22  and  O_23
REMARK                            x       y       z     vdW  Elec       q    Type
REMARK                         _______ _______ _______ _____ _____    ______ ____
ROOT
ATOM      1  C   UNL     1       7.603   7.392  16.937  0.00  0.00    +0.000 C 
ATOM      2  C   UNL     1       7.101   6.153  16.797  0.00  0.00    +0.000 C 
ATOM      3  S   UNL     1       6.508   5.629  15.246  0.00  0.00    +0.000 S 
ATOM      4  C   UNL     1       5.259   4.551  15.999  0.00  0.00    +0.000 C 
ATOM      5  C   UNL     1       5.803   4.102  17.364  0.00  0.00    +0.000 C 
ATOM      6  C   UNL     1       6.878   5.111  17.865  0.00  0.00    +0.000 C 
ENDROOT
BRANCH   5   7
ATOM      7  N   UNL     1       4.732   3.954  18.355  0.00  0.00    +0.000 N 
ATOM      8  C   UNL     1       3.844   2.906  18.330  0.00  0.00    +0.000 C 
ATOM      9  O   UNL     1       3.849   2.039  17.467  0.00  0.00    +0.000 OA
ATOM     10  H   UNL     1       4.878   4.445  19.234  0.00  0.00    +0.000 HD
BRANCH   8  11
ATOM     11  C   UNL     1       2.874   2.867  19.454  0.00  0.00    +0.000 A 
ATOM     12  C   UNL     1       1.515   3.146  19.256  0.00  0.00    +0.000 A 
ATOM     13  C   UNL     1       0.634   3.121  20.338  0.00  0.00    +0.000 A 
ATOM     14  C   UNL     1       1.107   2.812  21.614  0.00  0.00    +0.000 A 
ATOM     15  C   UNL     1       2.456   2.508  21.808  0.00  0.00    +0.000 A 
ATOM     16  C   UNL     1       3.339   2.527  20.729  0.00  0.00    +0.000 A 
ENDBRANCH   8  11
ENDBRANCH   5   7
BRANCH   6  17
ATOM     17  O   UNL     1       6.462   5.688  19.110  0.00  0.00    +0.000 OA
ATOM     18  H   UNL     1       5.617   6.133  18.927  0.00  0.00    +0.000 HD
ENDBRANCH   6  17
BRANCH   1  19
ATOM     19  C   UNL     1       8.103   7.980  18.226  0.00  0.00    +0.000 C 
BRANCH  19  20
ATOM     20  C   UNL     1       8.425   9.468  18.094  0.00  0.00    +0.000 C 
BRANCH  20  21
ATOM     21  C   UNL     1       9.283   9.946  19.262  0.00  0.00    +0.000 C 
BRANCH  21  22
ATOM     22  C   UNL     1      10.008  11.225  18.923  0.00  0.00    +0.000 C 
ATOM     23  O   UNL     1      11.056  11.596  19.431  0.00  0.00    +0.000 OA
BRANCH  22  25
ATOM     24  C   UNL     1       9.816  13.221  17.732  0.00  0.00    +0.000 C 
ATOM     25  O   UNL     1       9.320  11.903  17.962  0.00  0.00    +0.000 OA
ENDBRANCH  22  25
ENDBRANCH  21  22
ENDBRANCH  20  21
ENDBRANCH  19  20
ENDBRANCH   1  19
TORSDOF 8
ENDMDL
MODEL 3
REMARK VINA RESULT:      -6.9      4.142      7.403
REMARK  Name = 
REMARK  9 active torsions:
REMARK  status: ('A' for Active; 'I' for Inactive)
REMARK    1  A    between atoms: C_1  and  O_2
REMARK    2  A    between atoms: O_2  and  C_3
REMARK    3  A    between atoms: C_3  and  C_5
REMARK    4  A    between atoms: C_5  and  C_6
REMARK    5  A    between atoms: C_6  and  C_7
REMARK    6  A    between atoms: C_7  and  C_8
REMARK    7  A    between atoms: C_12  and  N_13
REMARK    8  A    between atoms: C_14  and  C_16
REMARK    9  A    between atoms: C_22  and  O_23
REMARK                            x       y       z     vdW  Elec       q    Type
REMARK                         _______ _______ _______ _____ _____    ______ ____
ROOT
ATOM      1  C   UNL     1       4.836   4.524  18.469  0.00  0.00    +0.000 C 
ATOM      2  C   UNL     1       4.082   5.551  18.038  0.00  0.00    +0.000 C 
ATOM      3  S   UNL     1       4.788   6.779  17.025  0.00  0.00    +0.000 S 
ATOM      4  C   UNL     1       3.696   8.066  17.689  0.00  0.00    +0.000 C 
ATOM      5  C   UNL     1       2.392   7.380  18.125  0.00  0.00    +0.000 C 
ATOM      6  C   UNL     1       2.649   5.868  18.390  0.00  0.00    +0.000 C 
ENDROOT
BRANCH   5   7
ATOM      7  N   UNL     1       1.810   8.020  19.311  0.00  0.00    +0.000 N 
ATOM      8  C   UNL     1       1.068   9.173  19.237  0.00  0.00    +0.000 C 
ATOM      9  O   UNL     1       0.863   9.778  18.192  0.00  0.00    +0.000 OA
ATOM     10  H   UNL     1       1.687   7.414  20.118  0.00  0.00    +0.000 HD
BRANCH   8  11
ATOM     11  C   UNL     1       0.488   9.641  20.522  0.00  0.00    +0.000 A 
ATOM     12  C   UNL     1      -0.382  10.738  20.574  0.00  0.00    +0.000 A 
ATOM     13  C   UNL     1      -0.891  11.164  21.801  0.00  0.00    +0.000 A 
ATOM     14  C   UNL     1      -0.539  10.493  22.973  0.00  0.00    +0.000 A 
ATOM     15  C   UNL     1       0.306   9.383  22.919  0.00  0.00    +0.000 A 
ATOM     16  C   UNL     1       0.814   8.951  21.695  0.00  0.00    +0.000 A 
ENDBRANCH   8  11
ENDBRANCH   5   7
BRANCH   6  17
ATOM     17  O   UNL     1       2.340   5.552  19.753  0.00  0.00    +0.000 OA
ATOM     18  H   UNL     1       2.733   6.265  20.286  0.00  0.00    +0.000 HD
ENDBRANCH   6  17
BRANCH   1  19
ATOM     19  C   UNL     1       4.361   3.429  19.381  0.00  0.00    +0.000 C 
BRANCH  19  20
ATOM     20  C   UNL     1       3.593   2.345  18.627  0.00  0.00    +0.000 C 
BRANCH  20  21
ATOM     21  C   UNL     1       2.474   1.768  19.490  0.00  0.00    +0.000 C 
BRANCH  21  22
ATOM     22  C   UNL     1       1.187   2.533  19.303  0.00  0.00    +0.000 C 
ATOM     23  O   UNL     1       0.534   2.570  18.271  0.00  0.00    +0.000 OA
BRANCH  22  25
ATOM     24  C   UNL     1       1.474   2.606  21.617  0.00  0.00    +0.000 C 
ATOM     25  O   UNL     1       0.862   3.175  20.460  0.00  0.00    +0.000 OA
ENDBRANCH  22  25
ENDBRANCH  21  22
ENDBRANCH  20  21
ENDBRANCH  19  20
ENDBRANCH   1  19
TORSDOF 8
ENDMDL
MODEL 4
REMARK VINA RESULT:      -6.8      1.684      2.176
REMARK  Name = 
REMARK  9 active torsions:
REMARK  status: ('A' for Active; 'I' for Inactive)
REMARK    1  A    between atoms: C_1  and  O_2
REMARK    2  A    between atoms: O_2  and  C_3
REMARK    3  A    between atoms: C_3  and  C_5
REMARK    4  A    between atoms: C_5  and  C_6
REMARK    5  A    between atoms: C_6  and  C_7
REMARK    6  A    between atoms: C_7  and  C_8
REMARK    7  A    between atoms: C_12  and  N_13
REMARK    8  A    between atoms: C_14  and  C_16
REMARK    9  A    between atoms: C_22  and  O_23
REMARK                            x       y       z     vdW  Elec       q    Type
REMARK                         _______ _______ _______ _____ _____    ______ ____
ROOT
ATOM      1  C   UNL     1       1.928   5.041  20.801  0.00  0.00    +0.000 C 
ATOM      2  C   UNL     1       2.675   5.876  20.057  0.00  0.00    +0.000 C 
ATOM      3  S   UNL     1       2.070   7.460  19.662  0.00  0.00    +0.000 S 
ATOM      4  C   UNL     1       2.949   7.486  18.075  0.00  0.00    +0.000 C 
ATOM      5  C   UNL     1       4.204   6.613  18.231  0.00  0.00    +0.000 C 
ATOM      6  C   UNL     1       4.005   5.601  19.398  0.00  0.00    +0.000 C 
ENDROOT
BRANCH   5   7
ATOM      7  N   UNL     1       4.535   5.908  16.988  0.00  0.00    +0.000 N 
ATOM      8  C   UNL     1       5.683   6.165  16.279  0.00  0.00    +0.000 C 
ATOM      9  O   UNL     1       6.498   7.019  16.601  0.00  0.00    +0.000 OA
ATOM     10  H   UNL     1       4.074   5.011  16.858  0.00  0.00    +0.000 HD
BRANCH   8  11
ATOM     11  C   UNL     1       5.900   5.305  15.087  0.00  0.00    +0.000 A 
ATOM     12  C   UNL     1       4.856   4.560  14.524  0.00  0.00    +0.000 A 
ATOM     13  C   UNL     1       5.100   3.745  13.417  0.00  0.00    +0.000 A 
ATOM     14  C   UNL     1       6.382   3.681  12.869  0.00  0.00    +0.000 A 
ATOM     15  C   UNL     1       7.417   4.444  13.413  0.00  0.00    +0.000 A 
ATOM     16  C   UNL     1       7.177   5.262  14.516  0.00  0.00    +0.000 A 
ENDBRANCH   8  11
ENDBRANCH   5   7
BRANCH   6  17
ATOM     17  O   UNL     1       4.100   4.260  18.902  0.00  0.00    +0.000 OA
ATOM     18  H   UNL     1       3.486   4.211  18.150  0.00  0.00    +0.000 HD
ENDBRANCH   6  17
BRANCH   1  19
ATOM     19  C   UNL     1       2.314   3.637  21.171  0.00  0.00    +0.000 C 
BRANCH  19  20
ATOM     20  C   UNL     1       1.302   2.610  20.668  0.00  0.00    +0.000 C 
BRANCH  20  21
ATOM     21  C   UNL     1       0.788   2.984  19.280  0.00  0.00    +0.000 C 
BRANCH  21  22
ATOM     22  C   UNL     1       1.762   2.572  18.205  0.00  0.00    +0.000 C 
ATOM     23  O   UNL     1       1.950   3.174  17.157  0.00  0.00    +0.000 OA
BRANCH  22  25
ATOM     24  C   UNL     1       3.751   1.358  18.116  0.00  0.00    +0.000 C 
ATOM     25  O   UNL     1       2.402   1.429  18.577  0.00  0.00    +0.000 OA
ENDBRANCH  22  25
ENDBRANCH  21  22
ENDBRANCH  20  21
ENDBRANCH  19  20
ENDBRANCH   1  19
TORSDOF 8
ENDMDL
MODEL 5
REMARK VINA RESULT:      -6.8      3.954      7.193
REMARK  Name = 
REMARK  9 active torsions:
REMARK  status: ('A' for Active; 'I' for Inactive)
REMARK    1  A    between atoms: C_1  and  O_2
REMARK    2  A    between atoms: O_2  and  C_3
REMARK    3  A    between atoms: C_3  and  C_5
REMARK    4  A    between atoms: C_5  and  C_6
REMARK    5  A    between atoms: C_6  and  C_7
REMARK    6  A    between atoms: C_7  and  C_8
REMARK    7  A    between atoms: C_12  and  N_13
REMARK    8  A    between atoms: C_14  and  C_16
REMARK    9  A    between atoms: C_22  and  O_23
REMARK                            x       y       z     vdW  Elec       q    Type
REMARK                         _______ _______ _______ _____ _____    ______ ____
ROOT
ATOM      1  C   UNL     1       4.978   4.195  18.393  0.00  0.00    +0.000 C 
ATOM      2  C   UNL     1       4.279   5.250  17.940  0.00  0.00    +0.000 C 
ATOM      3  S   UNL     1       5.055   6.431  16.922  0.00  0.00    +0.000 S 
ATOM      4  C   UNL     1       4.016   7.776  17.556  0.00  0.00    +0.000 C 
ATOM      5  C   UNL     1       2.676   7.158  17.983  0.00  0.00    +0.000 C 
ATOM      6  C   UNL     1       2.858   5.638  18.269  0.00  0.00    +0.000 C 
ENDROOT
BRANCH   5   7
ATOM      7  N   UNL     1       2.110   7.839  19.153  0.00  0.00    +0.000 N 
ATOM      8  C   UNL     1       1.288   8.934  19.043  0.00  0.00    +0.000 C 
ATOM      9  O   UNL     1       0.991   9.450  17.973  0.00  0.00    +0.000 OA
ATOM     10  H   UNL     1       2.068   7.284  20.004  0.00  0.00    +0.000 HD
BRANCH   8  11
ATOM     11  C   UNL     1       0.740   9.450  20.323  0.00  0.00    +0.000 A 
ATOM     12  C   UNL     1       1.081   8.868  21.551  0.00  0.00    +0.000 A 
ATOM     13  C   UNL     1       0.531   9.364  22.734  0.00  0.00    +0.000 A 
ATOM     14  C   UNL     1      -0.351  10.445  22.692  0.00  0.00    +0.000 A 
ATOM     15  C   UNL     1      -0.670  11.043  21.471  0.00  0.00    +0.000 A 
ATOM     16  C   UNL     1      -0.120  10.553  20.288  0.00  0.00    +0.000 A 
ENDBRANCH   8  11
ENDBRANCH   5   7
BRANCH   6  17
ATOM     17  O   UNL     1       2.518   5.355  19.632  0.00  0.00    +0.000 OA
ATOM     18  H   UNL     1       2.956   4.513  19.845  0.00  0.00    +0.000 HD
ENDBRANCH   6  17
BRANCH   1  19
ATOM     19  C   UNL     1       4.441   3.135  19.312  0.00  0.00    +0.000 C 
BRANCH  19  20
ATOM     20  C   UNL     1       3.587   2.108  18.569  0.00  0.00    +0.000 C 
BRANCH  20  21
ATOM     21  C   UNL     1       2.376   1.700  19.403  0.00  0.00    +0.000 C 
BRANCH  21  22
ATOM     22  C   UNL     1       1.215   2.637  19.180  0.00  0.00    +0.000 C 
ATOM     23  O   UNL     1       0.806   3.003  18.087  0.00  0.00    +0.000 OA
BRANCH  22  25
ATOM     24  C   UNL     1       1.475   2.600  21.497  0.00  0.00    +0.000 C 
ATOM     25  O   UNL     1       0.689   3.013  20.379  0.00  0.00    +0.000 OA
ENDBRANCH  22  25
ENDBRANCH  21  22
ENDBRANCH  20  21
ENDBRANCH  19  20
ENDBRANCH   1  19
TORSDOF 8
ENDMDL
MODEL 6
REMARK VINA RESULT:      -6.8      1.685      2.479
REMARK  Name = 
REMARK  9 active torsions:
REMARK  status: ('A' for Active; 'I' for Inactive)
REMARK    1  A    between atoms: C_1  and  O_2
REMARK    2  A    between atoms: O_2  and  C_3
REMARK    3  A    between atoms: C_3  and  C_5
REMARK    4  A    between atoms: C_5  and  C_6
REMARK    5  A    between atoms: C_6  and  C_7
REMARK    6  A    between atoms: C_7  and  C_8
REMARK    7  A    between atoms: C_12  and  N_13
REMARK    8  A    between atoms: C_14  and  C_16
REMARK    9  A    between atoms: C_22  and  O_23
REMARK                            x       y       z     vdW  Elec       q    Type
REMARK                         _______ _______ _______ _____ _____    ______ ____
ROOT
ATOM      1  C   UNL     1       2.175   5.107  20.618  0.00  0.00    +0.000 C 
ATOM      2  C   UNL     1       2.907   5.941  19.860  0.00  0.00    +0.000 C 
ATOM      3  S   UNL     1       2.293   7.523  19.471  0.00  0.00    +0.000 S 
ATOM      4  C   UNL     1       3.143   7.547  17.870  0.00  0.00    +0.000 C 
ATOM      5  C   UNL     1       4.402   6.676  18.005  0.00  0.00    +0.000 C 
ATOM      6  C   UNL     1       4.225   5.667  19.178  0.00  0.00    +0.000 C 
ENDROOT
BRANCH   5   7
ATOM      7  N   UNL     1       4.712   5.968  16.758  0.00  0.00    +0.000 N 
ATOM      8  C   UNL     1       5.941   6.052  16.150  0.00  0.00    +0.000 C 
ATOM      9  O   UNL     1       6.857   6.745  16.572  0.00  0.00    +0.000 OA
ATOM     10  H   UNL     1       4.122   5.167  16.552  0.00  0.00    +0.000 HD
BRANCH   8  11
ATOM     11  C   UNL     1       6.110   5.210  14.938  0.00  0.00    +0.000 A 
ATOM     12  C   UNL     1       7.279   5.265  14.168  0.00  0.00    +0.000 A 
ATOM     13  C   UNL     1       7.396   4.476  13.023  0.00  0.00    +0.000 A 
ATOM     14  C   UNL     1       6.351   3.628  12.651  0.00  0.00    +0.000 A 
ATOM     15  C   UNL     1       5.197   3.553  13.433  0.00  0.00    +0.000 A 
ATOM     16  C   UNL     1       5.077   4.336  14.580  0.00  0.00    +0.000 A 
ENDBRANCH   8  11
ENDBRANCH   5   7
BRANCH   6  17
ATOM     17  O   UNL     1       4.314   4.325  18.683  0.00  0.00    +0.000 OA
ATOM     18  H   UNL     1       3.753   4.297  17.890  0.00  0.00    +0.000 HD
ENDBRANCH   6  17
BRANCH   1  19
ATOM     19  C   UNL     1       2.569   3.705  20.986  0.00  0.00    +0.000 C 
BRANCH  19  20
ATOM     20  C   UNL     1       1.465   2.696  20.676  0.00  0.00    +0.000 C 
BRANCH  20  21
ATOM     21  C   UNL     1       1.943   1.654  19.668  0.00  0.00    +0.000 C 
BRANCH  21  22
ATOM     22  C   UNL     1       1.999   2.226  18.273  0.00  0.00    +0.000 C 
ATOM     23  O   UNL     1       2.892   2.019  17.463  0.00  0.00    +0.000 OA
BRANCH  22  25
ATOM     24  C   UNL     1       1.197   4.201  17.327  0.00  0.00    +0.000 C 
ATOM     25  O   UNL     1       0.905   3.006  18.051  0.00  0.00    +0.000 OA
ENDBRANCH  22  25
ENDBRANCH  21  22
ENDBRANCH  20  21
ENDBRANCH  19  20
ENDBRANCH   1  19
TORSDOF 8
ENDMDL
MODEL 7
REMARK VINA RESULT:      -6.7      1.692      2.273
REMARK  Name = 
REMARK  9 active torsions:
REMARK  status: ('A' for Active; 'I' for Inactive)
REMARK    1  A    between atoms: C_1  and  O_2
REMARK    2  A    between atoms: O_2  and  C_3
REMARK    3  A    between atoms: C_3  and  C_5
REMARK    4  A    between atoms: C_5  and  C_6
REMARK    5  A    between atoms: C_6  and  C_7
REMARK    6  A    between atoms: C_7  and  C_8
REMARK    7  A    between atoms: C_12  and  N_13
REMARK    8  A    between atoms: C_14  and  C_16
REMARK    9  A    between atoms: C_22  and  O_23
REMARK                            x       y       z     vdW  Elec       q    Type
REMARK                         _______ _______ _______ _____ _____    ______ ____
ROOT
ATOM      1  C   UNL     1       2.068   5.254  20.571  0.00  0.00    +0.000 C 
ATOM      2  C   UNL     1       2.802   6.080  19.805  0.00  0.00    +0.000 C 
ATOM      3  S   UNL     1       2.188   7.656  19.393  0.00  0.00    +0.000 S 
ATOM      4  C   UNL     1       3.046   7.660  17.796  0.00  0.00    +0.000 C 
ATOM      5  C   UNL     1       4.305   6.793  17.949  0.00  0.00    +0.000 C 
ATOM      6  C   UNL     1       4.124   5.799  19.134  0.00  0.00    +0.000 C 
ENDROOT
BRANCH   5   7
ATOM      7  N   UNL     1       4.623   6.070  16.713  0.00  0.00    +0.000 N 
ATOM      8  C   UNL     1       5.875   6.091  16.148  0.00  0.00    +0.000 C 
ATOM      9  O   UNL     1       6.810   6.737  16.603  0.00  0.00    +0.000 OA
ATOM     10  H   UNL     1       4.001   5.299  16.485  0.00  0.00    +0.000 HD
BRANCH   8  11
ATOM     11  C   UNL     1       6.044   5.240  14.942  0.00  0.00    +0.000 A 
ATOM     12  C   UNL     1       5.028   4.377  14.510  0.00  0.00    +0.000 A 
ATOM     13  C   UNL     1       5.228   3.575  13.385  0.00  0.00    +0.000 A 
ATOM     14  C   UNL     1       6.436   3.641  12.688  0.00  0.00    +0.000 A 
ATOM     15  C   UNL     1       7.438   4.521  13.102  0.00  0.00    +0.000 A 
ATOM     16  C   UNL     1       7.241   5.326  14.223  0.00  0.00    +0.000 A 
ENDBRANCH   8  11
ENDBRANCH   5   7
BRANCH   6  17
ATOM     17  O   UNL     1       4.218   4.450  18.657  0.00  0.00    +0.000 OA
ATOM     18  H   UNL     1       4.279   4.515  17.689  0.00  0.00    +0.000 HD
ENDBRANCH   6  17
BRANCH   1  19
ATOM     19  C   UNL     1       2.462   3.857  20.959  0.00  0.00    +0.000 C 
BRANCH  19  20
ATOM     20  C   UNL     1       1.334   2.854  20.723  0.00  0.00    +0.000 C 
BRANCH  20  21
ATOM     21  C   UNL     1       1.774   1.755  19.760  0.00  0.00    +0.000 C 
BRANCH  21  22
ATOM     22  C   UNL     1       1.899   2.278  18.351  0.00  0.00    +0.000 C 
ATOM     23  O   UNL     1       2.812   2.015  17.581  0.00  0.00    +0.000 OA
BRANCH  22  25
ATOM     24  C   UNL     1       1.195   4.234  17.293  0.00  0.00    +0.000 C 
ATOM     25  O   UNL     1       0.841   3.086  18.064  0.00  0.00    +0.000 OA
ENDBRANCH  22  25
ENDBRANCH  21  22
ENDBRANCH  20  21
ENDBRANCH  19  20
ENDBRANCH   1  19
TORSDOF 8
ENDMDL
MODEL 8
REMARK VINA RESULT:      -6.7      4.304      8.263
REMARK  Name = 
REMARK  9 active torsions:
REMARK  status: ('A' for Active; 'I' for Inactive)
REMARK    1  A    between atoms: C_1  and  O_2
REMARK    2  A    between atoms: O_2  and  C_3
REMARK    3  A    between atoms: C_3  and  C_5
REMARK    4  A    between atoms: C_5  and  C_6
REMARK    5  A    between atoms: C_6  and  C_7
REMARK    6  A    between atoms: C_7  and  C_8
REMARK    7  A    between atoms: C_12  and  N_13
REMARK    8  A    between atoms: C_14  and  C_16
REMARK    9  A    between atoms: C_22  and  O_23
REMARK                            x       y       z     vdW  Elec       q    Type
REMARK                         _______ _______ _______ _____ _____    ______ ____
ROOT
ATOM      1  C   UNL     1       7.553   7.406  16.992  0.00  0.00    +0.000 C 
ATOM      2  C   UNL     1       7.205   6.116  16.842  0.00  0.00    +0.000 C 
ATOM      3  S   UNL     1       6.646   5.544  15.296  0.00  0.00    +0.000 S 
ATOM      4  C   UNL     1       5.558   4.309  16.057  0.00  0.00    +0.000 C 
ATOM      5  C   UNL     1       6.186   3.912  17.402  0.00  0.00    +0.000 C 
ATOM      6  C   UNL     1       7.139   5.040  17.897  0.00  0.00    +0.000 C 
ENDROOT
BRANCH   5   7
ATOM      7  N   UNL     1       5.166   3.617  18.415  0.00  0.00    +0.000 N 
ATOM      8  C   UNL     1       3.959   4.271  18.457  0.00  0.00    +0.000 C 
ATOM      9  O   UNL     1       3.652   5.170  17.685  0.00  0.00    +0.000 OA
ATOM     10  H   UNL     1       5.239   2.704  18.856  0.00  0.00    +0.000 HD
BRANCH   8  11
ATOM     11  C   UNL     1       3.012   3.794  19.497  0.00  0.00    +0.000 A 
ATOM     12  C   UNL     1       3.450   3.029  20.586  0.00  0.00    +0.000 A 
ATOM     13  C   UNL     1       2.530   2.578  21.535  0.00  0.00    +0.000 A 
ATOM     14  C   UNL     1       1.177   2.897  21.400  0.00  0.00    +0.000 A 
ATOM     15  C   UNL     1       0.745   3.682  20.330  0.00  0.00    +0.000 A 
ATOM     16  C   UNL     1       1.661   4.138  19.382  0.00  0.00    +0.000 A 
ENDBRANCH   8  11
ENDBRANCH   5   7
BRANCH   6  17
ATOM     17  O   UNL     1       6.684   5.542  19.160  0.00  0.00    +0.000 OA
ATOM     18  H   UNL     1       6.721   6.511  19.089  0.00  0.00    +0.000 HD
ENDBRANCH   6  17
BRANCH   1  19
ATOM     19  C   UNL     1       8.006   8.033  18.280  0.00  0.00    +0.000 C 
BRANCH  19  20
ATOM     20  C   UNL     1       8.420   9.492  18.095  0.00  0.00    +0.000 C 
BRANCH  20  21
ATOM     21  C   UNL     1       9.232   9.985  19.291  0.00  0.00    +0.000 C 
BRANCH  21  22
ATOM     22  C   UNL     1       9.360  11.488  19.285  0.00  0.00    +0.000 C 
ATOM     23  O   UNL     1       9.566  12.180  20.272  0.00  0.00    +0.000 OA
BRANCH  22  25
ATOM     24  C   UNL     1      10.297  12.781  17.586  0.00  0.00    +0.000 C 
ATOM     25  O   UNL     1       9.213  11.957  18.015  0.00  0.00    +0.000 OA
ENDBRANCH  22  25
ENDBRANCH  21  22
ENDBRANCH  20  21
ENDBRANCH  19  20
ENDBRANCH   1  19
TORSDOF 8
ENDMDL
MODEL 9
REMARK VINA RESULT:      -6.7      3.250      7.742
REMARK  Name = 
REMARK  9 active torsions:
REMARK  status: ('A' for Active; 'I' for Inactive)
REMARK    1  A    between atoms: C_1  and  O_2
REMARK    2  A    between atoms: O_2  and  C_3
REMARK    3  A    between atoms: C_3  and  C_5
REMARK    4  A    between atoms: C_5  and  C_6
REMARK    5  A    between atoms: C_6  and  C_7
REMARK    6  A    between atoms: C_7  and  C_8
REMARK    7  A    between atoms: C_12  and  N_13
REMARK    8  A    between atoms: C_14  and  C_16
REMARK    9  A    between atoms: C_22  and  O_23
REMARK                            x       y       z     vdW  Elec       q    Type
REMARK                         _______ _______ _______ _____ _____    ______ ____
ROOT
ATOM      1  C   UNL     1       5.315   3.865  16.350  0.00  0.00    +0.000 C 
ATOM      2  C   UNL     1       4.764   3.803  17.575  0.00  0.00    +0.000 C 
ATOM      3  S   UNL     1       3.578   2.579  17.931  0.00  0.00    +0.000 S 
ATOM      4  C   UNL     1       2.713   3.648  19.113  0.00  0.00    +0.000 C 
ATOM      5  C   UNL     1       3.752   4.614  19.704  0.00  0.00    +0.000 C 
ATOM      6  C   UNL     1       4.965   4.745  18.737  0.00  0.00    +0.000 C 
ENDROOT
BRANCH   5   7
ATOM      7  N   UNL     1       3.173   5.932  19.987  0.00  0.00    +0.000 N 
ATOM      8  C   UNL     1       2.410   6.614  19.071  0.00  0.00    +0.000 C 
ATOM      9  O   UNL     1       2.181   6.200  17.942  0.00  0.00    +0.000 OA
ATOM     10  H   UNL     1       3.071   6.162  20.972  0.00  0.00    +0.000 HD
BRANCH   8  11
ATOM     11  C   UNL     1       1.837   7.898  19.549  0.00  0.00    +0.000 A 
ATOM     12  C   UNL     1       1.467   8.078  20.888  0.00  0.00    +0.000 A 
ATOM     13  C   UNL     1       0.912   9.291  21.300  0.00  0.00    +0.000 A 
ATOM     14  C   UNL     1       0.732  10.323  20.378  0.00  0.00    +0.000 A 
ATOM     15  C   UNL     1       1.126  10.153  19.049  0.00  0.00    +0.000 A 
ATOM     16  C   UNL     1       1.685   8.946  18.635  0.00  0.00    +0.000 A 
ENDBRANCH   8  11
ENDBRANCH   5   7
BRANCH   6  17
ATOM     17  O   UNL     1       5.108   6.107  18.316  0.00  0.00    +0.000 OA
ATOM     18  H   UNL     1       4.547   6.200  17.527  0.00  0.00    +0.000 HD
ENDBRANCH   6  17
BRANCH   1  19
ATOM     19  C   UNL     1       6.311   4.896  15.904  0.00  0.00    +0.000 C 
BRANCH  19  20
ATOM     20  C   UNL     1       6.538   4.862  14.394  0.00  0.00    +0.000 C 
BRANCH  20  21
ATOM     21  C   UNL     1       6.098   3.525  13.805  0.00  0.00    +0.000 C 
BRANCH  21  22
ATOM     22  C   UNL     1       6.340   3.474  12.317  0.00  0.00    +0.000 C 
ATOM     23  O   UNL     1       7.194   4.114  11.721  0.00  0.00    +0.000 OA
BRANCH  22  25
ATOM     24  C   UNL     1       4.227   3.209  11.366  0.00  0.00    +0.000 C 
ATOM     25  O   UNL     1       5.465   2.605  11.738  0.00  0.00    +0.000 OA
ENDBRANCH  22  25
ENDBRANCH  21  22
ENDBRANCH  20  21
ENDBRANCH  19  20
ENDBRANCH   1  19
TORSDOF 8
ENDMDL
