MODEL 1
REMARK VINA RESULT:      -8.0      0.000      0.000
REMARK  Name = 
REMARK  9 active torsions:
REMARK  status: ('A' for Active; 'I' for Inactive)
REMARK    1  A    between atoms: C_1  and  O_2
REMARK    2  A    between atoms: O_2  and  C_3
REMARK    3  A    between atoms: C_6  and  N_7
REMARK    4  A    between atoms: C_8  and  C_10
REMARK    5  A    between atoms: C_10  and  N_11
REMARK    6  A    between atoms: C_12  and  C_13
REMARK    7  A    between atoms: C_16  and  C_17
REMARK    8  A    between atoms: C_19  and  C_20
REMARK    9  A    between atoms: C_23  and  C_24
REMARK                            x       y       z     vdW  Elec       q    Type
REMARK                         _______ _______ _______ _____ _____    ______ ____
ROOT
ATOM      1  C   UNL     1       1.044   9.891  19.031  0.00  0.00    +0.000 A 
ATOM      2  C   UNL     1       1.803   9.298  18.011  0.00  0.00    +0.000 A 
ATOM      3  C   UNL     1       2.451   8.077  18.210  0.00  0.00    +0.000 A 
ATOM      4  C   UNL     1       2.320   7.414  19.424  0.00  0.00    +0.000 A 
ATOM      5  C   UNL     1       1.551   7.985  20.437  0.00  0.00    +0.000 A 
ATOM      6  C   UNL     1       0.951   9.253  20.287  0.00  0.00    +0.000 A 
ENDROOT
BRANCH   6   7
ATOM      7  C   UNL     1       0.319   9.818  21.480  0.00  0.00    +0.000 A 
ATOM      8  N   UNL     1       0.703   9.708  22.740  0.00  0.00    +0.000 NA
ATOM      9  N   UNL     1      -0.155  10.482  23.489  0.00  0.00    +0.000 NA
ATOM     10  C   UNL     1      -1.003  11.014  22.637  0.00  0.00    +0.000 A 
ATOM     11  C   UNL     1      -2.126  11.931  22.886  0.00  0.00    +0.000 C 
ATOM     12  O   UNL     1      -0.769  10.641  21.342  0.00  0.00    +0.000 OA
ENDBRANCH   6   7
BRANCH   4  13
ATOM     13  N   UNL     1       2.925   6.171  19.679  0.00  0.00    +0.000 N 
ATOM     14  C   UNL     1       4.151   5.793  19.151  0.00  0.00    +0.000 C 
ATOM     15  O   UNL     1       4.855   6.505  18.437  0.00  0.00    +0.000 OA
ATOM     16  H   UNL     1       2.657   5.713  20.540  0.00  0.00    +0.000 HD
BRANCH  14  17
ATOM     17  C   UNL     1       4.567   4.379  19.512  0.00  0.00    +0.000 C 
BRANCH  17  18
ATOM     18  N   UNL     1       3.614   3.368  19.074  0.00  0.00    +0.000 N 
ATOM     19  C   UNL     1       2.682   2.720  19.874  0.00  0.00    +0.000 A 
ATOM     20  C   UNL     1       2.464   2.946  21.330  0.00  0.00    +0.000 C 
ATOM     21  C   UNL     1       1.992   1.831  19.066  0.00  0.00    +0.000 A 
ATOM     22  C   UNL     1       2.468   1.978  17.750  0.00  0.00    +0.000 A 
ATOM     23  C   UNL     1       3.453   2.949  17.759  0.00  0.00    +0.000 A 
ATOM     24  C   UNL     1       4.228   3.487  16.616  0.00  0.00    +0.000 C 
ENDBRANCH  17  18
ENDBRANCH  14  17
ENDBRANCH   4  13
BRANCH   1  26
ATOM     25  C   UNL     1       1.254  12.245  18.842  0.00  0.00    +0.000 C 
ATOM     26  O   UNL     1       0.411  11.097  18.863  0.00  0.00    +0.000 OA
ENDBRANCH   1  26
TORSDOF 5
ENDMDL
MODEL 2
REMARK VINA RESULT:      -7.9      1.356      2.212
REMARK  Name = 
REMARK  9 active torsions:
REMARK  status: ('A' for Active; 'I' for Inactive)
REMARK    1  A    between atoms: C_1  and  O_2
REMARK    2  A    between atoms: O_2  and  C_3
REMARK    3  A    between atoms: C_6  and  N_7
REMARK    4  A    between atoms: C_8  and  C_10
REMARK    5  A    between atoms: C_10  and  N_11
REMARK    6  A    between atoms: C_12  and  C_13
REMARK    7  A    between atoms: C_16  and  C_17
REMARK    8  A    between atoms: C_19  and  C_20
REMARK    9  A    between atoms: C_23  and  C_24
REMARK                            x       y       z     vdW  Elec       q    Type
REMARK                         _______ _______ _______ _____ _____    ______ ____
ROOT
ATOM      1  C   UNL     1       0.488   9.948  18.960  0.00  0.00    +0.000 A 
ATOM      2  C   UNL     1       1.156   9.530  17.799  0.00  0.00    +0.000 A 
ATOM      3  C   UNL     1       2.074   8.479  17.833  0.00  0.00    +0.000 A 
ATOM      4  C   UNL     1       2.313   7.807  19.026  0.00  0.00    +0.000 A 
ATOM      5  C   UNL     1       1.640   8.201  20.181  0.00  0.00    +0.000 A 
ATOM      6  C   UNL     1       0.766   9.309  20.189  0.00  0.00    +0.000 A 
ENDROOT
BRANCH   6   7
ATOM      7  C   UNL     1       0.258   9.727  21.496  0.00  0.00    +0.000 A 
ATOM      8  N   UNL     1       0.779   9.495  22.688  0.00  0.00    +0.000 NA
ATOM      9  N   UNL     1      -0.006  10.162  23.603  0.00  0.00    +0.000 NA
ATOM     10  C   UNL     1      -0.950  10.757  22.909  0.00  0.00    +0.000 A 
ATOM     11  C   UNL     1      -2.054  11.611  23.373  0.00  0.00    +0.000 C 
ATOM     12  O   UNL     1      -0.852  10.529  21.563  0.00  0.00    +0.000 OA
ENDBRANCH   6   7
BRANCH   4  13
ATOM     13  N   UNL     1       3.206   6.726  19.121  0.00  0.00    +0.000 N 
ATOM     14  C   UNL     1       2.821   5.443  19.485  0.00  0.00    +0.000 C 
ATOM     15  O   UNL     1       1.665   5.102  19.730  0.00  0.00    +0.000 OA
ATOM     16  H   UNL     1       4.046   6.790  18.561  0.00  0.00    +0.000 HD
BRANCH  14  17
ATOM     17  C   UNL     1       3.972   4.460  19.585  0.00  0.00    +0.000 C 
BRANCH  17  18
ATOM     18  N   UNL     1       4.748   4.353  18.357  0.00  0.00    +0.000 N 
ATOM     19  C   UNL     1       6.047   4.807  18.166  0.00  0.00    +0.000 A 
ATOM     20  C   UNL     1       6.904   5.474  19.185  0.00  0.00    +0.000 C 
ATOM     21  C   UNL     1       6.396   4.520  16.857  0.00  0.00    +0.000 A 
ATOM     22  C   UNL     1       5.322   3.833  16.261  0.00  0.00    +0.000 A 
ATOM     23  C   UNL     1       4.318   3.711  17.203  0.00  0.00    +0.000 A 
ATOM     24  C   UNL     1       3.005   3.035  17.070  0.00  0.00    +0.000 C 
ENDBRANCH  17  18
ENDBRANCH  14  17
ENDBRANCH   4  13
BRANCH   1  26
ATOM     25  C   UNL     1       0.134  12.273  18.665  0.00  0.00    +0.000 C 
ATOM     26  O   UNL     1      -0.408  10.987  18.953  0.00  0.00    +0.000 OA
ENDBRANCH   1  26
TORSDOF 5
ENDMDL
MODEL 3
REMARK VINA RESULT:      -7.8      0.702      1.747
REMARK  Name = 
REMARK  9 active torsions:
REMARK  status: ('A' for Active; 'I' for Inactive)
REMARK    1  A    between atoms: C_1  and  O_2
REMARK    2  A    between atoms: O_2  and  C_3
REMARK    3  A    between atoms: C_6  and  N_7
REMARK    4  A    between atoms: C_8  and  C_10
REMARK    5  A    between atoms: C_10  and  N_11
REMARK    6  A    between atoms: C_12  and  C_13
REMARK    7  A    between atoms: C_16  and  C_17
REMARK    8  A    between atoms: C_19  and  C_20
REMARK    9  A    between atoms: C_23  and  C_24
REMARK                            x       y       z     vdW  Elec       q    Type
REMARK                         _______ _______ _______ _____ _____    ______ ____
ROOT
ATOM      1  C   UNL     1       0.717  10.432  18.984  0.00  0.00    +0.000 A 
ATOM      2  C   UNL     1       1.516   9.774  18.037  0.00  0.00    +0.000 A 
ATOM      3  C   UNL     1       2.130   8.555  18.332  0.00  0.00    +0.000 A 
ATOM      4  C   UNL     1       1.925   7.959  19.570  0.00  0.00    +0.000 A 
ATOM      5  C   UNL     1       1.117   8.594  20.511  0.00  0.00    +0.000 A 
ATOM      6  C   UNL     1       0.549   9.862  20.265  0.00  0.00    +0.000 A 
ENDROOT
BRANCH   6   7
ATOM      7  C   UNL     1      -0.133  10.498  21.393  0.00  0.00    +0.000 A 
ATOM      8  N   UNL     1       0.238  10.531  22.661  0.00  0.00    +0.000 NA
ATOM      9  N   UNL     1      -0.675  11.320  23.325  0.00  0.00    +0.000 NA
ATOM     10  C   UNL     1      -1.540  11.718  22.419  0.00  0.00    +0.000 A 
ATOM     11  C   UNL     1      -2.718  12.586  22.568  0.00  0.00    +0.000 C 
ATOM     12  O   UNL     1      -1.265  11.238  21.167  0.00  0.00    +0.000 OA
ENDBRANCH   6   7
BRANCH   4  13
ATOM     13  N   UNL     1       2.494   6.722  19.920  0.00  0.00    +0.000 N 
ATOM     14  C   UNL     1       3.515   6.117  19.201  0.00  0.00    +0.000 C 
ATOM     15  O   UNL     1       4.056   6.604  18.209  0.00  0.00    +0.000 OA
ATOM     16  H   UNL     1       2.428   6.460  20.895  0.00  0.00    +0.000 HD
BRANCH  14  17
ATOM     17  C   UNL     1       3.918   4.754  19.732  0.00  0.00    +0.000 C 
BRANCH  17  18
ATOM     18  N   UNL     1       3.141   3.661  19.161  0.00  0.00    +0.000 N 
ATOM     19  C   UNL     1       3.351   3.064  17.925  0.00  0.00    +0.000 A 
ATOM     20  C   UNL     1       4.422   3.414  16.951  0.00  0.00    +0.000 C 
ATOM     21  C   UNL     1       2.385   2.084  17.771  0.00  0.00    +0.000 A 
ATOM     22  C   UNL     1       1.614   2.043  18.947  0.00  0.00    +0.000 A 
ATOM     23  C   UNL     1       2.105   3.003  19.812  0.00  0.00    +0.000 A 
ATOM     24  C   UNL     1       1.655   3.322  21.189  0.00  0.00    +0.000 C 
ENDBRANCH  17  18
ENDBRANCH  14  17
ENDBRANCH   4  13
BRANCH   1  26
ATOM     25  C   UNL     1       0.981  12.767  18.672  0.00  0.00    +0.000 C 
ATOM     26  O   UNL     1       0.115  11.636  18.721  0.00  0.00    +0.000 OA
ENDBRANCH   1  26
TORSDOF 5
ENDMDL
MODEL 4
REMARK VINA RESULT:      -7.8      4.568      8.787
REMARK  Name = 
REMARK  9 active torsions:
REMARK  status: ('A' for Active; 'I' for Inactive)
REMARK    1  A    between atoms: C_1  and  O_2
REMARK    2  A    between atoms: O_2  and  C_3
REMARK    3  A    between atoms: C_6  and  N_7
REMARK    4  A    between atoms: C_8  and  C_10
REMARK    5  A    between atoms: C_10  and  N_11
REMARK    6  A    between atoms: C_12  and  C_13
REMARK    7  A    between atoms: C_16  and  C_17
REMARK    8  A    between atoms: C_19  and  C_20
REMARK    9  A    between atoms: C_23  and  C_24
REMARK                            x       y       z     vdW  Elec       q    Type
REMARK                         _______ _______ _______ _____ _____    ______ ____
ROOT
ATOM      1  C   UNL     1       7.315   5.148  14.013  0.00  0.00    +0.000 A 
ATOM      2  C   UNL     1       7.654   5.792  15.212  0.00  0.00    +0.000 A 
ATOM      3  C   UNL     1       7.065   5.423  16.423  0.00  0.00    +0.000 A 
ATOM      4  C   UNL     1       6.150   4.377  16.455  0.00  0.00    +0.000 A 
ATOM      5  C   UNL     1       5.821   3.716  15.274  0.00  0.00    +0.000 A 
ATOM      6  C   UNL     1       6.345   4.122  14.027  0.00  0.00    +0.000 A 
ENDROOT
BRANCH   6   7
ATOM      7  C   UNL     1       5.790   3.463  12.844  0.00  0.00    +0.000 A 
ATOM      8  N   UNL     1       6.247   2.396  12.212  0.00  0.00    +0.000 NA
ATOM      9  N   UNL     1       5.341   2.102  11.217  0.00  0.00    +0.000 NA
ATOM     10  C   UNL     1       4.392   3.007  11.310  0.00  0.00    +0.000 A 
ATOM     11  C   UNL     1       3.172   3.168  10.503  0.00  0.00    +0.000 C 
ATOM     12  O   UNL     1       4.604   3.907  12.318  0.00  0.00    +0.000 OA
ENDBRANCH   6   7
BRANCH   4  13
ATOM     13  N   UNL     1       5.540   3.941  17.645  0.00  0.00    +0.000 N 
ATOM     14  C   UNL     1       4.643   4.708  18.373  0.00  0.00    +0.000 C 
ATOM     15  O   UNL     1       4.256   5.830  18.049  0.00  0.00    +0.000 OA
ATOM     16  H   UNL     1       5.459   2.939  17.762  0.00  0.00    +0.000 HD
BRANCH  14  17
ATOM     17  C   UNL     1       4.170   4.051  19.657  0.00  0.00    +0.000 C 
BRANCH  17  18
ATOM     18  N   UNL     1       2.831   3.486  19.557  0.00  0.00    +0.000 N 
ATOM     19  C   UNL     1       2.500   2.251  19.016  0.00  0.00    +0.000 A 
ATOM     20  C   UNL     1       3.453   1.256  18.450  0.00  0.00    +0.000 C 
ATOM     21  C   UNL     1       1.125   2.116  19.106  0.00  0.00    +0.000 A 
ATOM     22  C   UNL     1       0.617   3.254  19.759  0.00  0.00    +0.000 A 
ATOM     23  C   UNL     1       1.682   4.085  20.058  0.00  0.00    +0.000 A 
ATOM     24  C   UNL     1       1.667   5.382  20.775  0.00  0.00    +0.000 C 
ENDBRANCH  17  18
ENDBRANCH  14  17
ENDBRANCH   4  13
BRANCH   1  26
ATOM     25  C   UNL     1       9.184   6.055  12.872  0.00  0.00    +0.000 C 
ATOM     26  O   UNL     1       7.871   5.503  12.810  0.00  0.00    +0.000 OA
ENDBRANCH   1  26
TORSDOF 5
ENDMDL
MODEL 5
REMARK VINA RESULT:      -7.7      2.551      3.879
REMARK  Name = 
REMARK  9 active torsions:
REMARK  status: ('A' for Active; 'I' for Inactive)
REMARK    1  A    between atoms: C_1  and  O_2
REMARK    2  A    between atoms: O_2  and  C_3
REMARK    3  A    between atoms: C_6  and  N_7
REMARK    4  A    between atoms: C_8  and  C_10
REMARK    5  A    between atoms: C_10  and  N_11
REMARK    6  A    between atoms: C_12  and  C_13
REMARK    7  A    between atoms: C_16  and  C_17
REMARK    8  A    between atoms: C_19  and  C_20
REMARK    9  A    between atoms: C_23  and  C_24
REMARK                            x       y       z     vdW  Elec       q    Type
REMARK                         _______ _______ _______ _____ _____    ______ ____
ROOT
ATOM      1  C   UNL     1      -0.505  10.565  21.538  0.00  0.00    +0.000 A 
ATOM      2  C   UNL     1       0.160   9.916  22.590  0.00  0.00    +0.000 A 
ATOM      3  C   UNL     1       1.045   8.864  22.345  0.00  0.00    +0.000 A 
ATOM      4  C   UNL     1       1.304   8.468  21.039  0.00  0.00    +0.000 A 
ATOM      5  C   UNL     1       0.667   9.120  19.985  0.00  0.00    +0.000 A 
ATOM      6  C   UNL     1      -0.290  10.133  20.211  0.00  0.00    +0.000 A 
ENDROOT
BRANCH   6   7
ATOM      7  C   UNL     1      -1.014  10.616  19.034  0.00  0.00    +0.000 A 
ATOM      8  N   UNL     1      -1.030  11.836  18.527  0.00  0.00    +0.000 NA
ATOM      9  N   UNL     1      -1.780  11.779  17.373  0.00  0.00    +0.000 NA
ATOM     10  C   UNL     1      -2.168  10.529  17.251  0.00  0.00    +0.000 A 
ATOM     11  C   UNL     1      -2.984   9.902  16.201  0.00  0.00    +0.000 C 
ATOM     12  O   UNL     1      -1.724   9.728  18.267  0.00  0.00    +0.000 OA
ENDBRANCH   6   7
BRANCH   4  13
ATOM     13  N   UNL     1       2.203   7.434  20.724  0.00  0.00    +0.000 N 
ATOM     14  C   UNL     1       1.820   6.113  20.547  0.00  0.00    +0.000 C 
ATOM     15  O   UNL     1       0.661   5.705  20.610  0.00  0.00    +0.000 OA
ATOM     16  H   UNL     1       3.056   7.712  20.254  0.00  0.00    +0.000 HD
BRANCH  14  17
ATOM     17  C   UNL     1       2.976   5.166  20.282  0.00  0.00    +0.000 C 
BRANCH  17  18
ATOM     18  N   UNL     1       2.585   3.967  19.552  0.00  0.00    +0.000 N 
ATOM     19  C   UNL     1       2.776   3.733  18.197  0.00  0.00    +0.000 A 
ATOM     20  C   UNL     1       3.436   4.655  17.231  0.00  0.00    +0.000 C 
ATOM     21  C   UNL     1       2.246   2.485  17.915  0.00  0.00    +0.000 A 
ATOM     22  C   UNL     1       1.778   1.928  19.119  0.00  0.00    +0.000 A 
ATOM     23  C   UNL     1       2.015   2.841  20.131  0.00  0.00    +0.000 A 
ATOM     24  C   UNL     1       1.736   2.703  21.581  0.00  0.00    +0.000 C 
ENDBRANCH  17  18
ENDBRANCH  14  17
ENDBRANCH   4  13
BRANCH   1  26
ATOM     25  C   UNL     1      -1.943  11.667  23.066  0.00  0.00    +0.000 C 
ATOM     26  O   UNL     1      -1.388  11.591  21.756  0.00  0.00    +0.000 OA
ENDBRANCH   1  26
TORSDOF 5
ENDMDL
MODEL 6
REMARK VINA RESULT:      -7.7      1.215      2.022
REMARK  Name = 
REMARK  9 active torsions:
REMARK  status: ('A' for Active; 'I' for Inactive)
REMARK    1  A    between atoms: C_1  and  O_2
REMARK    2  A    between atoms: O_2  and  C_3
REMARK    3  A    between atoms: C_6  and  N_7
REMARK    4  A    between atoms: C_8  and  C_10
REMARK    5  A    between atoms: C_10  and  N_11
REMARK    6  A    between atoms: C_12  and  C_13
REMARK    7  A    between atoms: C_16  and  C_17
REMARK    8  A    between atoms: C_19  and  C_20
REMARK    9  A    between atoms: C_23  and  C_24
REMARK                            x       y       z     vdW  Elec       q    Type
REMARK                         _______ _______ _______ _____ _____    ______ ____
ROOT
ATOM      1  C   UNL     1       0.647  10.567  18.952  0.00  0.00    +0.000 A 
ATOM      2  C   UNL     1       1.384  10.130  17.841  0.00  0.00    +0.000 A 
ATOM      3  C   UNL     1       2.119   8.943  17.882  0.00  0.00    +0.000 A 
ATOM      4  C   UNL     1       2.099   8.158  19.028  0.00  0.00    +0.000 A 
ATOM      5  C   UNL     1       1.354   8.572  20.130  0.00  0.00    +0.000 A 
ATOM      6  C   UNL     1       0.666   9.804  20.140  0.00  0.00    +0.000 A 
ENDROOT
BRANCH   6   7
ATOM      7  C   UNL     1       0.067  10.204  21.414  0.00  0.00    +0.000 A 
ATOM      8  N   UNL     1       0.521   9.986  22.636  0.00  0.00    +0.000 NA
ATOM      9  N   UNL     1      -0.337  10.627  23.502  0.00  0.00    +0.000 NA
ATOM     10  C   UNL     1      -1.255  11.194  22.751  0.00  0.00    +0.000 A 
ATOM     11  C   UNL     1      -2.412  12.013  23.147  0.00  0.00    +0.000 C 
ATOM     12  O   UNL     1      -1.069  10.971  21.414  0.00  0.00    +0.000 OA
ENDBRANCH   6   7
BRANCH   4  13
ATOM     13  N   UNL     1       2.797   6.941  19.125  0.00  0.00    +0.000 N 
ATOM     14  C   UNL     1       2.469   5.939  20.026  0.00  0.00    +0.000 C 
ATOM     15  O   UNL     1       1.522   5.985  20.811  0.00  0.00    +0.000 OA
ATOM     16  H   UNL     1       3.286   6.640  18.292  0.00  0.00    +0.000 HD
BRANCH  14  17
ATOM     17  C   UNL     1       3.408   4.747  19.991  0.00  0.00    +0.000 C 
BRANCH  17  18
ATOM     18  N   UNL     1       2.868   3.609  19.259  0.00  0.00    +0.000 N 
ATOM     19  C   UNL     1       3.130   3.289  17.934  0.00  0.00    +0.000 A 
ATOM     20  C   UNL     1       4.028   4.036  17.009  0.00  0.00    +0.000 C 
ATOM     21  C   UNL     1       2.407   2.146  17.635  0.00  0.00    +0.000 A 
ATOM     22  C   UNL     1       1.743   1.732  18.804  0.00  0.00    +0.000 A 
ATOM     23  C   UNL     1       2.054   2.628  19.811  0.00  0.00    +0.000 A 
ATOM     24  C   UNL     1       1.632   2.603  21.231  0.00  0.00    +0.000 C 
ENDBRANCH  17  18
ENDBRANCH  14  17
ENDBRANCH   4  13
BRANCH   1  26
ATOM     25  C   UNL     1      -1.230  11.743  18.109  0.00  0.00    +0.000 C 
ATOM     26  O   UNL     1      -0.071  11.736  18.938  0.00  0.00    +0.000 OA
ENDBRANCH   1  26
TORSDOF 5
ENDMDL
MODEL 7
REMARK VINA RESULT:      -7.6      2.565      3.562
REMARK  Name = 
REMARK  9 active torsions:
REMARK  status: ('A' for Active; 'I' for Inactive)
REMARK    1  A    between atoms: C_1  and  O_2
REMARK    2  A    between atoms: O_2  and  C_3
REMARK    3  A    between atoms: C_6  and  N_7
REMARK    4  A    between atoms: C_8  and  C_10
REMARK    5  A    between atoms: C_10  and  N_11
REMARK    6  A    between atoms: C_12  and  C_13
REMARK    7  A    between atoms: C_16  and  C_17
REMARK    8  A    between atoms: C_19  and  C_20
REMARK    9  A    between atoms: C_23  and  C_24
REMARK                            x       y       z     vdW  Elec       q    Type
REMARK                         _______ _______ _______ _____ _____    ______ ____
ROOT
ATOM      1  C   UNL     1      -0.674  10.777  21.522  0.00  0.00    +0.000 A 
ATOM      2  C   UNL     1      -0.057  10.171  22.627  0.00  0.00    +0.000 A 
ATOM      3  C   UNL     1       0.809   9.087  22.466  0.00  0.00    +0.000 A 
ATOM      4  C   UNL     1       1.096   8.615  21.191  0.00  0.00    +0.000 A 
ATOM      5  C   UNL     1       0.506   9.222  20.086  0.00  0.00    +0.000 A 
ATOM      6  C   UNL     1      -0.432  10.268  20.227  0.00  0.00    +0.000 A 
ENDROOT
BRANCH   6   7
ATOM      7  C   UNL     1      -1.109  10.702  19.005  0.00  0.00    +0.000 A 
ATOM      8  N   UNL     1      -1.156  11.915  18.481  0.00  0.00    +0.000 NA
ATOM      9  N   UNL     1      -1.833  11.809  17.287  0.00  0.00    +0.000 NA
ATOM     10  C   UNL     1      -2.152  10.540  17.159  0.00  0.00    +0.000 A 
ATOM     11  C   UNL     1      -2.874   9.862  16.072  0.00  0.00    +0.000 C 
ATOM     12  O   UNL     1      -1.728   9.772  18.210  0.00  0.00    +0.000 OA
ENDBRANCH   6   7
BRANCH   4  13
ATOM     13  N   UNL     1       1.978   7.544  20.961  0.00  0.00    +0.000 N 
ATOM     14  C   UNL     1       2.449   7.196  19.703  0.00  0.00    +0.000 C 
ATOM     15  O   UNL     1       2.181   7.797  18.664  0.00  0.00    +0.000 OA
ATOM     16  H   UNL     1       2.564   7.273  21.740  0.00  0.00    +0.000 HD
BRANCH  14  17
ATOM     17  C   UNL     1       3.335   5.964  19.697  0.00  0.00    +0.000 C 
BRANCH  17  18
ATOM     18  N   UNL     1       2.807   4.879  18.879  0.00  0.00    +0.000 N 
ATOM     19  C   UNL     1       1.741   4.051  19.206  0.00  0.00    +0.000 A 
ATOM     20  C   UNL     1       0.919   4.123  20.446  0.00  0.00    +0.000 C 
ATOM     21  C   UNL     1       1.583   3.152  18.164  0.00  0.00    +0.000 A 
ATOM     22  C   UNL     1       2.524   3.471  17.167  0.00  0.00    +0.000 A 
ATOM     23  C   UNL     1       3.259   4.556  17.606  0.00  0.00    +0.000 A 
ATOM     24  C   UNL     1       4.340   5.285  16.900  0.00  0.00    +0.000 C 
ENDBRANCH  17  18
ENDBRANCH  14  17
ENDBRANCH   4  13
BRANCH   1  26
ATOM     25  C   UNL     1      -1.064  12.928  22.437  0.00  0.00    +0.000 C 
ATOM     26  O   UNL     1      -1.538  11.834  21.656  0.00  0.00    +0.000 OA
ENDBRANCH   1  26
TORSDOF 5
ENDMDL
MODEL 8
REMARK VINA RESULT:      -7.6      2.477      8.696
REMARK  Name = 
REMARK  9 active torsions:
REMARK  status: ('A' for Active; 'I' for Inactive)
REMARK    1  A    between atoms: C_1  and  O_2
REMARK    2  A    between atoms: O_2  and  C_3
REMARK    3  A    between atoms: C_6  and  N_7
REMARK    4  A    between atoms: C_8  and  C_10
REMARK    5  A    between atoms: C_10  and  N_11
REMARK    6  A    between atoms: C_12  and  C_13
REMARK    7  A    between atoms: C_16  and  C_17
REMARK    8  A    between atoms: C_19  and  C_20
REMARK    9  A    between atoms: C_23  and  C_24
REMARK                            x       y       z     vdW  Elec       q    Type
REMARK                         _______ _______ _______ _____ _____    ______ ____
ROOT
ATOM      1  C   UNL     1       4.032   5.055  19.057  0.00  0.00    +0.000 A 
ATOM      2  C   UNL     1       3.039   5.355  20.001  0.00  0.00    +0.000 A 
ATOM      3  C   UNL     1       2.265   6.512  19.892  0.00  0.00    +0.000 A 
ATOM      4  C   UNL     1       2.451   7.370  18.815  0.00  0.00    +0.000 A 
ATOM      5  C   UNL     1       3.420   7.071  17.860  0.00  0.00    +0.000 A 
ATOM      6  C   UNL     1       4.267   5.949  17.989  0.00  0.00    +0.000 A 
ENDROOT
BRANCH   6   7
ATOM      7  C   UNL     1       5.355   5.842  17.016  0.00  0.00    +0.000 A 
ATOM      8  N   UNL     1       6.574   6.347  17.092  0.00  0.00    +0.000 NA
ATOM      9  N   UNL     1       7.260   5.904  15.983  0.00  0.00    +0.000 NA
ATOM     10  C   UNL     1       6.416   5.157  15.307  0.00  0.00    +0.000 A 
ATOM     11  C   UNL     1       6.618   4.425  14.047  0.00  0.00    +0.000 C 
ATOM     12  O   UNL     1       5.185   5.068  15.897  0.00  0.00    +0.000 OA
ENDBRANCH   6   7
BRANCH   4  13
ATOM     13  N   UNL     1       1.687   8.536  18.634  0.00  0.00    +0.000 N 
ATOM     14  C   UNL     1       1.138   9.263  19.680  0.00  0.00    +0.000 C 
ATOM     15  O   UNL     1       1.282   8.993  20.872  0.00  0.00    +0.000 OA
ATOM     16  H   UNL     1       1.859   9.054  17.782  0.00  0.00    +0.000 HD
BRANCH  14  17
ATOM     17  C   UNL     1       0.297  10.445  19.235  0.00  0.00    +0.000 C 
BRANCH  17  18
ATOM     18  N   UNL     1       0.689  11.701  19.862  0.00  0.00    +0.000 N 
ATOM     19  C   UNL     1       1.653  12.584  19.395  0.00  0.00    +0.000 A 
ATOM     20  C   UNL     1       2.460  12.428  18.153  0.00  0.00    +0.000 C 
ATOM     21  C   UNL     1       1.720  13.635  20.294  0.00  0.00    +0.000 A 
ATOM     22  C   UNL     1       0.748  13.421  21.288  0.00  0.00    +0.000 A 
ATOM     23  C   UNL     1       0.097  12.235  20.999  0.00  0.00    +0.000 A 
ATOM     24  C   UNL     1      -1.028  11.599  21.726  0.00  0.00    +0.000 C 
ENDBRANCH  17  18
ENDBRANCH  14  17
ENDBRANCH   4  13
BRANCH   1  26
ATOM     25  C   UNL     1       4.120   2.710  19.385  0.00  0.00    +0.000 C 
ATOM     26  O   UNL     1       4.814   3.932  19.151  0.00  0.00    +0.000 OA
ENDBRANCH   1  26
TORSDOF 5
ENDMDL
MODEL 9
REMARK VINA RESULT:      -7.6      2.491      8.552
REMARK  Name = 
REMARK  9 active torsions:
REMARK  status: ('A' for Active; 'I' for Inactive)
REMARK    1  A    between atoms: C_1  and  O_2
REMARK    2  A    between atoms: O_2  and  C_3
REMARK    3  A    between atoms: C_6  and  N_7
REMARK    4  A    between atoms: C_8  and  C_10
REMARK    5  A    between atoms: C_10  and  N_11
REMARK    6  A    between atoms: C_12  and  C_13
REMARK    7  A    between atoms: C_16  and  C_17
REMARK    8  A    between atoms: C_19  and  C_20
REMARK    9  A    between atoms: C_23  and  C_24
REMARK                            x       y       z     vdW  Elec       q    Type
REMARK                         _______ _______ _______ _____ _____    ______ ____
ROOT
ATOM      1  C   UNL     1       4.071   5.069  19.020  0.00  0.00    +0.000 A 
ATOM      2  C   UNL     1       3.087   5.377  19.972  0.00  0.00    +0.000 A 
ATOM      3  C   UNL     1       2.315   6.535  19.864  0.00  0.00    +0.000 A 
ATOM      4  C   UNL     1       2.493   7.386  18.781  0.00  0.00    +0.000 A 
ATOM      5  C   UNL     1       3.452   7.080  17.818  0.00  0.00    +0.000 A 
ATOM      6  C   UNL     1       4.298   5.957  17.946  0.00  0.00    +0.000 A 
ENDROOT
BRANCH   6   7
ATOM      7  C   UNL     1       5.377   5.842  16.964  0.00  0.00    +0.000 A 
ATOM      8  N   UNL     1       6.592   6.358  17.017  0.00  0.00    +0.000 NA
ATOM      9  N   UNL     1       7.270   5.902  15.909  0.00  0.00    +0.000 NA
ATOM     10  C   UNL     1       6.426   5.136  15.255  0.00  0.00    +0.000 A 
ATOM     11  C   UNL     1       6.621   4.384  14.005  0.00  0.00    +0.000 C 
ATOM     12  O   UNL     1       5.201   5.048  15.859  0.00  0.00    +0.000 OA
ENDBRANCH   6   7
BRANCH   4  13
ATOM     13  N   UNL     1       1.731   8.554  18.602  0.00  0.00    +0.000 N 
ATOM     14  C   UNL     1       1.161   9.266  19.647  0.00  0.00    +0.000 C 
ATOM     15  O   UNL     1       1.283   8.981  20.837  0.00  0.00    +0.000 OA
ATOM     16  H   UNL     1       1.918   9.083  17.760  0.00  0.00    +0.000 HD
BRANCH  14  17
ATOM     17  C   UNL     1       0.326  10.453  19.201  0.00  0.00    +0.000 C 
BRANCH  17  18
ATOM     18  N   UNL     1       0.738  11.709  19.813  0.00  0.00    +0.000 N 
ATOM     19  C   UNL     1       0.267  12.230  21.011  0.00  0.00    +0.000 A 
ATOM     20  C   UNL     1      -0.736  11.597  21.912  0.00  0.00    +0.000 C 
ATOM     21  C   UNL     1       0.906  13.442  21.214  0.00  0.00    +0.000 A 
ATOM     22  C   UNL     1       1.818  13.636  20.159  0.00  0.00    +0.000 A 
ATOM     23  C   UNL     1       1.726  12.547  19.311  0.00  0.00    +0.000 A 
ATOM     24  C   UNL     1       2.505  12.267  18.082  0.00  0.00    +0.000 C 
ENDBRANCH  17  18
ENDBRANCH  14  17
ENDBRANCH   4  13
BRANCH   1  26
ATOM     25  C   UNL     1       4.178   2.753  19.511  0.00  0.00    +0.000 C 
ATOM     26  O   UNL     1       4.850   3.944  19.113  0.00  0.00    +0.000 OA
ENDBRANCH   1  26
TORSDOF 5
ENDMDL
