MODEL 1
REMARK VINA RESULT:      -9.2      0.000      0.000
REMARK  Name = 
REMARK  12 active torsions:
REMARK  status: ('A' for Active; 'I' for Inactive)
REMARK    1  A    between atoms: C_1  and  C_2
REMARK    2  A    between atoms: C_2  and  C_3
REMARK    3  A    between atoms: C_2  and  C_4
REMARK    4  A    between atoms: C_4  and  C_5
REMARK    5  A    between atoms: C_5  and  C_6
REMARK    6  A    between atoms: C_5  and  C_11
REMARK    7  A    between atoms: C_6  and  C_7
REMARK    8  A    between atoms: N_9  and  O_10
REMARK    9  A    between atoms: N_13  and  C_14
REMARK   10  A    between atoms: C_14  and  C_15
REMARK   11  A    between atoms: C_14  and  C_25
REMARK   12  A    between atoms: C_15  and  C_16
REMARK                            x       y       z     vdW  Elec       q    Type
REMARK                         _______ _______ _______ _____ _____    ______ ____
ROOT
ATOM      1  C   UNL     1       2.823   7.734  18.249  0.00  0.00    +0.000 C 
ENDROOT
BRANCH   1   2
ATOM      2  C   UNL     1       2.469   6.351  18.760  0.00  0.00    +0.000 A 
ATOM      3  N   UNL     1       1.988   5.333  18.062  0.00  0.00    +0.000 NA
ATOM      4  C   UNL     1       1.741   4.335  18.978  0.00  0.00    +0.000 A 
ATOM      5  C   UNL     1       1.199   3.053  18.794  0.00  0.00    +0.000 A 
ATOM      6  C   UNL     1       1.027   2.224  19.913  0.00  0.00    +0.000 A 
ATOM      7  C   UNL     1       1.386   2.663  21.190  0.00  0.00    +0.000 A 
ATOM      8  C   UNL     1       1.934   3.935  21.392  0.00  0.00    +0.000 A 
ATOM      9  C   UNL     1       2.099   4.737  20.259  0.00  0.00    +0.000 A 
ATOM     10  N   UNL     1       2.594   6.005  20.087  0.00  0.00    +0.000 N 
ATOM     11  H   UNL     1       2.927   6.606  20.826  0.00  0.00    +0.000 HD
ENDBRANCH   1   2
BRANCH   1  14
ATOM     12  C   UNL     1       5.040   6.767  17.714  0.00  0.00    +0.000 C 
ATOM     13  O   UNL     1       5.063   6.108  18.752  0.00  0.00    +0.000 OA
ATOM     14  N   UNL     1       4.010   7.620  17.414  0.00  0.00    +0.000 N 
ATOM     15  H   UNL     1       4.042   8.228  16.602  0.00  0.00    +0.000 HD
BRANCH  12  16
ATOM     16  C   UNL     1       6.107   6.604  16.632  0.00  0.00    +0.000 C 
BRANCH  16  17
ATOM     17  C   UNL     1       5.469   5.928  15.398  0.00  0.00    +0.000 C 
BRANCH  17  19
ATOM     18  C   UNL     1       4.566   3.628  16.084  0.00  0.00    +0.000 C 
ATOM     19  C   UNL     1       5.614   4.397  15.279  0.00  0.00    +0.000 C 
ATOM     20  C   UNL     1       5.520   4.002  13.802  0.00  0.00    +0.000 C 
ENDBRANCH  17  19
ENDBRANCH  16  17
BRANCH  16  21
ATOM     21  C   UNL     1       7.218   5.709  17.223  0.00  0.00    +0.000 C 
BRANCH  21  22
ATOM     22  C   UNL     1       7.777   6.141  18.561  0.00  0.00    +0.000 C 
ATOM     23  O   UNL     1       8.327   7.216  18.786  0.00  0.00    +0.000 OA
ATOM     24  N   UNL     1       7.595   5.190  19.541  0.00  0.00    +0.000 N 
ATOM     25  H   UNL     1       7.400   4.214  19.333  0.00  0.00    +0.000 HD
BRANCH  24  26
ATOM     26  O   UNL     1       8.166   5.463  20.804  0.00  0.00    +0.000 OA
ATOM     27  H   UNL     1       8.309   6.432  20.768  0.00  0.00    +0.000 HD
ENDBRANCH  24  26
ENDBRANCH  21  22
ENDBRANCH  16  21
ENDBRANCH  12  16
ENDBRANCH   1  14
BRANCH   1  28
ATOM     28  C   UNL     1       1.635   8.440  17.544  0.00  0.00    +0.000 C 
BRANCH  28  29
ATOM     29  C   UNL     1       1.000   9.523  18.362  0.00  0.00    +0.000 A 
ATOM     30  C   UNL     1       1.596  10.193  19.415  0.00  0.00    +0.000 A 
ATOM     31  N   UNL     1       0.651  10.979  20.012  0.00  0.00    +0.000 N 
ATOM     32  C   UNL     1      -0.511  10.957  19.281  0.00  0.00    +0.000 A 
ATOM     33  C   UNL     1      -1.705  11.652  19.485  0.00  0.00    +0.000 A 
ATOM     34  C   UNL     1      -2.725  11.475  18.547  0.00  0.00    +0.000 A 
ATOM     35  C   UNL     1      -2.559  10.613  17.470  0.00  0.00    +0.000 A 
ATOM     36  C   UNL     1      -1.378   9.888  17.307  0.00  0.00    +0.000 A 
ATOM     37  C   UNL     1      -0.318  10.067  18.223  0.00  0.00    +0.000 A 
ATOM     38  H   UNL     1       0.791  11.513  20.856  0.00  0.00    +0.000 HD
ENDBRANCH  28  29
ENDBRANCH   1  28
TORSDOF 10
ENDMDL
MODEL 2
REMARK VINA RESULT:      -9.1      1.545      2.058
REMARK  Name = 
REMARK  12 active torsions:
REMARK  status: ('A' for Active; 'I' for Inactive)
REMARK    1  A    between atoms: C_1  and  C_2
REMARK    2  A    between atoms: C_2  and  C_3
REMARK    3  A    between atoms: C_2  and  C_4
REMARK    4  A    between atoms: C_4  and  C_5
REMARK    5  A    between atoms: C_5  and  C_6
REMARK    6  A    between atoms: C_5  and  C_11
REMARK    7  A    between atoms: C_6  and  C_7
REMARK    8  A    between atoms: N_9  and  O_10
REMARK    9  A    between atoms: N_13  and  C_14
REMARK   10  A    between atoms: C_14  and  C_15
REMARK   11  A    between atoms: C_14  and  C_25
REMARK   12  A    between atoms: C_15  and  C_16
REMARK                            x       y       z     vdW  Elec       q    Type
REMARK                         _______ _______ _______ _____ _____    ______ ____
ROOT
ATOM      1  C   UNL     1       2.710   7.777  18.501  0.00  0.00    +0.000 C 
ENDROOT
BRANCH   1   2
ATOM      2  C   UNL     1       2.410   6.355  18.935  0.00  0.00    +0.000 A 
ATOM      3  N   UNL     1       1.928   5.371  18.191  0.00  0.00    +0.000 NA
ATOM      4  C   UNL     1       1.741   4.310  19.050  0.00  0.00    +0.000 A 
ATOM      5  C   UNL     1       1.224   3.028  18.804  0.00  0.00    +0.000 A 
ATOM      6  C   UNL     1       1.116   2.126  19.873  0.00  0.00    +0.000 A 
ATOM      7  C   UNL     1       1.513   2.492  21.161  0.00  0.00    +0.000 A 
ATOM      8  C   UNL     1       2.037   3.764  21.425  0.00  0.00    +0.000 A 
ATOM      9  C   UNL     1       2.138   4.640  20.340  0.00  0.00    +0.000 A 
ATOM     10  N   UNL     1       2.594   5.929  20.232  0.00  0.00    +0.000 N 
ATOM     11  H   UNL     1       2.941   6.491  20.995  0.00  0.00    +0.000 HD
ENDBRANCH   1   2
BRANCH   1  14
ATOM     12  C   UNL     1       4.870   6.916  17.650  0.00  0.00    +0.000 C 
ATOM     13  O   UNL     1       5.053   6.229  18.653  0.00  0.00    +0.000 OA
ATOM     14  N   UNL     1       3.780   7.735  17.515  0.00  0.00    +0.000 N 
ATOM     15  H   UNL     1       3.683   8.367  16.727  0.00  0.00    +0.000 HD
BRANCH  12  16
ATOM     16  C   UNL     1       5.791   6.828  16.434  0.00  0.00    +0.000 C 
BRANCH  16  17
ATOM     17  C   UNL     1       5.225   5.779  15.452  0.00  0.00    +0.000 C 
BRANCH  17  19
ATOM     18  C   UNL     1       4.651   3.455  16.374  0.00  0.00    +0.000 C 
ATOM     19  C   UNL     1       5.681   4.317  15.641  0.00  0.00    +0.000 C 
ATOM     20  C   UNL     1       5.980   3.707  14.268  0.00  0.00    +0.000 C 
ENDBRANCH  17  19
ENDBRANCH  16  17
BRANCH  16  21
ATOM     21  C   UNL     1       7.180   6.391  16.948  0.00  0.00    +0.000 C 
BRANCH  21  22
ATOM     22  C   UNL     1       7.877   7.356  17.882  0.00  0.00    +0.000 C 
ATOM     23  O   UNL     1       8.397   7.055  18.953  0.00  0.00    +0.000 OA
ATOM     24  N   UNL     1       7.886   8.646  17.398  0.00  0.00    +0.000 N 
ATOM     25  H   UNL     1       7.247   8.969  16.676  0.00  0.00    +0.000 HD
BRANCH  24  26
ATOM     26  O   UNL     1       8.434   9.637  18.243  0.00  0.00    +0.000 OA
ATOM     27  H   UNL     1       9.313   9.265  18.464  0.00  0.00    +0.000 HD
ENDBRANCH  24  26
ENDBRANCH  21  22
ENDBRANCH  16  21
ENDBRANCH  12  16
ENDBRANCH   1  14
BRANCH   1  28
ATOM     28  C   UNL     1       1.449   8.538  18.014  0.00  0.00    +0.000 C 
BRANCH  28  29
ATOM     29  C   UNL     1       1.039   9.669  18.910  0.00  0.00    +0.000 A 
ATOM     30  C   UNL     1       1.113  11.013  18.596  0.00  0.00    +0.000 A 
ATOM     31  N   UNL     1       0.813  11.731  19.718  0.00  0.00    +0.000 N 
ATOM     32  C   UNL     1       0.393  10.890  20.719  0.00  0.00    +0.000 A 
ATOM     33  C   UNL     1      -0.065  11.192  22.003  0.00  0.00    +0.000 A 
ATOM     34  C   UNL     1      -0.476  10.129  22.810  0.00  0.00    +0.000 A 
ATOM     35  C   UNL     1      -0.401   8.818  22.353  0.00  0.00    +0.000 A 
ATOM     36  C   UNL     1       0.104   8.529  21.085  0.00  0.00    +0.000 A 
ATOM     37  C   UNL     1       0.503   9.585  20.235  0.00  0.00    +0.000 A 
ATOM     38  H   UNL     1       0.871  12.736  19.796  0.00  0.00    +0.000 HD
ENDBRANCH  28  29
ENDBRANCH   1  28
TORSDOF 10
ENDMDL
MODEL 3
REMARK VINA RESULT:      -9.0      1.494      1.878
REMARK  Name = 
REMARK  12 active torsions:
REMARK  status: ('A' for Active; 'I' for Inactive)
REMARK    1  A    between atoms: C_1  and  C_2
REMARK    2  A    between atoms: C_2  and  C_3
REMARK    3  A    between atoms: C_2  and  C_4
REMARK    4  A    between atoms: C_4  and  C_5
REMARK    5  A    between atoms: C_5  and  C_6
REMARK    6  A    between atoms: C_5  and  C_11
REMARK    7  A    between atoms: C_6  and  C_7
REMARK    8  A    between atoms: N_9  and  O_10
REMARK    9  A    between atoms: N_13  and  C_14
REMARK   10  A    between atoms: C_14  and  C_15
REMARK   11  A    between atoms: C_14  and  C_25
REMARK   12  A    between atoms: C_15  and  C_16
REMARK                            x       y       z     vdW  Elec       q    Type
REMARK                         _______ _______ _______ _____ _____    ______ ____
ROOT
ATOM      1  C   UNL     1       2.952   7.632  18.419  0.00  0.00    +0.000 C 
ENDROOT
BRANCH   1   2
ATOM      2  C   UNL     1       2.556   6.239  18.869  0.00  0.00    +0.000 A 
ATOM      3  N   UNL     1       2.017   5.278  18.133  0.00  0.00    +0.000 NA
ATOM      4  C   UNL     1       1.754   4.244  19.004  0.00  0.00    +0.000 A 
ATOM      5  C   UNL     1       1.156   2.995  18.770  0.00  0.00    +0.000 A 
ATOM      6  C   UNL     1       0.979   2.117  19.849  0.00  0.00    +0.000 A 
ATOM      7  C   UNL     1       1.387   2.475  21.136  0.00  0.00    +0.000 A 
ATOM      8  C   UNL     1       1.990   3.713  21.389  0.00  0.00    +0.000 A 
ATOM      9  C   UNL     1       2.159   4.566  20.293  0.00  0.00    +0.000 A 
ATOM     10  N   UNL     1       2.700   5.820  20.172  0.00  0.00    +0.000 N 
ATOM     11  H   UNL     1       3.075   6.369  20.932  0.00  0.00    +0.000 HD
ENDBRANCH   1   2
BRANCH   1  14
ATOM     12  C   UNL     1       5.120   6.646  17.738  0.00  0.00    +0.000 C 
ATOM     13  O   UNL     1       5.202   5.980  18.769  0.00  0.00    +0.000 OA
ATOM     14  N   UNL     1       4.083   7.512  17.509  0.00  0.00    +0.000 N 
ATOM     15  H   UNL     1       4.069   8.125  16.701  0.00  0.00    +0.000 HD
BRANCH  12  16
ATOM     16  C   UNL     1       6.115   6.480  16.590  0.00  0.00    +0.000 C 
BRANCH  16  17
ATOM     17  C   UNL     1       5.883   5.106  15.923  0.00  0.00    +0.000 C 
BRANCH  17  19
ATOM     18  C   UNL     1       7.561   4.924  13.992  0.00  0.00    +0.000 C 
ATOM     19  C   UNL     1       6.089   5.019  14.396  0.00  0.00    +0.000 C 
ATOM     20  C   UNL     1       5.327   3.804  13.859  0.00  0.00    +0.000 C 
ENDBRANCH  17  19
ENDBRANCH  16  17
BRANCH  16  21
ATOM     21  C   UNL     1       7.530   6.550  17.203  0.00  0.00    +0.000 C 
BRANCH  21  22
ATOM     22  C   UNL     1       7.831   5.548  18.296  0.00  0.00    +0.000 C 
ATOM     23  O   UNL     1       7.867   4.329  18.149  0.00  0.00    +0.000 OA
ATOM     24  N   UNL     1       8.083   6.150  19.509  0.00  0.00    +0.000 N 
ATOM     25  H   UNL     1       7.800   7.102  19.723  0.00  0.00    +0.000 HD
BRANCH  24  26
ATOM     26  O   UNL     1       8.285   5.291  20.614  0.00  0.00    +0.000 OA
ATOM     27  H   UNL     1       7.782   4.491  20.355  0.00  0.00    +0.000 HD
ENDBRANCH  24  26
ENDBRANCH  21  22
ENDBRANCH  16  21
ENDBRANCH  12  16
ENDBRANCH   1  14
BRANCH   1  28
ATOM     28  C   UNL     1       1.765   8.436  17.828  0.00  0.00    +0.000 C 
BRANCH  28  29
ATOM     29  C   UNL     1       1.367   9.625  18.651  0.00  0.00    +0.000 A 
ATOM     30  C   UNL     1       1.516  10.948  18.280  0.00  0.00    +0.000 A 
ATOM     31  N   UNL     1       1.199  11.732  19.354  0.00  0.00    +0.000 N 
ATOM     32  C   UNL     1       0.698  10.957  20.372  0.00  0.00    +0.000 A 
ATOM     33  C   UNL     1       0.198  11.340  21.618  0.00  0.00    +0.000 A 
ATOM     34  C   UNL     1      -0.297  10.334  22.452  0.00  0.00    +0.000 A 
ATOM     35  C   UNL     1      -0.261   9.002  22.059  0.00  0.00    +0.000 A 
ATOM     36  C   UNL     1       0.287   8.631  20.830  0.00  0.00    +0.000 A 
ATOM     37  C   UNL     1       0.770   9.628  19.953  0.00  0.00    +0.000 A 
ATOM     38  H   UNL     1       1.299  12.735  19.389  0.00  0.00    +0.000 HD
ENDBRANCH  28  29
ENDBRANCH   1  28
TORSDOF 10
ENDMDL
MODEL 4
REMARK VINA RESULT:      -9.0      1.814      2.167
REMARK  Name = 
REMARK  12 active torsions:
REMARK  status: ('A' for Active; 'I' for Inactive)
REMARK    1  A    between atoms: C_1  and  C_2
REMARK    2  A    between atoms: C_2  and  C_3
REMARK    3  A    between atoms: C_2  and  C_4
REMARK    4  A    between atoms: C_4  and  C_5
REMARK    5  A    between atoms: C_5  and  C_6
REMARK    6  A    between atoms: C_5  and  C_11
REMARK    7  A    between atoms: C_6  and  C_7
REMARK    8  A    between atoms: N_9  and  O_10
REMARK    9  A    between atoms: N_13  and  C_14
REMARK   10  A    between atoms: C_14  and  C_15
REMARK   11  A    between atoms: C_14  and  C_25
REMARK   12  A    between atoms: C_15  and  C_16
REMARK                            x       y       z     vdW  Elec       q    Type
REMARK                         _______ _______ _______ _____ _____    ______ ____
ROOT
ATOM      1  C   UNL     1       3.536   6.978  17.915  0.00  0.00    +0.000 C 
ENDROOT
BRANCH   1   2
ATOM      2  C   UNL     1       2.971   5.817  18.709  0.00  0.00    +0.000 A 
ATOM      3  N   UNL     1       2.034   4.961  18.328  0.00  0.00    +0.000 NA
ATOM      4  C   UNL     1       1.798   4.155  19.420  0.00  0.00    +0.000 A 
ATOM      5  C   UNL     1       0.884   3.103  19.586  0.00  0.00    +0.000 A 
ATOM      6  C   UNL     1       0.824   2.447  20.825  0.00  0.00    +0.000 A 
ATOM      7  C   UNL     1       1.657   2.831  21.878  0.00  0.00    +0.000 A 
ATOM      8  C   UNL     1       2.580   3.874  21.730  0.00  0.00    +0.000 A 
ATOM      9  C   UNL     1       2.621   4.506  20.483  0.00  0.00    +0.000 A 
ATOM     10  N   UNL     1       3.382   5.536  19.993  0.00  0.00    +0.000 N 
ATOM     11  H   UNL     1       4.078   6.047  20.516  0.00  0.00    +0.000 HD
ENDBRANCH   1   2
BRANCH   1  14
ATOM     12  C   UNL     1       5.841   6.701  17.052  0.00  0.00    +0.000 C 
ATOM     13  O   UNL     1       6.308   7.457  17.901  0.00  0.00    +0.000 OA
ATOM     14  N   UNL     1       4.497   6.450  16.957  0.00  0.00    +0.000 N 
ATOM     15  H   UNL     1       4.111   5.899  16.198  0.00  0.00    +0.000 HD
BRANCH  12  16
ATOM     16  C   UNL     1       6.736   5.903  16.104  0.00  0.00    +0.000 C 
BRANCH  16  17
ATOM     17  C   UNL     1       5.874   5.358  14.943  0.00  0.00    +0.000 C 
BRANCH  17  19
ATOM     18  C   UNL     1       5.553   3.701  13.013  0.00  0.00    +0.000 C 
ATOM     19  C   UNL     1       6.542   4.359  13.977  0.00  0.00    +0.000 C 
ATOM     20  C   UNL     1       7.630   5.086  13.182  0.00  0.00    +0.000 C 
ENDBRANCH  17  19
ENDBRANCH  16  17
BRANCH  16  21
ATOM     21  C   UNL     1       7.337   4.739  16.921  0.00  0.00    +0.000 C 
BRANCH  21  22
ATOM     22  C   UNL     1       7.046   4.750  18.406  0.00  0.00    +0.000 C 
ATOM     23  O   UNL     1       6.038   4.288  18.934  0.00  0.00    +0.000 OA
ATOM     24  N   UNL     1       8.057   5.334  19.138  0.00  0.00    +0.000 N 
ATOM     25  H   UNL     1       8.751   5.952  18.725  0.00  0.00    +0.000 HD
BRANCH  24  26
ATOM     26  O   UNL     1       7.835   5.474  20.526  0.00  0.00    +0.000 OA
ATOM     27  H   UNL     1       7.660   6.434  20.618  0.00  0.00    +0.000 HD
ENDBRANCH  24  26
ENDBRANCH  21  22
ENDBRANCH  16  21
ENDBRANCH  12  16
ENDBRANCH   1  14
BRANCH   1  28
ATOM     28  C   UNL     1       2.435   7.858  17.267  0.00  0.00    +0.000 C 
BRANCH  28  29
ATOM     29  C   UNL     1       2.007   9.018  18.115  0.00  0.00    +0.000 A 
ATOM     30  C   UNL     1       2.090  10.351  17.759  0.00  0.00    +0.000 A 
ATOM     31  N   UNL     1       1.766  11.106  18.851  0.00  0.00    +0.000 N 
ATOM     32  C   UNL     1       1.324  10.298  19.869  0.00  0.00    +0.000 A 
ATOM     33  C   UNL     1       0.838  10.643  21.132  0.00  0.00    +0.000 A 
ATOM     34  C   UNL     1       0.408   9.607  21.965  0.00  0.00    +0.000 A 
ATOM     35  C   UNL     1       0.492   8.282  21.552  0.00  0.00    +0.000 A 
ATOM     36  C   UNL     1       1.025   7.951  20.306  0.00  0.00    +0.000 A 
ATOM     37  C   UNL     1       1.443   8.978  19.431  0.00  0.00    +0.000 A 
ATOM     38  H   UNL     1       1.823  12.113  18.896  0.00  0.00    +0.000 HD
ENDBRANCH  28  29
ENDBRANCH   1  28
TORSDOF 10
ENDMDL
MODEL 5
REMARK VINA RESULT:      -8.9      1.684      2.070
REMARK  Name = 
REMARK  12 active torsions:
REMARK  status: ('A' for Active; 'I' for Inactive)
REMARK    1  A    between atoms: C_1  and  C_2
REMARK    2  A    between atoms: C_2  and  C_3
REMARK    3  A    between atoms: C_2  and  C_4
REMARK    4  A    between atoms: C_4  and  C_5
REMARK    5  A    between atoms: C_5  and  C_6
REMARK    6  A    between atoms: C_5  and  C_11
REMARK    7  A    between atoms: C_6  and  C_7
REMARK    8  A    between atoms: N_9  and  O_10
REMARK    9  A    between atoms: N_13  and  C_14
REMARK   10  A    between atoms: C_14  and  C_15
REMARK   11  A    between atoms: C_14  and  C_25
REMARK   12  A    between atoms: C_15  and  C_16
REMARK                            x       y       z     vdW  Elec       q    Type
REMARK                         _______ _______ _______ _____ _____    ______ ____
ROOT
ATOM      1  C   UNL     1       3.766   7.029  18.001  0.00  0.00    +0.000 C 
ENDROOT
BRANCH   1   2
ATOM      2  C   UNL     1       3.101   5.875  18.726  0.00  0.00    +0.000 A 
ATOM      3  N   UNL     1       2.142   5.082  18.270  0.00  0.00    +0.000 NA
ATOM      4  C   UNL     1       1.809   4.257  19.321  0.00  0.00    +0.000 A 
ATOM      5  C   UNL     1       0.834   3.251  19.406  0.00  0.00    +0.000 A 
ATOM      6  C   UNL     1       0.676   2.561  20.618  0.00  0.00    +0.000 A 
ATOM      7  C   UNL     1       1.472   2.869  21.724  0.00  0.00    +0.000 A 
ATOM      8  C   UNL     1       2.453   3.865  21.657  0.00  0.00    +0.000 A 
ATOM      9  C   UNL     1       2.591   4.532  20.436  0.00  0.00    +0.000 A 
ATOM     10  N   UNL     1       3.429   5.534  20.019  0.00  0.00    +0.000 N 
ATOM     11  H   UNL     1       4.122   5.992  20.593  0.00  0.00    +0.000 HD
ENDBRANCH   1   2
BRANCH   1  14
ATOM     12  C   UNL     1       6.040   6.780  17.052  0.00  0.00    +0.000 C 
ATOM     13  O   UNL     1       6.515   7.602  17.834  0.00  0.00    +0.000 OA
ATOM     14  N   UNL     1       4.704   6.478  17.033  0.00  0.00    +0.000 N 
ATOM     15  H   UNL     1       4.306   5.869  16.325  0.00  0.00    +0.000 HD
BRANCH  12  16
ATOM     16  C   UNL     1       6.922   5.958  16.113  0.00  0.00    +0.000 C 
BRANCH  16  17
ATOM     17  C   UNL     1       6.105   5.590  14.855  0.00  0.00    +0.000 C 
BRANCH  17  19
ATOM     18  C   UNL     1       5.609   3.705  13.188  0.00  0.00    +0.000 C 
ATOM     19  C   UNL     1       6.684   4.497  13.932  0.00  0.00    +0.000 C 
ATOM     20  C   UNL     1       7.634   5.150  12.922  0.00  0.00    +0.000 C 
ENDBRANCH  17  19
ENDBRANCH  16  17
BRANCH  16  21
ATOM     21  C   UNL     1       7.335   4.683  16.880  0.00  0.00    +0.000 C 
BRANCH  21  22
ATOM     22  C   UNL     1       7.084   4.695  18.372  0.00  0.00    +0.000 C 
ATOM     23  O   UNL     1       6.106   4.203  18.929  0.00  0.00    +0.000 OA
ATOM     24  N   UNL     1       8.093   5.318  19.073  0.00  0.00    +0.000 N 
ATOM     25  H   UNL     1       8.755   5.956  18.638  0.00  0.00    +0.000 HD
BRANCH  24  26
ATOM     26  O   UNL     1       7.904   5.460  20.466  0.00  0.00    +0.000 OA
ATOM     27  H   UNL     1       7.133   6.063  20.515  0.00  0.00    +0.000 HD
ENDBRANCH  24  26
ENDBRANCH  21  22
ENDBRANCH  16  21
ENDBRANCH  12  16
ENDBRANCH   1  14
BRANCH   1  28
ATOM     28  C   UNL     1       2.746   8.019  17.380  0.00  0.00    +0.000 C 
BRANCH  28  29
ATOM     29  C   UNL     1       2.034   8.869  18.389  0.00  0.00    +0.000 A 
ATOM     30  C   UNL     1       1.307   8.401  19.467  0.00  0.00    +0.000 A 
ATOM     31  N   UNL     1       0.673   9.463  20.049  0.00  0.00    +0.000 N 
ATOM     32  C   UNL     1       1.091  10.636  19.471  0.00  0.00    +0.000 A 
ATOM     33  C   UNL     1       0.755  11.954  19.788  0.00  0.00    +0.000 A 
ATOM     34  C   UNL     1       1.371  12.972  19.056  0.00  0.00    +0.000 A 
ATOM     35  C   UNL     1       2.263  12.673  18.033  0.00  0.00    +0.000 A 
ATOM     36  C   UNL     1       2.551  11.350  17.696  0.00  0.00    +0.000 A 
ATOM     37  C   UNL     1       1.965  10.299  18.436  0.00  0.00    +0.000 A 
ATOM     38  H   UNL     1       0.010   9.398  20.807  0.00  0.00    +0.000 HD
ENDBRANCH  28  29
ENDBRANCH   1  28
TORSDOF 10
ENDMDL
MODEL 6
REMARK VINA RESULT:      -8.8      0.775      1.372
REMARK  Name = 
REMARK  12 active torsions:
REMARK  status: ('A' for Active; 'I' for Inactive)
REMARK    1  A    between atoms: C_1  and  C_2
REMARK    2  A    between atoms: C_2  and  C_3
REMARK    3  A    between atoms: C_2  and  C_4
REMARK    4  A    between atoms: C_4  and  C_5
REMARK    5  A    between atoms: C_5  and  C_6
REMARK    6  A    between atoms: C_5  and  C_11
REMARK    7  A    between atoms: C_6  and  C_7
REMARK    8  A    between atoms: N_9  and  O_10
REMARK    9  A    between atoms: N_13  and  C_14
REMARK   10  A    between atoms: C_14  and  C_15
REMARK   11  A    between atoms: C_14  and  C_25
REMARK   12  A    between atoms: C_15  and  C_16
REMARK                            x       y       z     vdW  Elec       q    Type
REMARK                         _______ _______ _______ _____ _____    ______ ____
ROOT
ATOM      1  C   UNL     1       2.716   7.812  18.252  0.00  0.00    +0.000 C 
ENDROOT
BRANCH   1   2
ATOM      2  C   UNL     1       2.318   6.451  18.789  0.00  0.00    +0.000 A 
ATOM      3  N   UNL     1       2.187   6.092  20.058  0.00  0.00    +0.000 NA
ATOM      4  C   UNL     1       1.906   4.744  20.038  0.00  0.00    +0.000 A 
ATOM      5  C   UNL     1       1.704   3.847  21.099  0.00  0.00    +0.000 A 
ATOM      6  C   UNL     1       1.452   2.498  20.806  0.00  0.00    +0.000 A 
ATOM      7  C   UNL     1       1.403   2.051  19.484  0.00  0.00    +0.000 A 
ATOM      8  C   UNL     1       1.596   2.931  18.412  0.00  0.00    +0.000 A 
ATOM      9  C   UNL     1       1.840   4.270  18.733  0.00  0.00    +0.000 A 
ATOM     10  N   UNL     1       2.066   5.380  17.961  0.00  0.00    +0.000 N 
ATOM     11  H   UNL     1       2.110   5.389  16.952  0.00  0.00    +0.000 HD
ENDBRANCH   1   2
BRANCH   1  14
ATOM     12  C   UNL     1       4.904   6.765  17.753  0.00  0.00    +0.000 C 
ATOM     13  O   UNL     1       4.896   6.120  18.800  0.00  0.00    +0.000 OA
ATOM     14  N   UNL     1       3.907   7.647  17.430  0.00  0.00    +0.000 N 
ATOM     15  H   UNL     1       3.967   8.242  16.610  0.00  0.00    +0.000 HD
BRANCH  12  16
ATOM     16  C   UNL     1       5.976   6.552  16.685  0.00  0.00    +0.000 C 
BRANCH  16  17
ATOM     17  C   UNL     1       5.829   5.127  16.106  0.00  0.00    +0.000 C 
BRANCH  17  19
ATOM     18  C   UNL     1       7.384   5.074  14.068  0.00  0.00    +0.000 C 
ATOM     19  C   UNL     1       5.946   4.971  14.576  0.00  0.00    +0.000 C 
ATOM     20  C   UNL     1       5.350   3.621  14.166  0.00  0.00    +0.000 C 
ENDBRANCH  17  19
ENDBRANCH  16  17
BRANCH  16  21
ATOM     21  C   UNL     1       7.346   6.713  17.379  0.00  0.00    +0.000 C 
BRANCH  21  22
ATOM     22  C   UNL     1       7.721   5.632  18.367  0.00  0.00    +0.000 C 
ATOM     23  O   UNL     1       7.825   4.436  18.105  0.00  0.00    +0.000 OA
ATOM     24  N   UNL     1       7.957   6.129  19.630  0.00  0.00    +0.000 N 
ATOM     25  H   UNL     1       7.623   7.040  19.936  0.00  0.00    +0.000 HD
BRANCH  24  26
ATOM     26  O   UNL     1       8.225   5.183  20.646  0.00  0.00    +0.000 OA
ATOM     27  H   UNL     1       8.586   5.741  21.366  0.00  0.00    +0.000 HD
ENDBRANCH  24  26
ENDBRANCH  21  22
ENDBRANCH  16  21
ENDBRANCH  12  16
ENDBRANCH   1  14
BRANCH   1  28
ATOM     28  C   UNL     1       1.554   8.535  17.520  0.00  0.00    +0.000 C 
BRANCH  28  29
ATOM     29  C   UNL     1       0.914   9.625  18.327  0.00  0.00    +0.000 A 
ATOM     30  C   UNL     1       1.519  10.333  19.348  0.00  0.00    +0.000 A 
ATOM     31  N   UNL     1       0.571  11.114  19.947  0.00  0.00    +0.000 N 
ATOM     32  C   UNL     1      -0.607  11.048  19.244  0.00  0.00    +0.000 A 
ATOM     33  C   UNL     1      -1.810  11.723  19.459  0.00  0.00    +0.000 A 
ATOM     34  C   UNL     1      -2.848  11.500  18.550  0.00  0.00    +0.000 A 
ATOM     35  C   UNL     1      -2.688  10.615  17.491  0.00  0.00    +0.000 A 
ATOM     36  C   UNL     1      -1.495   9.911  17.318  0.00  0.00    +0.000 A 
ATOM     37  C   UNL     1      -0.418  10.136  18.205  0.00  0.00    +0.000 A 
ATOM     38  H   UNL     1       0.719  11.673  20.774  0.00  0.00    +0.000 HD
ENDBRANCH  28  29
ENDBRANCH   1  28
TORSDOF 10
ENDMDL
MODEL 7
REMARK VINA RESULT:      -8.8      2.924      7.657
REMARK  Name = 
REMARK  12 active torsions:
REMARK  status: ('A' for Active; 'I' for Inactive)
REMARK    1  A    between atoms: C_1  and  C_2
REMARK    2  A    between atoms: C_2  and  C_3
REMARK    3  A    between atoms: C_2  and  C_4
REMARK    4  A    between atoms: C_4  and  C_5
REMARK    5  A    between atoms: C_5  and  C_6
REMARK    6  A    between atoms: C_5  and  C_11
REMARK    7  A    between atoms: C_6  and  C_7
REMARK    8  A    between atoms: N_9  and  O_10
REMARK    9  A    between atoms: N_13  and  C_14
REMARK   10  A    between atoms: C_14  and  C_15
REMARK   11  A    between atoms: C_14  and  C_25
REMARK   12  A    between atoms: C_15  and  C_16
REMARK                            x       y       z     vdW  Elec       q    Type
REMARK                         _______ _______ _______ _____ _____    ______ ____
ROOT
ATOM      1  C   UNL     1       2.773   7.358  18.201  0.00  0.00    +0.000 C 
ENDROOT
BRANCH   1   2
ATOM      2  C   UNL     1       2.496   5.994  18.802  0.00  0.00    +0.000 A 
ATOM      3  N   UNL     1       2.090   4.903  18.170  0.00  0.00    +0.000 NA
ATOM      4  C   UNL     1       1.892   3.956  19.150  0.00  0.00    +0.000 A 
ATOM      5  C   UNL     1       1.433   2.633  19.049  0.00  0.00    +0.000 A 
ATOM      6  C   UNL     1       1.295   1.872  20.220  0.00  0.00    +0.000 A 
ATOM      7  C   UNL     1       1.606   2.418  21.467  0.00  0.00    +0.000 A 
ATOM      8  C   UNL     1       2.071   3.733  21.588  0.00  0.00    +0.000 A 
ATOM      9  C   UNL     1       2.203   4.465  20.404  0.00  0.00    +0.000 A 
ATOM     10  N   UNL     1       2.622   5.747  20.151  0.00  0.00    +0.000 N 
ATOM     11  H   UNL     1       2.906   6.417  20.851  0.00  0.00    +0.000 HD
ENDBRANCH   1   2
BRANCH   1  14
ATOM     12  C   UNL     1       1.614   9.534  18.445  0.00  0.00    +0.000 C 
ATOM     13  O   UNL     1       1.872   9.862  17.288  0.00  0.00    +0.000 OA
ATOM     14  N   UNL     1       2.055   8.354  18.984  0.00  0.00    +0.000 N 
ATOM     15  H   UNL     1       1.917   8.133  19.965  0.00  0.00    +0.000 HD
BRANCH  12  16
ATOM     16  C   UNL     1       0.695  10.370  19.333  0.00  0.00    +0.000 C 
BRANCH  16  17
ATOM     17  C   UNL     1       0.903   9.948  20.805  0.00  0.00    +0.000 C 
BRANCH  17  19
ATOM     18  C   UNL     1      -0.088   9.497  23.127  0.00  0.00    +0.000 C 
ATOM     19  C   UNL     1      -0.259  10.211  21.785  0.00  0.00    +0.000 C 
ATOM     20  C   UNL     1      -0.385  11.720  22.016  0.00  0.00    +0.000 C 
ENDBRANCH  17  19
ENDBRANCH  16  17
BRANCH  16  21
ATOM     21  C   UNL     1      -0.755  10.077  18.888  0.00  0.00    +0.000 C 
BRANCH  21  22
ATOM     22  C   UNL     1      -1.412  11.133  18.027  0.00  0.00    +0.000 C 
ATOM     23  O   UNL     1      -1.634  12.291  18.371  0.00  0.00    +0.000 OA
ATOM     24  N   UNL     1      -1.737  10.665  16.773  0.00  0.00    +0.000 N 
ATOM     25  H   UNL     1      -1.817   9.674  16.557  0.00  0.00    +0.000 HD
BRANCH  24  26
ATOM     26  O   UNL     1      -2.438  11.552  15.926  0.00  0.00    +0.000 OA
ATOM     27  H   UNL     1      -3.311  11.620  16.366  0.00  0.00    +0.000 HD
ENDBRANCH  24  26
ENDBRANCH  21  22
ENDBRANCH  16  21
ENDBRANCH  12  16
ENDBRANCH   1  14
BRANCH   1  28
ATOM     28  C   UNL     1       4.288   7.659  18.057  0.00  0.00    +0.000 C 
BRANCH  28  29
ATOM     29  C   UNL     1       5.135   6.435  17.875  0.00  0.00    +0.000 A 
ATOM     30  C   UNL     1       5.737   5.713  18.889  0.00  0.00    +0.000 A 
ATOM     31  N   UNL     1       6.555   4.778  18.321  0.00  0.00    +0.000 N 
ATOM     32  C   UNL     1       6.386   4.769  16.958  0.00  0.00    +0.000 A 
ATOM     33  C   UNL     1       6.968   3.942  15.994  0.00  0.00    +0.000 A 
ATOM     34  C   UNL     1       6.576   4.123  14.666  0.00  0.00    +0.000 A 
ATOM     35  C   UNL     1       5.661   5.111  14.322  0.00  0.00    +0.000 A 
ATOM     36  C   UNL     1       5.125   5.961  15.291  0.00  0.00    +0.000 A 
ATOM     37  C   UNL     1       5.481   5.785  16.646  0.00  0.00    +0.000 A 
ATOM     38  H   UNL     1       7.179   4.169  18.829  0.00  0.00    +0.000 HD
ENDBRANCH  28  29
ENDBRANCH   1  28
TORSDOF 10
ENDMDL
MODEL 8
REMARK VINA RESULT:      -8.7      0.944      1.559
REMARK  Name = 
REMARK  12 active torsions:
REMARK  status: ('A' for Active; 'I' for Inactive)
REMARK    1  A    between atoms: C_1  and  C_2
REMARK    2  A    between atoms: C_2  and  C_3
REMARK    3  A    between atoms: C_2  and  C_4
REMARK    4  A    between atoms: C_4  and  C_5
REMARK    5  A    between atoms: C_5  and  C_6
REMARK    6  A    between atoms: C_5  and  C_11
REMARK    7  A    between atoms: C_6  and  C_7
REMARK    8  A    between atoms: N_9  and  O_10
REMARK    9  A    between atoms: N_13  and  C_14
REMARK   10  A    between atoms: C_14  and  C_15
REMARK   11  A    between atoms: C_14  and  C_25
REMARK   12  A    between atoms: C_15  and  C_16
REMARK                            x       y       z     vdW  Elec       q    Type
REMARK                         _______ _______ _______ _____ _____    ______ ____
ROOT
ATOM      1  C   UNL     1       2.578   7.910  18.263  0.00  0.00    +0.000 C 
ENDROOT
BRANCH   1   2
ATOM      2  C   UNL     1       2.235   6.520  18.761  0.00  0.00    +0.000 A 
ATOM      3  N   UNL     1       2.072   6.132  20.018  0.00  0.00    +0.000 NA
ATOM      4  C   UNL     1       1.867   4.772  19.965  0.00  0.00    +0.000 A 
ATOM      5  C   UNL     1       1.672   3.846  21.003  0.00  0.00    +0.000 A 
ATOM      6  C   UNL     1       1.507   2.491  20.679  0.00  0.00    +0.000 A 
ATOM      7  C   UNL     1       1.538   2.065  19.349  0.00  0.00    +0.000 A 
ATOM      8  C   UNL     1       1.726   2.973  18.301  0.00  0.00    +0.000 A 
ATOM      9  C   UNL     1       1.882   4.317  18.652  0.00  0.00    +0.000 A 
ATOM     10  N   UNL     1       2.077   5.452  17.907  0.00  0.00    +0.000 N 
ATOM     11  H   UNL     1       2.162   5.482  16.901  0.00  0.00    +0.000 HD
ENDBRANCH   1   2
BRANCH   1  14
ATOM     12  C   UNL     1       4.768   6.952  17.612  0.00  0.00    +0.000 C 
ATOM     13  O   UNL     1       4.845   6.290  18.645  0.00  0.00    +0.000 OA
ATOM     14  N   UNL     1       3.722   7.803  17.368  0.00  0.00    +0.000 N 
ATOM     15  H   UNL     1       3.711   8.415  16.558  0.00  0.00    +0.000 HD
BRANCH  12  16
ATOM     16  C   UNL     1       5.779   6.798  16.477  0.00  0.00    +0.000 C 
BRANCH  16  17
ATOM     17  C   UNL     1       5.241   5.762  15.466  0.00  0.00    +0.000 C 
BRANCH  17  19
ATOM     18  C   UNL     1       4.900   3.381  16.355  0.00  0.00    +0.000 C 
ATOM     19  C   UNL     1       5.800   4.327  15.560  0.00  0.00    +0.000 C 
ATOM     20  C   UNL     1       6.003   3.778  14.144  0.00  0.00    +0.000 C 
ENDBRANCH  17  19
ENDBRANCH  16  17
BRANCH  16  21
ATOM     21  C   UNL     1       7.097   6.300  17.109  0.00  0.00    +0.000 C 
BRANCH  21  22
ATOM     22  C   UNL     1       7.854   7.307  17.947  0.00  0.00    +0.000 C 
ATOM     23  O   UNL     1       8.437   7.058  18.999  0.00  0.00    +0.000 OA
ATOM     24  N   UNL     1       7.840   8.570  17.395  0.00  0.00    +0.000 N 
ATOM     25  H   UNL     1       7.160   8.859  16.697  0.00  0.00    +0.000 HD
BRANCH  24  26
ATOM     26  O   UNL     1       8.443   9.599  18.152  0.00  0.00    +0.000 OA
ATOM     27  H   UNL     1       9.196   9.138  18.576  0.00  0.00    +0.000 HD
ENDBRANCH  24  26
ENDBRANCH  21  22
ENDBRANCH  16  21
ENDBRANCH  12  16
ENDBRANCH   1  14
BRANCH   1  28
ATOM     28  C   UNL     1       1.364   8.641  17.632  0.00  0.00    +0.000 C 
BRANCH  28  29
ATOM     29  C   UNL     1       0.744   9.672  18.526  0.00  0.00    +0.000 A 
ATOM     30  C   UNL     1       1.329  10.217  19.655  0.00  0.00    +0.000 A 
ATOM     31  N   UNL     1       0.395  10.985  20.291  0.00  0.00    +0.000 N 
ATOM     32  C   UNL     1      -0.740  11.081  19.524  0.00  0.00    +0.000 A 
ATOM     33  C   UNL     1      -1.911  11.807  19.754  0.00  0.00    +0.000 A 
ATOM     34  C   UNL     1      -2.903  11.760  18.772  0.00  0.00    +0.000 A 
ATOM     35  C   UNL     1      -2.734  10.993  17.625  0.00  0.00    +0.000 A 
ATOM     36  C   UNL     1      -1.578  10.235  17.433  0.00  0.00    +0.000 A 
ATOM     37  C   UNL     1      -0.545  10.283  18.396  0.00  0.00    +0.000 A 
ATOM     38  H   UNL     1       0.527  11.435  21.185  0.00  0.00    +0.000 HD
ENDBRANCH  28  29
ENDBRANCH   1  28
TORSDOF 10
ENDMDL
MODEL 9
REMARK VINA RESULT:      -8.5      1.528      2.349
REMARK  Name = 
REMARK  12 active torsions:
REMARK  status: ('A' for Active; 'I' for Inactive)
REMARK    1  A    between atoms: C_1  and  C_2
REMARK    2  A    between atoms: C_2  and  C_3
REMARK    3  A    between atoms: C_2  and  C_4
REMARK    4  A    between atoms: C_4  and  C_5
REMARK    5  A    between atoms: C_5  and  C_6
REMARK    6  A    between atoms: C_5  and  C_11
REMARK    7  A    between atoms: C_6  and  C_7
REMARK    8  A    between atoms: N_9  and  O_10
REMARK    9  A    between atoms: N_13  and  C_14
REMARK   10  A    between atoms: C_14  and  C_15
REMARK   11  A    between atoms: C_14  and  C_25
REMARK   12  A    between atoms: C_15  and  C_16
REMARK                            x       y       z     vdW  Elec       q    Type
REMARK                         _______ _______ _______ _____ _____    ______ ____
ROOT
ATOM      1  C   UNL     1       2.698   7.932  18.397  0.00  0.00    +0.000 C 
ENDROOT
BRANCH   1   2
ATOM      2  C   UNL     1       2.295   6.529  18.807  0.00  0.00    +0.000 A 
ATOM      3  N   UNL     1       2.085   6.078  20.035  0.00  0.00    +0.000 NA
ATOM      4  C   UNL     1       1.837   4.730  19.900  0.00  0.00    +0.000 A 
ATOM      5  C   UNL     1       1.583   3.755  20.878  0.00  0.00    +0.000 A 
ATOM      6  C   UNL     1       1.382   2.426  20.473  0.00  0.00    +0.000 A 
ATOM      7  C   UNL     1       1.435   2.075  19.123  0.00  0.00    +0.000 A 
ATOM      8  C   UNL     1       1.681   3.033  18.132  0.00  0.00    +0.000 A 
ATOM      9  C   UNL     1       1.872   4.349  18.564  0.00  0.00    +0.000 A 
ATOM     10  N   UNL     1       2.125   5.516  17.889  0.00  0.00    +0.000 N 
ATOM     11  H   UNL     1       2.238   5.599  16.889  0.00  0.00    +0.000 HD
ENDBRANCH   1   2
BRANCH   1  14
ATOM     12  C   UNL     1       4.835   6.943  17.629  0.00  0.00    +0.000 C 
ATOM     13  O   UNL     1       4.929   6.235  18.630  0.00  0.00    +0.000 OA
ATOM     14  N   UNL     1       3.806   7.831  17.458  0.00  0.00    +0.000 N 
ATOM     15  H   UNL     1       3.784   8.476  16.674  0.00  0.00    +0.000 HD
BRANCH  12  16
ATOM     16  C   UNL     1       5.801   6.808  16.453  0.00  0.00    +0.000 C 
BRANCH  16  17
ATOM     17  C   UNL     1       5.240   5.764  15.462  0.00  0.00    +0.000 C 
BRANCH  17  19
ATOM     18  C   UNL     1       4.936   3.379  16.352  0.00  0.00    +0.000 C 
ATOM     19  C   UNL     1       5.813   4.334  15.543  0.00  0.00    +0.000 C 
ATOM     20  C   UNL     1       5.995   3.789  14.123  0.00  0.00    +0.000 C 
ENDBRANCH  17  19
ENDBRANCH  16  17
BRANCH  16  21
ATOM     21  C   UNL     1       7.152   6.332  17.029  0.00  0.00    +0.000 C 
BRANCH  21  22
ATOM     22  C   UNL     1       7.871   7.311  17.931  0.00  0.00    +0.000 C 
ATOM     23  O   UNL     1       8.420   7.025  18.993  0.00  0.00    +0.000 OA
ATOM     24  N   UNL     1       7.866   8.594  17.429  0.00  0.00    +0.000 N 
ATOM     25  H   UNL     1       7.208   8.906  16.720  0.00  0.00    +0.000 HD
BRANCH  24  26
ATOM     26  O   UNL     1       8.434   9.597  18.246  0.00  0.00    +0.000 OA
ATOM     27  H   UNL     1       7.886   9.547  19.056  0.00  0.00    +0.000 HD
ENDBRANCH  24  26
ENDBRANCH  21  22
ENDBRANCH  16  21
ENDBRANCH  12  16
ENDBRANCH   1  14
BRANCH   1  28
ATOM     28  C   UNL     1       1.506   8.769  17.861  0.00  0.00    +0.000 C 
BRANCH  28  29
ATOM     29  C   UNL     1       1.085   9.880  18.776  0.00  0.00    +0.000 A 
ATOM     30  C   UNL     1       0.191   9.766  19.824  0.00  0.00    +0.000 A 
ATOM     31  N   UNL     1      -0.062  11.018  20.308  0.00  0.00    +0.000 N 
ATOM     32  C   UNL     1       0.762  11.934  19.702  0.00  0.00    +0.000 A 
ATOM     33  C   UNL     1       0.887  13.306  19.929  0.00  0.00    +0.000 A 
ATOM     34  C   UNL     1       1.851  13.998  19.192  0.00  0.00    +0.000 A 
ATOM     35  C   UNL     1       2.632  13.341  18.248  0.00  0.00    +0.000 A 
ATOM     36  C   UNL     1       2.461  11.979  17.998  0.00  0.00    +0.000 A 
ATOM     37  C   UNL     1       1.513  11.247  18.747  0.00  0.00    +0.000 A 
ATOM     38  H   UNL     1      -0.742  11.237  21.021  0.00  0.00    +0.000 HD
ENDBRANCH  28  29
ENDBRANCH   1  28
TORSDOF 10
ENDMDL
