MODEL 1
REMARK VINA RESULT:      -8.0      0.000      0.000
REMARK  Name = 
REMARK  4 active torsions:
REMARK  status: ('A' for Active; 'I' for Inactive)
REMARK    1  A    between atoms: C_1  and  C_2
REMARK    2  A    between atoms: C_2  and  C_3
REMARK    3  A    between atoms: C_6  and  C_7
REMARK    4  A    between atoms: N_21  and  C_22
REMARK                            x       y       z     vdW  Elec       q    Type
REMARK                         _______ _______ _______ _____ _____    ______ ____
ROOT
ATOM      1  C   UNL     1       5.199   6.122  16.743  0.00  0.00    +0.000 C 
ATOM      2  C   UNL     1       5.586   5.440  15.464  0.00  0.00    +0.000 A 
ATOM      3  N   UNL     1       6.491   5.924  14.554  0.00  0.00    +0.000 N 
ATOM      4  C   UNL     1       6.682   5.007  13.542  0.00  0.00    +0.000 A 
ATOM      5  C   UNL     1       7.538   5.051  12.435  0.00  0.00    +0.000 A 
ATOM      6  C   UNL     1       7.516   3.963  11.555  0.00  0.00    +0.000 A 
ATOM      7  C   UNL     1       6.670   2.878  11.776  0.00  0.00    +0.000 A 
ATOM      8  C   UNL     1       5.836   2.839  12.899  0.00  0.00    +0.000 A 
ATOM      9  C   UNL     1       5.845   3.919  13.802  0.00  0.00    +0.000 A 
ATOM     10  C   UNL     1       5.199   4.189  15.035  0.00  0.00    +0.000 A 
ATOM     11  C   UNL     1       4.303   3.359  15.871  0.00  0.00    +0.000 C 
ATOM     12  C   UNL     1       4.511   3.724  17.366  0.00  0.00    +0.000 C 
ATOM     13  C   UNL     1       3.478   2.888  18.158  0.00  0.00    +0.000 C 
ATOM     14  O   UNL     1       3.176   1.741  17.828  0.00  0.00    +0.000 OA
ATOM     15  N   UNL     1       3.003   3.471  19.325  0.00  0.00    +0.000 N 
ATOM     16  C   UNL     1       2.185   2.689  20.234  0.00  0.00    +0.000 C 
ATOM     17  C   UNL     1       3.708   4.613  19.881  0.00  0.00    +0.000 C 
ATOM     18  C   UNL     1       4.004   5.682  18.834  0.00  0.00    +0.000 C 
ATOM     19  O   UNL     1       4.001   6.877  19.129  0.00  0.00    +0.000 OA
ATOM     20  N   UNL     1       4.425   5.194  17.600  0.00  0.00    +0.000 N 
ATOM     21  H   UNL     1       7.004   6.791  14.641  0.00  0.00    +0.000 HD
ENDROOT
BRANCH   1  25
ATOM     22  C   UNL     1       7.890   8.165  18.013  0.00  0.00    +0.000 A 
ATOM     23  C   UNL     1       8.222   7.036  18.728  0.00  0.00    +0.000 A 
ATOM     24  C   UNL     1       7.273   6.049  18.375  0.00  0.00    +0.000 A 
ATOM     25  C   UNL     1       6.415   6.637  17.465  0.00  0.00    +0.000 A 
ATOM     26  O   UNL     1       6.796   7.928  17.239  0.00  0.00    +0.000 OA
BRANCH  22  28
ATOM     27  C   UNL     1       9.170   9.904  19.231  0.00  0.00    +0.000 C 
ATOM     28  C   UNL     1       8.466   9.528  17.937  0.00  0.00    +0.000 C 
ENDBRANCH  22  28
ENDBRANCH   1  25
TORSDOF 2
ENDMDL
MODEL 2
REMARK VINA RESULT:      -7.0      9.691     11.792
REMARK  Name = 
REMARK  4 active torsions:
REMARK  status: ('A' for Active; 'I' for Inactive)
REMARK    1  A    between atoms: C_1  and  C_2
REMARK    2  A    between atoms: C_2  and  C_3
REMARK    3  A    between atoms: C_6  and  C_7
REMARK    4  A    between atoms: N_21  and  C_22
REMARK                            x       y       z     vdW  Elec       q    Type
REMARK                         _______ _______ _______ _____ _____    ______ ____
ROOT
ATOM      1  C   UNL     1      -1.272  12.402  21.142  0.00  0.00    +0.000 C 
ATOM      2  C   UNL     1      -1.851  11.955  19.831  0.00  0.00    +0.000 A 
ATOM      3  N   UNL     1      -1.275  11.042  18.984  0.00  0.00    +0.000 N 
ATOM      4  C   UNL     1      -2.113  10.791  17.918  0.00  0.00    +0.000 A 
ATOM      5  C   UNL     1      -1.965   9.906  16.844  0.00  0.00    +0.000 A 
ATOM      6  C   UNL     1      -2.989   9.866  15.891  0.00  0.00    +0.000 A 
ATOM      7  C   UNL     1      -4.114  10.679  16.011  0.00  0.00    +0.000 A 
ATOM      8  C   UNL     1      -4.258  11.543  17.103  0.00  0.00    +0.000 A 
ATOM      9  C   UNL     1      -3.244  11.597  18.078  0.00  0.00    +0.000 A 
ATOM     10  C   UNL     1      -3.081  12.286  19.306  0.00  0.00    +0.000 A 
ATOM     11  C   UNL     1      -3.996  13.176  20.056  0.00  0.00    +0.000 C 
ATOM     12  C   UNL     1      -3.729  13.023  21.578  0.00  0.00    +0.000 C 
ATOM     13  C   UNL     1      -4.652  14.048  22.279  0.00  0.00    +0.000 C 
ATOM     14  O   UNL     1      -5.782  14.301  21.862  0.00  0.00    +0.000 OA
ATOM     15  N   UNL     1      -4.166  14.576  23.468  0.00  0.00    +0.000 N 
ATOM     16  C   UNL     1      -5.036  15.392  24.296  0.00  0.00    +0.000 C 
ATOM     17  C   UNL     1      -3.044  13.927  24.122  0.00  0.00    +0.000 C 
ATOM     18  C   UNL     1      -1.895  13.639  23.161  0.00  0.00    +0.000 C 
ATOM     19  O   UNL     1      -0.725  13.691  23.536  0.00  0.00    +0.000 OA
ATOM     20  N   UNL     1      -2.282  13.167  21.909  0.00  0.00    +0.000 N 
ATOM     21  H   UNL     1      -0.400  10.562  19.146  0.00  0.00    +0.000 HD
ENDROOT
BRANCH   1  25
ATOM     22  C   UNL     1       0.588   9.551  22.343  0.00  0.00    +0.000 A 
ATOM     23  C   UNL     1      -0.307   9.585  23.388  0.00  0.00    +0.000 A 
ATOM     24  C   UNL     1      -1.184  10.663  23.126  0.00  0.00    +0.000 A 
ATOM     25  C   UNL     1      -0.769  11.225  21.934  0.00  0.00    +0.000 A 
ATOM     26  O   UNL     1       0.310  10.542  21.451  0.00  0.00    +0.000 OA
BRANCH  22  28
ATOM     27  C   UNL     1       1.427   7.730  20.885  0.00  0.00    +0.000 C 
ATOM     28  C   UNL     1       1.748   8.686  22.022  0.00  0.00    +0.000 C 
ENDBRANCH  22  28
ENDBRANCH   1  25
TORSDOF 2
ENDMDL
MODEL 3
REMARK VINA RESULT:      -6.8      2.986      6.021
REMARK  Name = 
REMARK  4 active torsions:
REMARK  status: ('A' for Active; 'I' for Inactive)
REMARK    1  A    between atoms: C_1  and  C_2
REMARK    2  A    between atoms: C_2  and  C_3
REMARK    3  A    between atoms: C_6  and  C_7
REMARK    4  A    between atoms: N_21  and  C_22
REMARK                            x       y       z     vdW  Elec       q    Type
REMARK                         _______ _______ _______ _____ _____    ______ ____
ROOT
ATOM      1  C   UNL     1       3.313   6.196  19.820  0.00  0.00    +0.000 C 
ATOM      2  C   UNL     1       4.094   5.901  18.573  0.00  0.00    +0.000 A 
ATOM      3  N   UNL     1       4.759   4.729  18.316  0.00  0.00    +0.000 N 
ATOM      4  C   UNL     1       5.291   4.755  17.045  0.00  0.00    +0.000 A 
ATOM      5  C   UNL     1       6.002   3.773  16.345  0.00  0.00    +0.000 A 
ATOM      6  C   UNL     1       6.433   4.084  15.051  0.00  0.00    +0.000 A 
ATOM      7  C   UNL     1       6.162   5.326  14.482  0.00  0.00    +0.000 A 
ATOM      8  C   UNL     1       5.431   6.290  15.186  0.00  0.00    +0.000 A 
ATOM      9  C   UNL     1       4.982   5.999  16.488  0.00  0.00    +0.000 A 
ATOM     10  C   UNL     1       4.192   6.686  17.445  0.00  0.00    +0.000 A 
ATOM     11  C   UNL     1       3.476   7.980  17.372  0.00  0.00    +0.000 C 
ATOM     12  C   UNL     1       2.204   7.914  18.259  0.00  0.00    +0.000 C 
ATOM     13  C   UNL     1       1.571   9.324  18.205  0.00  0.00    +0.000 C 
ATOM     14  O   UNL     1       1.588  10.008  17.182  0.00  0.00    +0.000 OA
ATOM     15  N   UNL     1       0.885   9.718  19.347  0.00  0.00    +0.000 N 
ATOM     16  C   UNL     1       0.095  10.936  19.323  0.00  0.00    +0.000 C 
ATOM     17  C   UNL     1       0.534   8.717  20.339  0.00  0.00    +0.000 C 
ATOM     18  C   UNL     1       1.712   7.823  20.708  0.00  0.00    +0.000 C 
ATOM     19  O   UNL     1       1.844   7.384  21.850  0.00  0.00    +0.000 OA
ATOM     20  N   UNL     1       2.506   7.425  19.636  0.00  0.00    +0.000 N 
ATOM     21  H   UNL     1       4.796   3.929  18.933  0.00  0.00    +0.000 HD
ENDROOT
BRANCH   1  25
ATOM     22  C   UNL     1       1.251   3.234  19.772  0.00  0.00    +0.000 A 
ATOM     23  C   UNL     1       1.216   3.407  21.138  0.00  0.00    +0.000 A 
ATOM     24  C   UNL     1       1.981   4.564  21.411  0.00  0.00    +0.000 A 
ATOM     25  C   UNL     1       2.440   5.029  20.194  0.00  0.00    +0.000 A 
ATOM     26  O   UNL     1       1.988   4.220  19.191  0.00  0.00    +0.000 OA
BRANCH  22  28
ATOM     27  C   UNL     1       1.710   1.701  17.879  0.00  0.00    +0.000 C 
ATOM     28  C   UNL     1       0.671   2.222  18.858  0.00  0.00    +0.000 C 
ENDBRANCH  22  28
ENDBRANCH   1  25
TORSDOF 2
ENDMDL
MODEL 4
REMARK VINA RESULT:      -6.7      7.268      8.995
REMARK  Name = 
REMARK  4 active torsions:
REMARK  status: ('A' for Active; 'I' for Inactive)
REMARK    1  A    between atoms: C_1  and  C_2
REMARK    2  A    between atoms: C_2  and  C_3
REMARK    3  A    between atoms: C_6  and  C_7
REMARK    4  A    between atoms: N_21  and  C_22
REMARK                            x       y       z     vdW  Elec       q    Type
REMARK                         _______ _______ _______ _____ _____    ______ ____
ROOT
ATOM      1  C   UNL     1       0.590  12.126  19.044  0.00  0.00    +0.000 C 
ATOM      2  C   UNL     1       1.110  10.725  18.899  0.00  0.00    +0.000 A 
ATOM      3  N   UNL     1       2.062  10.326  17.996  0.00  0.00    +0.000 N 
ATOM      4  C   UNL     1       2.374   8.998  18.193  0.00  0.00    +0.000 A 
ATOM      5  C   UNL     1       3.313   8.186  17.545  0.00  0.00    +0.000 A 
ATOM      6  C   UNL     1       3.411   6.852  17.956  0.00  0.00    +0.000 A 
ATOM      7  C   UNL     1       2.601   6.353  18.974  0.00  0.00    +0.000 A 
ATOM      8  C   UNL     1       1.682   7.183  19.628  0.00  0.00    +0.000 A 
ATOM      9  C   UNL     1       1.570   8.530  19.235  0.00  0.00    +0.000 A 
ATOM     10  C   UNL     1       0.815   9.640  19.695  0.00  0.00    +0.000 A 
ATOM     11  C   UNL     1      -0.106   9.786  20.845  0.00  0.00    +0.000 C 
ATOM     12  C   UNL     1      -0.035  11.243  21.377  0.00  0.00    +0.000 C 
ATOM     13  C   UNL     1      -1.089  11.337  22.506  0.00  0.00    +0.000 C 
ATOM     14  O   UNL     1      -1.311  10.399  23.271  0.00  0.00    +0.000 OA
ATOM     15  N   UNL     1      -1.682  12.582  22.670  0.00  0.00    +0.000 N 
ATOM     16  C   UNL     1      -2.534  12.823  23.821  0.00  0.00    +0.000 C 
ATOM     17  C   UNL     1      -1.076  13.741  22.037  0.00  0.00    +0.000 C 
ATOM     18  C   UNL     1      -0.747  13.498  20.568  0.00  0.00    +0.000 C 
ATOM     19  O   UNL     1      -0.827  14.406  19.741  0.00  0.00    +0.000 OA
ATOM     20  N   UNL     1      -0.206  12.246  20.287  0.00  0.00    +0.000 N 
ATOM     21  H   UNL     1       2.526  10.927  17.328  0.00  0.00    +0.000 HD
ENDROOT
BRANCH   1  25
ATOM     22  C   UNL     1       2.961  14.688  18.128  0.00  0.00    +0.000 A 
ATOM     23  C   UNL     1       3.451  14.493  19.400  0.00  0.00    +0.000 A 
ATOM     24  C   UNL     1       2.652  13.481  19.982  0.00  0.00    +0.000 A 
ATOM     25  C   UNL     1       1.720  13.120  19.028  0.00  0.00    +0.000 A 
ATOM     26  O   UNL     1       1.913  13.852  17.892  0.00  0.00    +0.000 OA
BRANCH  22  28
ATOM     27  C   UNL     1       2.852  17.015  17.280  0.00  0.00    +0.000 C 
ATOM     28  C   UNL     1       3.338  15.598  17.020  0.00  0.00    +0.000 C 
ENDBRANCH  22  28
ENDBRANCH   1  25
TORSDOF 2
ENDMDL
MODEL 5
REMARK VINA RESULT:      -6.7      6.907      8.658
REMARK  Name = 
REMARK  4 active torsions:
REMARK  status: ('A' for Active; 'I' for Inactive)
REMARK    1  A    between atoms: C_1  and  C_2
REMARK    2  A    between atoms: C_2  and  C_3
REMARK    3  A    between atoms: C_6  and  C_7
REMARK    4  A    between atoms: N_21  and  C_22
REMARK                            x       y       z     vdW  Elec       q    Type
REMARK                         _______ _______ _______ _____ _____    ______ ____
ROOT
ATOM      1  C   UNL     1       0.550  11.717  18.905  0.00  0.00    +0.000 C 
ATOM      2  C   UNL     1       1.158  10.348  18.809  0.00  0.00    +0.000 A 
ATOM      3  N   UNL     1       2.103   9.967  17.891  0.00  0.00    +0.000 N 
ATOM      4  C   UNL     1       2.512   8.674  18.142  0.00  0.00    +0.000 A 
ATOM      5  C   UNL     1       3.481   7.894  17.500  0.00  0.00    +0.000 A 
ATOM      6  C   UNL     1       3.683   6.593  17.972  0.00  0.00    +0.000 A 
ATOM      7  C   UNL     1       2.945   6.095  19.043  0.00  0.00    +0.000 A 
ATOM      8  C   UNL     1       1.995   6.894  19.690  0.00  0.00    +0.000 A 
ATOM      9  C   UNL     1       1.778   8.209  19.236  0.00  0.00    +0.000 A 
ATOM     10  C   UNL     1       0.966   9.288  19.669  0.00  0.00    +0.000 A 
ATOM     11  C   UNL     1       0.077   9.433  20.844  0.00  0.00    +0.000 C 
ATOM     12  C   UNL     1       0.067  10.917  21.301  0.00  0.00    +0.000 C 
ATOM     13  C   UNL     1      -0.951  10.999  22.463  0.00  0.00    +0.000 C 
ATOM     14  O   UNL     1      -1.082  10.089  23.281  0.00  0.00    +0.000 OA
ATOM     15  N   UNL     1      -1.622  12.209  22.588  0.00  0.00    +0.000 N 
ATOM     16  C   UNL     1      -2.447  12.452  23.757  0.00  0.00    +0.000 C 
ATOM     17  C   UNL     1      -1.118  13.371  21.876  0.00  0.00    +0.000 C 
ATOM     18  C   UNL     1      -0.824  13.075  20.410  0.00  0.00    +0.000 C 
ATOM     19  O   UNL     1      -0.995  13.931  19.542  0.00  0.00    +0.000 OA
ATOM     20  N   UNL     1      -0.210  11.849  20.170  0.00  0.00    +0.000 N 
ATOM     21  H   UNL     1       2.502  10.562  17.178  0.00  0.00    +0.000 HD
ENDROOT
BRANCH   1  25
ATOM     22  C   UNL     1       3.208  14.065  19.575  0.00  0.00    +0.000 A 
ATOM     23  C   UNL     1       3.096  14.359  18.235  0.00  0.00    +0.000 A 
ATOM     24  C   UNL     1       2.064  13.534  17.732  0.00  0.00    +0.000 A 
ATOM     25  C   UNL     1       1.608  12.782  18.798  0.00  0.00    +0.000 A 
ATOM     26  O   UNL     1       2.302  13.111  19.926  0.00  0.00    +0.000 OA
BRANCH  22  28
ATOM     27  C   UNL     1       3.294  14.926  21.898  0.00  0.00    +0.000 C 
ATOM     28  C   UNL     1       4.092  14.561  20.657  0.00  0.00    +0.000 C 
ENDBRANCH  22  28
ENDBRANCH   1  25
TORSDOF 2
ENDMDL
MODEL 6
REMARK VINA RESULT:      -6.4      9.336     11.870
REMARK  Name = 
REMARK  4 active torsions:
REMARK  status: ('A' for Active; 'I' for Inactive)
REMARK    1  A    between atoms: C_1  and  C_2
REMARK    2  A    between atoms: C_2  and  C_3
REMARK    3  A    between atoms: C_6  and  C_7
REMARK    4  A    between atoms: N_21  and  C_22
REMARK                            x       y       z     vdW  Elec       q    Type
REMARK                         _______ _______ _______ _____ _____    ______ ____
ROOT
ATOM      1  C   UNL     1       0.580  12.802  21.354  0.00  0.00    +0.000 C 
ATOM      2  C   UNL     1       1.051  13.908  20.454  0.00  0.00    +0.000 A 
ATOM      3  N   UNL     1       2.088  13.811  19.562  0.00  0.00    +0.000 N 
ATOM      4  C   UNL     1       2.193  14.976  18.831  0.00  0.00    +0.000 A 
ATOM      5  C   UNL     1       3.066  15.310  17.788  0.00  0.00    +0.000 A 
ATOM      6  C   UNL     1       2.948  16.587  17.228  0.00  0.00    +0.000 A 
ATOM      7  C   UNL     1       1.995  17.490  17.694  0.00  0.00    +0.000 A 
ATOM      8  C   UNL     1       1.115  17.133  18.723  0.00  0.00    +0.000 A 
ATOM      9  C   UNL     1       1.211  15.852  19.298  0.00  0.00    +0.000 A 
ATOM     10  C   UNL     1       0.475  15.148  20.285  0.00  0.00    +0.000 A 
ATOM     11  C   UNL     1      -0.748  15.511  21.036  0.00  0.00    +0.000 C 
ATOM     12  C   UNL     1      -1.563  14.225  21.344  0.00  0.00    +0.000 C 
ATOM     13  C   UNL     1      -2.765  14.677  22.206  0.00  0.00    +0.000 C 
ATOM     14  O   UNL     1      -3.335  15.751  22.019  0.00  0.00    +0.000 OA
ATOM     15  N   UNL     1      -3.228  13.744  23.125  0.00  0.00    +0.000 N 
ATOM     16  C   UNL     1      -4.466  13.997  23.839  0.00  0.00    +0.000 C 
ATOM     17  C   UNL     1      -2.803  12.361  23.000  0.00  0.00    +0.000 C 
ATOM     18  C   UNL     1      -1.294  12.227  22.821  0.00  0.00    +0.000 C 
ATOM     19  O   UNL     1      -0.681  11.270  23.292  0.00  0.00    +0.000 OA
ATOM     20  N   UNL     1      -0.719  13.164  21.967  0.00  0.00    +0.000 N 
ATOM     21  H   UNL     1       2.651  12.987  19.404  0.00  0.00    +0.000 HD
ENDROOT
BRANCH   1  25
ATOM     22  C   UNL     1      -0.204  10.221  18.956  0.00  0.00    +0.000 A 
ATOM     23  C   UNL     1       0.599   9.434  19.752  0.00  0.00    +0.000 A 
ATOM     24  C   UNL     1       1.039  10.260  20.812  0.00  0.00    +0.000 A 
ATOM     25  C   UNL     1       0.478  11.505  20.599  0.00  0.00    +0.000 A 
ATOM     26  O   UNL     1      -0.287  11.480  19.469  0.00  0.00    +0.000 OA
BRANCH  22  28
ATOM     27  C   UNL     1      -2.446  10.180  17.900  0.00  0.00    +0.000 C 
ATOM     28  C   UNL     1      -0.954   9.971  17.702  0.00  0.00    +0.000 C 
ENDBRANCH  22  28
ENDBRANCH   1  25
TORSDOF 2
ENDMDL
MODEL 7
REMARK VINA RESULT:      -6.4     10.534     13.613
REMARK  Name = 
REMARK  4 active torsions:
REMARK  status: ('A' for Active; 'I' for Inactive)
REMARK    1  A    between atoms: C_1  and  C_2
REMARK    2  A    between atoms: C_2  and  C_3
REMARK    3  A    between atoms: C_6  and  C_7
REMARK    4  A    between atoms: N_21  and  C_22
REMARK                            x       y       z     vdW  Elec       q    Type
REMARK                         _______ _______ _______ _____ _____    ______ ____
ROOT
ATOM      1  C   UNL     1      -2.579  13.184  19.489  0.00  0.00    +0.000 C 
ATOM      2  C   UNL     1      -3.795  13.033  20.355  0.00  0.00    +0.000 A 
ATOM      3  N   UNL     1      -4.927  12.338  20.013  0.00  0.00    +0.000 N 
ATOM      4  C   UNL     1      -5.810  12.320  21.072  0.00  0.00    +0.000 A 
ATOM      5  C   UNL     1      -7.058  11.698  21.194  0.00  0.00    +0.000 A 
ATOM      6  C   UNL     1      -7.747  11.859  22.401  0.00  0.00    +0.000 A 
ATOM      7  C   UNL     1      -7.207  12.612  23.441  0.00  0.00    +0.000 A 
ATOM      8  C   UNL     1      -5.948  13.211  23.312  0.00  0.00    +0.000 A 
ATOM      9  C   UNL     1      -5.233  13.058  22.109  0.00  0.00    +0.000 A 
ATOM     10  C   UNL     1      -3.950  13.459  21.657  0.00  0.00    +0.000 A 
ATOM     11  C   UNL     1      -2.841  14.150  22.353  0.00  0.00    +0.000 C 
ATOM     12  C   UNL     1      -1.487  13.665  21.767  0.00  0.00    +0.000 C 
ATOM     13  C   UNL     1      -0.393  14.499  22.476  0.00  0.00    +0.000 C 
ATOM     14  O   UNL     1      -0.485  14.826  23.658  0.00  0.00    +0.000 OA
ATOM     15  N   UNL     1       0.746  14.755  21.724  0.00  0.00    +0.000 N 
ATOM     16  C   UNL     1       1.904  15.357  22.361  0.00  0.00    +0.000 C 
ATOM     17  C   UNL     1       0.978  13.990  20.511  0.00  0.00    +0.000 C 
ATOM     18  C   UNL     1      -0.252  13.935  19.611  0.00  0.00    +0.000 C 
ATOM     19  O   UNL     1      -0.142  13.916  18.386  0.00  0.00    +0.000 OA
ATOM     20  N   UNL     1      -1.459  13.748  20.278  0.00  0.00    +0.000 N 
ATOM     21  H   UNL     1      -5.071  11.844  19.143  0.00  0.00    +0.000 HD
ENDROOT
BRANCH   1  25
ATOM     22  C   UNL     1      -2.216  10.340  17.297  0.00  0.00    +0.000 A 
ATOM     23  C   UNL     1      -1.370   9.870  18.277  0.00  0.00    +0.000 A 
ATOM     24  C   UNL     1      -1.355  10.853  19.293  0.00  0.00    +0.000 A 
ATOM     25  C   UNL     1      -2.194  11.867  18.872  0.00  0.00    +0.000 A 
ATOM     26  O   UNL     1      -2.726  11.550  17.655  0.00  0.00    +0.000 OA
BRANCH  22  28
ATOM     27  C   UNL     1      -3.390  10.859  15.176  0.00  0.00    +0.000 C 
ATOM     28  C   UNL     1      -2.652   9.805  15.985  0.00  0.00    +0.000 C 
ENDBRANCH  22  28
ENDBRANCH   1  25
TORSDOF 2
ENDMDL
MODEL 8
REMARK VINA RESULT:      -6.4     10.921     13.385
REMARK  Name = 
REMARK  4 active torsions:
REMARK  status: ('A' for Active; 'I' for Inactive)
REMARK    1  A    between atoms: C_1  and  C_2
REMARK    2  A    between atoms: C_2  and  C_3
REMARK    3  A    between atoms: C_6  and  C_7
REMARK    4  A    between atoms: N_21  and  C_22
REMARK                            x       y       z     vdW  Elec       q    Type
REMARK                         _______ _______ _______ _____ _____    ______ ____
ROOT
ATOM      1  C   UNL     1      -1.845  13.227  21.141  0.00  0.00    +0.000 C 
ATOM      2  C   UNL     1      -3.161  12.984  20.462  0.00  0.00    +0.000 A 
ATOM      3  N   UNL     1      -3.390  12.030  19.504  0.00  0.00    +0.000 N 
ATOM      4  C   UNL     1      -4.726  12.014  19.162  0.00  0.00    +0.000 A 
ATOM      5  C   UNL     1      -5.419  11.185  18.271  0.00  0.00    +0.000 A 
ATOM      6  C   UNL     1      -6.792  11.405  18.115  0.00  0.00    +0.000 A 
ATOM      7  C   UNL     1      -7.442  12.414  18.823  0.00  0.00    +0.000 A 
ATOM      8  C   UNL     1      -6.740  13.220  19.726  0.00  0.00    +0.000 A 
ATOM      9  C   UNL     1      -5.359  13.014  19.904  0.00  0.00    +0.000 A 
ATOM     10  C   UNL     1      -4.369  13.581  20.747  0.00  0.00    +0.000 A 
ATOM     11  C   UNL     1      -4.468  14.586  21.831  0.00  0.00    +0.000 C 
ATOM     12  C   UNL     1      -3.386  14.290  22.905  0.00  0.00    +0.000 C 
ATOM     13  C   UNL     1      -3.493  15.431  23.944  0.00  0.00    +0.000 C 
ATOM     14  O   UNL     1      -4.574  15.925  24.261  0.00  0.00    +0.000 OA
ATOM     15  N   UNL     1      -2.306  15.779  24.575  0.00  0.00    +0.000 N 
ATOM     16  C   UNL     1      -2.337  16.697  25.700  0.00  0.00    +0.000 C 
ATOM     17  C   UNL     1      -1.167  14.884  24.479  0.00  0.00    +0.000 C 
ATOM     18  C   UNL     1      -0.895  14.437  23.047  0.00  0.00    +0.000 C 
ATOM     19  O   UNL     1       0.252  14.235  22.651  0.00  0.00    +0.000 OA
ATOM     20  N   UNL     1      -2.031  14.127  22.303  0.00  0.00    +0.000 N 
ATOM     21  H   UNL     1      -2.703  11.379  19.148  0.00  0.00    +0.000 HD
ENDROOT
BRANCH   1  25
ATOM     22  C   UNL     1       0.022  10.140  21.251  0.00  0.00    +0.000 A 
ATOM     23  C   UNL     1      -0.416  10.085  22.555  0.00  0.00    +0.000 A 
ATOM     24  C   UNL     1      -1.212  11.237  22.756  0.00  0.00    +0.000 A 
ATOM     25  C   UNL     1      -1.210  11.929  21.560  0.00  0.00    +0.000 A 
ATOM     26  O   UNL     1      -0.462  11.255  20.637  0.00  0.00    +0.000 OA
BRANCH  22  28
ATOM     27  C   UNL     1       1.302   8.018  21.200  0.00  0.00    +0.000 C 
ATOM     28  C   UNL     1       0.886   9.260  20.429  0.00  0.00    +0.000 C 
ENDBRANCH  22  28
ENDBRANCH   1  25
TORSDOF 2
ENDMDL
MODEL 9
REMARK VINA RESULT:      -6.4      9.928     12.060
REMARK  Name = 
REMARK  4 active torsions:
REMARK  status: ('A' for Active; 'I' for Inactive)
REMARK    1  A    between atoms: C_1  and  C_2
REMARK    2  A    between atoms: C_2  and  C_3
REMARK    3  A    between atoms: C_6  and  C_7
REMARK    4  A    between atoms: N_21  and  C_22
REMARK                            x       y       z     vdW  Elec       q    Type
REMARK                         _______ _______ _______ _____ _____    ______ ____
ROOT
ATOM      1  C   UNL     1       8.537  15.567  20.722  0.00  0.00    +0.000 C 
ATOM      2  C   UNL     1       8.127  14.653  21.840  0.00  0.00    +0.000 A 
ATOM      3  N   UNL     1       7.078  14.873  22.695  0.00  0.00    +0.000 N 
ATOM      4  C   UNL     1       6.921  13.795  23.540  0.00  0.00    +0.000 A 
ATOM      5  C   UNL     1       5.964  13.559  24.534  0.00  0.00    +0.000 A 
ATOM      6  C   UNL     1       6.054  12.361  25.250  0.00  0.00    +0.000 A 
ATOM      7  C   UNL     1       7.062  11.438  24.981  0.00  0.00    +0.000 A 
ATOM      8  C   UNL     1       7.999  11.677  23.969  0.00  0.00    +0.000 A 
ATOM      9  C   UNL     1       7.925  12.873  23.231  0.00  0.00    +0.000 A 
ATOM     10  C   UNL     1       8.644  13.409  22.132  0.00  0.00    +0.000 A 
ATOM     11  C   UNL     1       9.726  12.837  21.299  0.00  0.00    +0.000 C 
ATOM     12  C   UNL     1       9.615  13.399  19.856  0.00  0.00    +0.000 C 
ATOM     13  C   UNL     1      10.829  12.831  19.082  0.00  0.00    +0.000 C 
ATOM     14  O   UNL     1      11.256  11.695  19.282  0.00  0.00    +0.000 OA
ATOM     15  N   UNL     1      11.328  13.642  18.072  0.00  0.00    +0.000 N 
ATOM     16  C   UNL     1      12.333  13.118  17.165  0.00  0.00    +0.000 C 
ATOM     17  C   UNL     1      10.526  14.758  17.602  0.00  0.00    +0.000 C 
ATOM     18  C   UNL     1       9.981  15.608  18.745  0.00  0.00    +0.000 C 
ATOM     19  O   UNL     1       9.843  16.824  18.623  0.00  0.00    +0.000 OA
ATOM     20  N   UNL     1       9.515  14.887  19.841  0.00  0.00    +0.000 N 
ATOM     21  H   UNL     1       6.459  15.672  22.671  0.00  0.00    +0.000 HD
ENDROOT
BRANCH   1  25
ATOM     22  C   UNL     1       5.598  15.745  18.635  0.00  0.00    +0.000 A 
ATOM     23  C   UNL     1       5.625  17.084  18.954  0.00  0.00    +0.000 A 
ATOM     24  C   UNL     1       6.746  17.270  19.795  0.00  0.00    +0.000 A 
ATOM     25  C   UNL     1       7.337  16.030  19.941  0.00  0.00    +0.000 A 
ATOM     26  O   UNL     1       6.640  15.098  19.226  0.00  0.00    +0.000 OA
BRANCH  22  28
ATOM     27  C   UNL     1       3.471  15.701  17.363  0.00  0.00    +0.000 C 
ATOM     28  C   UNL     1       4.689  14.911  17.813  0.00  0.00    +0.000 C 
ENDBRANCH  22  28
ENDBRANCH   1  25
TORSDOF 2
ENDMDL
