MODEL 1
REMARK VINA RESULT:      -7.3      0.000      0.000
REMARK  Name = 
REMARK  3 active torsions:
REMARK  status: ('A' for Active; 'I' for Inactive)
REMARK    1  A    between atoms: C_2  and  C_3
REMARK    2  A    between atoms: C_3  and  C_4
REMARK    3  A    between atoms: N_17  and  C_18
REMARK                            x       y       z     vdW  Elec       q    Type
REMARK                         _______ _______ _______ _____ _____    ______ ____
ROOT
ATOM      1  C   UNL     1       3.797  15.755  18.914  0.00  0.00    +0.000 C 
ATOM      2  C   UNL     1       5.129  15.942  19.063  0.00  0.00    +0.000 A 
ATOM      3  C   UNL     1       5.745  17.299  19.164  0.00  0.00    +0.000 A 
ATOM      4  C   UNL     1       7.083  17.452  19.068  0.00  0.00    +0.000 A 
ATOM      5  C   UNL     1       7.938  16.260  18.893  0.00  0.00    +0.000 A 
ATOM      6  C   UNL     1       9.187  16.330  18.336  0.00  0.00    +0.000 C 
ATOM      7  N   UNL     1       9.877  17.574  18.236  0.00  0.00    +0.000 N 
ATOM      8  C   UNL     1      10.197  18.328  19.465  0.00  0.00    +0.000 C 
ATOM      9  C   UNL     1      11.513  17.732  19.935  0.00  0.00    +0.000 C 
ATOM     10  C   UNL     1      12.252  17.428  18.640  0.00  0.00    +0.000 C 
ATOM     11  C   UNL     1      11.169  17.358  17.544  0.00  0.00    +0.000 C 
ATOM     12  C   UNL     1      11.013  15.977  16.898  0.00  0.00    +0.000 C 
ATOM     13  N   UNL     1       9.963  15.298  17.704  0.00  0.00    +0.000 N 
ATOM     14  C   UNL     1       7.330  15.019  19.338  0.00  0.00    +0.000 A 
ATOM     15  C   UNL     1       6.012  14.809  19.307  0.00  0.00    +0.000 A 
ENDROOT
BRANCH  13  16
ATOM     16  C   UNL     1      10.228  13.900  18.168  0.00  0.00    +0.000 C 
ATOM     17  C   UNL     1      10.623  13.980  19.664  0.00  0.00    +0.000 C 
ATOM     18  C   UNL     1      10.875  12.601  20.255  0.00  0.00    +0.000 C 
ATOM     19  C   UNL     1      12.052  11.951  19.514  0.00  0.00    +0.000 C 
ATOM     20  C   UNL     1      11.703  11.783  18.027  0.00  0.00    +0.000 C 
ATOM     21  C   UNL     1      10.471  10.875  17.910  0.00  0.00    +0.000 C 
ATOM     22  C   UNL     1       9.285  11.560  18.588  0.00  0.00    +0.000 C 
ATOM     23  C   UNL     1       9.606  11.759  20.083  0.00  0.00    +0.000 C 
ATOM     24  C   UNL     1       9.073  12.900  17.855  0.00  0.00    +0.000 C 
ATOM     25  C   UNL     1      11.424  13.190  17.433  0.00  0.00    +0.000 C 
ENDBRANCH  13  16
BRANCH   1  27
ATOM     26  N   UNL     1       2.624  13.308  18.305  0.00  0.00    +0.000 NA
ATOM     27  C   UNL     1       3.156  14.418  18.581  0.00  0.00    +0.000 C 
ENDBRANCH   1  27
BRANCH   1  28
ATOM     28  C   UNL     1       2.925  16.966  19.201  0.00  0.00    +0.000 C 
ATOM     29  N   UNL     1       2.201  17.971  19.439  0.00  0.00    +0.000 NA
ENDBRANCH   1  28
TORSDOF 3
ENDMDL
MODEL 2
REMARK VINA RESULT:      -7.3      0.272      1.469
REMARK  Name = 
REMARK  3 active torsions:
REMARK  status: ('A' for Active; 'I' for Inactive)
REMARK    1  A    between atoms: C_2  and  C_3
REMARK    2  A    between atoms: C_3  and  C_4
REMARK    3  A    between atoms: N_17  and  C_18
REMARK                            x       y       z     vdW  Elec       q    Type
REMARK                         _______ _______ _______ _____ _____    ______ ____
ROOT
ATOM      1  C   UNL     1       3.873  15.557  18.698  0.00  0.00    +0.000 C 
ATOM      2  C   UNL     1       5.192  15.809  18.863  0.00  0.00    +0.000 A 
ATOM      3  C   UNL     1       5.753  17.193  18.865  0.00  0.00    +0.000 A 
ATOM      4  C   UNL     1       7.086  17.391  18.790  0.00  0.00    +0.000 A 
ATOM      5  C   UNL     1       7.990  16.224  18.737  0.00  0.00    +0.000 A 
ATOM      6  C   UNL     1       9.251  16.297  18.206  0.00  0.00    +0.000 C 
ATOM      7  N   UNL     1       9.895  17.555  18.019  0.00  0.00    +0.000 N 
ATOM      8  C   UNL     1      10.152  18.421  19.188  0.00  0.00    +0.000 C 
ATOM      9  C   UNL     1      11.477  17.920  19.738  0.00  0.00    +0.000 C 
ATOM     10  C   UNL     1      12.262  17.539  18.492  0.00  0.00    +0.000 C 
ATOM     11  C   UNL     1      11.214  17.334  17.379  0.00  0.00    +0.000 C 
ATOM     12  C   UNL     1      11.128  15.899  16.848  0.00  0.00    +0.000 C 
ATOM     13  N   UNL     1      10.083  15.248  17.682  0.00  0.00    +0.000 N 
ATOM     14  C   UNL     1       7.418  15.000  19.269  0.00  0.00    +0.000 A 
ATOM     15  C   UNL     1       6.110  14.736  19.224  0.00  0.00    +0.000 A 
ENDROOT
BRANCH  13  16
ATOM     16  C   UNL     1      10.387  13.905  18.269  0.00  0.00    +0.000 C 
ATOM     17  C   UNL     1       9.184  12.983  17.950  0.00  0.00    +0.000 C 
ATOM     18  C   UNL     1       9.405  11.569  18.468  0.00  0.00    +0.000 C 
ATOM     19  C   UNL     1       9.543  11.616  19.996  0.00  0.00    +0.000 C 
ATOM     20  C   UNL     1      10.762  12.468  20.384  0.00  0.00    +0.000 C 
ATOM     21  C   UNL     1      12.021  11.829  19.784  0.00  0.00    +0.000 C 
ATOM     22  C   UNL     1      11.909  11.850  18.260  0.00  0.00    +0.000 C 
ATOM     23  C   UNL     1      10.686  11.014  17.833  0.00  0.00    +0.000 C 
ATOM     24  C   UNL     1      11.774  13.330  17.849  0.00  0.00    +0.000 C 
ATOM     25  C   UNL     1      10.542  13.904  19.834  0.00  0.00    +0.000 C 
ENDBRANCH  13  16
BRANCH   1  27
ATOM     26  N   UNL     1       2.810  13.023  18.269  0.00  0.00    +0.000 NA
ATOM     27  C   UNL     1       3.292  14.172  18.463  0.00  0.00    +0.000 C 
ENDBRANCH   1  27
BRANCH   1  28
ATOM     28  C   UNL     1       2.947  16.752  18.861  0.00  0.00    +0.000 C 
ATOM     29  N   UNL     1       2.180  17.743  18.996  0.00  0.00    +0.000 NA
ENDBRANCH   1  28
TORSDOF 3
ENDMDL
MODEL 3
REMARK VINA RESULT:      -7.2      0.248      1.405
REMARK  Name = 
REMARK  3 active torsions:
REMARK  status: ('A' for Active; 'I' for Inactive)
REMARK    1  A    between atoms: C_2  and  C_3
REMARK    2  A    between atoms: C_3  and  C_4
REMARK    3  A    between atoms: N_17  and  C_18
REMARK                            x       y       z     vdW  Elec       q    Type
REMARK                         _______ _______ _______ _____ _____    ______ ____
ROOT
ATOM      1  C   UNL     1       3.697  15.609  18.680  0.00  0.00    +0.000 C 
ATOM      2  C   UNL     1       5.020  15.826  18.867  0.00  0.00    +0.000 A 
ATOM      3  C   UNL     1       5.616  17.195  18.892  0.00  0.00    +0.000 A 
ATOM      4  C   UNL     1       6.955  17.359  18.839  0.00  0.00    +0.000 A 
ATOM      5  C   UNL     1       7.829  16.170  18.787  0.00  0.00    +0.000 A 
ATOM      6  C   UNL     1       9.100  16.217  18.276  0.00  0.00    +0.000 C 
ATOM      7  N   UNL     1       9.778  17.460  18.111  0.00  0.00    +0.000 N 
ATOM      8  C   UNL     1      10.040  18.307  19.293  0.00  0.00    +0.000 C 
ATOM      9  C   UNL     1      11.342  17.766  19.858  0.00  0.00    +0.000 C 
ATOM     10  C   UNL     1      12.137  17.378  18.619  0.00  0.00    +0.000 C 
ATOM     11  C   UNL     1      11.101  17.212  17.489  0.00  0.00    +0.000 C 
ATOM     12  C   UNL     1      10.986  15.785  16.941  0.00  0.00    +0.000 C 
ATOM     13  N   UNL     1       9.912  15.152  17.753  0.00  0.00    +0.000 N 
ATOM     14  C   UNL     1       7.218  14.957  19.297  0.00  0.00    +0.000 A 
ATOM     15  C   UNL     1       5.905  14.726  19.230  0.00  0.00    +0.000 A 
ENDROOT
BRANCH  13  16
ATOM     16  C   UNL     1      10.173  13.796  18.329  0.00  0.00    +0.000 C 
ATOM     17  C   UNL     1      11.366  13.189  17.550  0.00  0.00    +0.000 C 
ATOM     18  C   UNL     1      11.748  11.816  18.085  0.00  0.00    +0.000 C 
ATOM     19  C   UNL     1      10.559  10.863  17.899  0.00  0.00    +0.000 C 
ATOM     20  C   UNL     1       9.351  11.375  18.700  0.00  0.00    +0.000 C 
ATOM     21  C   UNL     1       9.730  11.423  20.186  0.00  0.00    +0.000 C 
ATOM     22  C   UNL     1      10.867  12.426  20.374  0.00  0.00    +0.000 C 
ATOM     23  C   UNL     1      12.096  11.953  19.571  0.00  0.00    +0.000 C 
ATOM     24  C   UNL     1      10.339  13.788  19.879  0.00  0.00    +0.000 C 
ATOM     25  C   UNL     1       8.980  12.785  18.166  0.00  0.00    +0.000 C 
ENDBRANCH  13  16
BRANCH   1  27
ATOM     26  N   UNL     1       2.577  13.108  18.208  0.00  0.00    +0.000 NA
ATOM     27  C   UNL     1       3.085  14.242  18.422  0.00  0.00    +0.000 C 
ENDBRANCH   1  27
BRANCH   1  28
ATOM     28  C   UNL     1       2.800  16.826  18.842  0.00  0.00    +0.000 C 
ATOM     29  N   UNL     1       2.056  17.835  18.976  0.00  0.00    +0.000 NA
ENDBRANCH   1  28
TORSDOF 3
ENDMDL
MODEL 4
REMARK VINA RESULT:      -6.5      1.285      1.890
REMARK  Name = 
REMARK  3 active torsions:
REMARK  status: ('A' for Active; 'I' for Inactive)
REMARK    1  A    between atoms: C_2  and  C_3
REMARK    2  A    between atoms: C_3  and  C_4
REMARK    3  A    between atoms: N_17  and  C_18
REMARK                            x       y       z     vdW  Elec       q    Type
REMARK                         _______ _______ _______ _____ _____    ______ ____
ROOT
ATOM      1  C   UNL     1       4.262  15.886  21.143  0.00  0.00    +0.000 C 
ATOM      2  C   UNL     1       5.569  16.073  20.851  0.00  0.00    +0.000 A 
ATOM      3  C   UNL     1       6.168  17.429  20.672  0.00  0.00    +0.000 A 
ATOM      4  C   UNL     1       7.405  17.567  20.148  0.00  0.00    +0.000 A 
ATOM      5  C   UNL     1       8.176  16.361  19.783  0.00  0.00    +0.000 A 
ATOM      6  C   UNL     1       9.184  16.390  18.855  0.00  0.00    +0.000 C 
ATOM      7  N   UNL     1       9.790  17.620  18.469  0.00  0.00    +0.000 N 
ATOM      8  C   UNL     1      10.473  18.446  19.486  0.00  0.00    +0.000 C 
ATOM      9  C   UNL     1      11.878  17.871  19.549  0.00  0.00    +0.000 C 
ATOM     10  C   UNL     1      12.173  17.484  18.107  0.00  0.00    +0.000 C 
ATOM     11  C   UNL     1      10.800  17.355  17.416  0.00  0.00    +0.000 C 
ATOM     12  C   UNL     1      10.465  15.939  16.936  0.00  0.00    +0.000 C 
ATOM     13  N   UNL     1       9.733  15.316  18.072  0.00  0.00    +0.000 N 
ATOM     14  C   UNL     1       7.756  15.153  20.470  0.00  0.00    +0.000 A 
ATOM     15  C   UNL     1       6.499  14.950  20.870  0.00  0.00    +0.000 A 
ENDROOT
BRANCH  13  16
ATOM     16  C   UNL     1      10.149  13.947  18.511  0.00  0.00    +0.000 C 
ATOM     17  C   UNL     1       8.914  13.023  18.361  0.00  0.00    +0.000 C 
ATOM     18  C   UNL     1       9.237  11.586  18.742  0.00  0.00    +0.000 C 
ATOM     19  C   UNL     1       9.651  11.546  20.220  0.00  0.00    +0.000 C 
ATOM     20  C   UNL     1      10.914  12.396  20.431  0.00  0.00    +0.000 C 
ATOM     21  C   UNL     1      12.047  11.816  19.574  0.00  0.00    +0.000 C 
ATOM     22  C   UNL     1      11.658  11.924  18.100  0.00  0.00    +0.000 C 
ATOM     23  C   UNL     1      10.383  11.092  17.852  0.00  0.00    +0.000 C 
ATOM     24  C   UNL     1      11.440  13.423  17.811  0.00  0.00    +0.000 C 
ATOM     25  C   UNL     1      10.587  13.857  20.019  0.00  0.00    +0.000 C 
ENDBRANCH  13  16
BRANCH   1  27
ATOM     26  N   UNL     1       2.987  13.414  21.084  0.00  0.00    +0.000 NA
ATOM     27  C   UNL     1       3.565  14.535  21.111  0.00  0.00    +0.000 C 
ENDBRANCH   1  27
BRANCH   1  28
ATOM     28  C   UNL     1       3.509  17.118  21.619  0.00  0.00    +0.000 C 
ATOM     29  N   UNL     1       2.885  18.140  22.014  0.00  0.00    +0.000 NA
ENDBRANCH   1  28
TORSDOF 3
ENDMDL
MODEL 5
REMARK VINA RESULT:      -6.5      7.633     10.865
REMARK  Name = 
REMARK  3 active torsions:
REMARK  status: ('A' for Active; 'I' for Inactive)
REMARK    1  A    between atoms: C_2  and  C_3
REMARK    2  A    between atoms: C_3  and  C_4
REMARK    3  A    between atoms: N_17  and  C_18
REMARK                            x       y       z     vdW  Elec       q    Type
REMARK                         _______ _______ _______ _____ _____    ______ ____
ROOT
ATOM      1  C   UNL     1       1.232  10.939  19.224  0.00  0.00    +0.000 C 
ATOM      2  C   UNL     1       1.374   9.595  19.167  0.00  0.00    +0.000 A 
ATOM      3  C   UNL     1       0.551   8.663  19.995  0.00  0.00    +0.000 A 
ATOM      4  C   UNL     1       0.883   7.358  20.091  0.00  0.00    +0.000 A 
ATOM      5  C   UNL     1       2.052   6.851  19.344  0.00  0.00    +0.000 A 
ATOM      6  C   UNL     1       2.728   5.721  19.720  0.00  0.00    +0.000 C 
ATOM      7  N   UNL     1       2.139   4.777  20.611  0.00  0.00    +0.000 N 
ATOM      8  C   UNL     1       0.882   4.102  20.227  0.00  0.00    +0.000 C 
ATOM      9  C   UNL     1       1.337   2.911  19.400  0.00  0.00    +0.000 C 
ATOM     10  C   UNL     1       2.625   2.472  20.079  0.00  0.00    +0.000 C 
ATOM     11  C   UNL     1       3.114   3.694  20.884  0.00  0.00    +0.000 C 
ATOM     12  C   UNL     1       4.449   4.273  20.405  0.00  0.00    +0.000 C 
ATOM     13  N   UNL     1       4.076   5.320  19.417  0.00  0.00    +0.000 N 
ATOM     14  C   UNL     1       2.429   7.664  18.202  0.00  0.00    +0.000 A 
ATOM     15  C   UNL     1       2.227   8.983  18.156  0.00  0.00    +0.000 A 
ENDROOT
BRANCH  13  16
ATOM     16  C   UNL     1       4.789   5.332  18.101  0.00  0.00    +0.000 C 
ATOM     17  C   UNL     1       6.161   4.647  18.317  0.00  0.00    +0.000 C 
ATOM     18  C   UNL     1       6.960   4.566  17.024  0.00  0.00    +0.000 C 
ATOM     19  C   UNL     1       7.242   5.990  16.525  0.00  0.00    +0.000 C 
ATOM     20  C   UNL     1       5.918   6.711  16.230  0.00  0.00    +0.000 C 
ATOM     21  C   UNL     1       5.166   5.935  15.140  0.00  0.00    +0.000 C 
ATOM     22  C   UNL     1       4.826   4.542  15.669  0.00  0.00    +0.000 C 
ATOM     23  C   UNL     1       6.134   3.791  15.991  0.00  0.00    +0.000 C 
ATOM     24  C   UNL     1       3.951   4.749  16.922  0.00  0.00    +0.000 C 
ATOM     25  C   UNL     1       5.096   6.771  17.546  0.00  0.00    +0.000 C 
ENDBRANCH  13  16
BRANCH   1  27
ATOM     26  N   UNL     1       2.986  12.744  18.041  0.00  0.00    +0.000 NA
ATOM     27  C   UNL     1       2.191  11.926  18.577  0.00  0.00    +0.000 C 
ENDBRANCH   1  27
BRANCH   1  28
ATOM     28  C   UNL     1      -0.031  11.442  19.905  0.00  0.00    +0.000 C 
ATOM     29  N   UNL     1      -1.079  11.858  20.470  0.00  0.00    +0.000 NA
ENDBRANCH   1  28
TORSDOF 3
ENDMDL
MODEL 6
REMARK VINA RESULT:      -6.5      3.477      5.954
REMARK  Name = 
REMARK  3 active torsions:
REMARK  status: ('A' for Active; 'I' for Inactive)
REMARK    1  A    between atoms: C_2  and  C_3
REMARK    2  A    between atoms: C_3  and  C_4
REMARK    3  A    between atoms: N_17  and  C_18
REMARK                            x       y       z     vdW  Elec       q    Type
REMARK                         _______ _______ _______ _____ _____    ______ ____
ROOT
ATOM      1  C   UNL     1       6.775  13.587  24.756  0.00  0.00    +0.000 C 
ATOM      2  C   UNL     1       7.368  13.341  23.565  0.00  0.00    +0.000 A 
ATOM      3  C   UNL     1       7.676  11.958  23.090  0.00  0.00    +0.000 A 
ATOM      4  C   UNL     1       8.476  11.765  22.020  0.00  0.00    +0.000 A 
ATOM      5  C   UNL     1       9.021  12.935  21.302  0.00  0.00    +0.000 A 
ATOM      6  C   UNL     1      10.161  12.865  20.544  0.00  0.00    +0.000 C 
ATOM      7  N   UNL     1      10.673  11.609  20.106  0.00  0.00    +0.000 N 
ATOM      8  C   UNL     1       9.841  10.747  19.241  0.00  0.00    +0.000 C 
ATOM      9  C   UNL     1      10.116  11.255  17.836  0.00  0.00    +0.000 C 
ATOM     10  C   UNL     1      11.589  11.635  17.873  0.00  0.00    +0.000 C 
ATOM     11  C   UNL     1      11.936  11.833  19.363  0.00  0.00    +0.000 C 
ATOM     12  C   UNL     1      12.331  13.266  19.734  0.00  0.00    +0.000 C 
ATOM     13  N   UNL     1      11.058  13.915  20.146  0.00  0.00    +0.000 N 
ATOM     14  C   UNL     1       8.262  14.158  21.489  0.00  0.00    +0.000 A 
ATOM     15  C   UNL     1       7.576  14.418  22.605  0.00  0.00    +0.000 A 
ENDROOT
BRANCH  13  16
ATOM     16  C   UNL     1      10.738  15.261  19.575  0.00  0.00    +0.000 C 
ATOM     17  C   UNL     1       9.651  15.053  18.492  0.00  0.00    +0.000 C 
ATOM     18  C   UNL     1       9.216  16.371  17.868  0.00  0.00    +0.000 C 
ATOM     19  C   UNL     1      10.425  17.013  17.173  0.00  0.00    +0.000 C 
ATOM     20  C   UNL     1      11.525  17.307  18.206  0.00  0.00    +0.000 C 
ATOM     21  C   UNL     1      10.970  18.281  19.254  0.00  0.00    +0.000 C 
ATOM     22  C   UNL     1       9.812  17.608  19.991  0.00  0.00    +0.000 C 
ATOM     23  C   UNL     1       8.692  17.285  18.981  0.00  0.00    +0.000 C 
ATOM     24  C   UNL     1      10.387  16.337  20.647  0.00  0.00    +0.000 C 
ATOM     25  C   UNL     1      11.949  15.962  18.856  0.00  0.00    +0.000 C 
ENDBRANCH  13  16
BRANCH   1  27
ATOM     26  N   UNL     1       6.546  16.116  25.890  0.00  0.00    +0.000 NA
ATOM     27  C   UNL     1       6.650  14.969  25.376  0.00  0.00    +0.000 C 
ENDBRANCH   1  27
BRANCH   1  28
ATOM     28  C   UNL     1       6.127  12.389  25.431  0.00  0.00    +0.000 C 
ATOM     29  N   UNL     1       5.590  11.396  25.992  0.00  0.00    +0.000 NA
ENDBRANCH   1  28
TORSDOF 3
ENDMDL
MODEL 7
REMARK VINA RESULT:      -6.5      3.859      6.373
REMARK  Name = 
REMARK  3 active torsions:
REMARK  status: ('A' for Active; 'I' for Inactive)
REMARK    1  A    between atoms: C_2  and  C_3
REMARK    2  A    between atoms: C_3  and  C_4
REMARK    3  A    between atoms: N_17  and  C_18
REMARK                            x       y       z     vdW  Elec       q    Type
REMARK                         _______ _______ _______ _____ _____    ______ ____
ROOT
ATOM      1  C   UNL     1       7.546  13.330  25.523  0.00  0.00    +0.000 C 
ATOM      2  C   UNL     1       7.906  13.124  24.235  0.00  0.00    +0.000 A 
ATOM      3  C   UNL     1       7.994  11.760  23.632  0.00  0.00    +0.000 A 
ATOM      4  C   UNL     1       8.583  11.580  22.431  0.00  0.00    +0.000 A 
ATOM      5  C   UNL     1       9.113  12.749  21.701  0.00  0.00    +0.000 A 
ATOM      6  C   UNL     1      10.099  12.638  20.756  0.00  0.00    +0.000 C 
ATOM      7  N   UNL     1      10.405  11.379  20.161  0.00  0.00    +0.000 N 
ATOM      8  C   UNL     1       9.361  10.660  19.403  0.00  0.00    +0.000 C 
ATOM      9  C   UNL     1       9.447  11.247  18.004  0.00  0.00    +0.000 C 
ATOM     10  C   UNL     1      10.936  11.494  17.809  0.00  0.00    +0.000 C 
ATOM     11  C   UNL     1      11.543  11.549  19.226  0.00  0.00    +0.000 C 
ATOM     12  C   UNL     1      12.133  12.910  19.609  0.00  0.00    +0.000 C 
ATOM     13  N   UNL     1      11.015  13.634  20.272  0.00  0.00    +0.000 N 
ATOM     14  C   UNL     1       8.518  14.015  22.089  0.00  0.00    +0.000 A 
ATOM     15  C   UNL     1       8.056  14.248  23.320  0.00  0.00    +0.000 A 
ENDROOT
BRANCH  13  16
ATOM     16  C   UNL     1      10.738  15.042  19.846  0.00  0.00    +0.000 C 
ATOM     17  C   UNL     1      10.835  15.931  21.110  0.00  0.00    +0.000 C 
ATOM     18  C   UNL     1      10.610  17.401  20.784  0.00  0.00    +0.000 C 
ATOM     19  C   UNL     1       9.192  17.572  20.221  0.00  0.00    +0.000 C 
ATOM     20  C   UNL     1       9.045  16.762  18.924  0.00  0.00    +0.000 C 
ATOM     21  C   UNL     1      10.061  17.283  17.898  0.00  0.00    +0.000 C 
ATOM     22  C   UNL     1      11.472  17.044  18.435  0.00  0.00    +0.000 C 
ATOM     23  C   UNL     1      11.653  17.833  19.747  0.00  0.00    +0.000 C 
ATOM     24  C   UNL     1      11.611  15.523  18.646  0.00  0.00    +0.000 C 
ATOM     25  C   UNL     1       9.297  15.266  19.257  0.00  0.00    +0.000 C 
ENDBRANCH  13  16
BRANCH   1  27
ATOM     26  N   UNL     1       7.757  15.776  26.829  0.00  0.00    +0.000 NA
ATOM     27  C   UNL     1       7.662  14.667  26.237  0.00  0.00    +0.000 C 
ENDBRANCH   1  27
BRANCH   1  28
ATOM     28  C   UNL     1       6.906  12.145  26.227  0.00  0.00    +0.000 C 
ATOM     29  N   UNL     1       6.374  11.163  26.812  0.00  0.00    +0.000 NA
ENDBRANCH   1  28
TORSDOF 3
ENDMDL
MODEL 8
REMARK VINA RESULT:      -6.5      3.860      6.346
REMARK  Name = 
REMARK  3 active torsions:
REMARK  status: ('A' for Active; 'I' for Inactive)
REMARK    1  A    between atoms: C_2  and  C_3
REMARK    2  A    between atoms: C_3  and  C_4
REMARK    3  A    between atoms: N_17  and  C_18
REMARK                            x       y       z     vdW  Elec       q    Type
REMARK                         _______ _______ _______ _____ _____    ______ ____
ROOT
ATOM      1  C   UNL     1       7.452  13.326  25.515  0.00  0.00    +0.000 C 
ATOM      2  C   UNL     1       7.816  13.112  24.230  0.00  0.00    +0.000 A 
ATOM      3  C   UNL     1       7.968  11.743  23.653  0.00  0.00    +0.000 A 
ATOM      4  C   UNL     1       8.561  11.567  22.453  0.00  0.00    +0.000 A 
ATOM      5  C   UNL     1       9.033  12.746  21.699  0.00  0.00    +0.000 A 
ATOM      6  C   UNL     1      10.020  12.664  20.752  0.00  0.00    +0.000 C 
ATOM      7  N   UNL     1      10.384  11.410  20.181  0.00  0.00    +0.000 N 
ATOM      8  C   UNL     1       9.373  10.627  19.441  0.00  0.00    +0.000 C 
ATOM      9  C   UNL     1       9.427  11.190  18.030  0.00  0.00    +0.000 C 
ATOM     10  C   UNL     1      10.901  11.504  17.825  0.00  0.00    +0.000 C 
ATOM     11  C   UNL     1      11.510  11.615  19.238  0.00  0.00    +0.000 C 
ATOM     12  C   UNL     1      12.035  13.010  19.593  0.00  0.00    +0.000 C 
ATOM     13  N   UNL     1      10.887  13.693  20.246  0.00  0.00    +0.000 N 
ATOM     14  C   UNL     1       8.380  13.990  22.065  0.00  0.00    +0.000 A 
ATOM     15  C   UNL     1       7.910  14.225  23.293  0.00  0.00    +0.000 A 
ENDROOT
BRANCH  13  16
ATOM     16  C   UNL     1      10.542  15.077  19.794  0.00  0.00    +0.000 C 
ATOM     17  C   UNL     1      11.727  15.588  18.937  0.00  0.00    +0.000 C 
ATOM     18  C   UNL     1      11.464  16.982  18.385  0.00  0.00    +0.000 C 
ATOM     19  C   UNL     1      11.305  17.958  19.559  0.00  0.00    +0.000 C 
ATOM     20  C   UNL     1      10.101  17.545  20.421  0.00  0.00    +0.000 C 
ATOM     21  C   UNL     1       8.836  17.588  19.555  0.00  0.00    +0.000 C 
ATOM     22  C   UNL     1       8.971  16.564  18.429  0.00  0.00    +0.000 C 
ATOM     23  C   UNL     1      10.180  16.938  17.548  0.00  0.00    +0.000 C 
ATOM     24  C   UNL     1       9.147  15.189  19.105  0.00  0.00    +0.000 C 
ATOM     25  C   UNL     1      10.364  16.114  20.963  0.00  0.00    +0.000 C 
ENDBRANCH  13  16
BRANCH   1  27
ATOM     26  N   UNL     1       7.549  15.805  26.773  0.00  0.00    +0.000 NA
ATOM     27  C   UNL     1       7.505  14.681  26.202  0.00  0.00    +0.000 C 
ENDBRANCH   1  27
BRANCH   1  28
ATOM     28  C   UNL     1       6.870  12.126  26.245  0.00  0.00    +0.000 C 
ATOM     29  N   UNL     1       6.387  11.131  26.850  0.00  0.00    +0.000 NA
ENDBRANCH   1  28
TORSDOF 3
ENDMDL
MODEL 9
REMARK VINA RESULT:      -6.4      7.666     10.934
REMARK  Name = 
REMARK  3 active torsions:
REMARK  status: ('A' for Active; 'I' for Inactive)
REMARK    1  A    between atoms: C_2  and  C_3
REMARK    2  A    between atoms: C_3  and  C_4
REMARK    3  A    between atoms: N_17  and  C_18
REMARK                            x       y       z     vdW  Elec       q    Type
REMARK                         _______ _______ _______ _____ _____    ______ ____
ROOT
ATOM      1  C   UNL     1       1.242  10.799  19.128  0.00  0.00    +0.000 C 
ATOM      2  C   UNL     1       1.415   9.459  19.053  0.00  0.00    +0.000 A 
ATOM      3  C   UNL     1       0.576   8.495  19.825  0.00  0.00    +0.000 A 
ATOM      4  C   UNL     1       0.932   7.195  19.913  0.00  0.00    +0.000 A 
ATOM      5  C   UNL     1       2.145   6.727  19.211  0.00  0.00    +0.000 A 
ATOM      6  C   UNL     1       2.828   5.605  19.597  0.00  0.00    +0.000 C 
ATOM      7  N   UNL     1       2.219   4.632  20.443  0.00  0.00    +0.000 N 
ATOM      8  C   UNL     1       0.996   3.938  19.989  0.00  0.00    +0.000 C 
ATOM      9  C   UNL     1       1.514   2.774  19.162  0.00  0.00    +0.000 C 
ATOM     10  C   UNL     1       2.779   2.349  19.892  0.00  0.00    +0.000 C 
ATOM     11  C   UNL     1       3.204   3.565  20.741  0.00  0.00    +0.000 C 
ATOM     12  C   UNL     1       4.547   4.181  20.334  0.00  0.00    +0.000 C 
ATOM     13  N   UNL     1       4.196   5.239  19.349  0.00  0.00    +0.000 N 
ATOM     14  C   UNL     1       2.555   7.570  18.102  0.00  0.00    +0.000 A 
ATOM     15  C   UNL     1       2.327   8.885  18.071  0.00  0.00    +0.000 A 
ENDROOT
BRANCH  13  16
ATOM     16  C   UNL     1       4.968   5.291  18.068  0.00  0.00    +0.000 C 
ATOM     17  C   UNL     1       4.115   4.576  16.990  0.00  0.00    +0.000 C 
ATOM     18  C   UNL     1       4.790   4.607  15.626  0.00  0.00    +0.000 C 
ATOM     19  C   UNL     1       6.125   3.853  15.717  0.00  0.00    +0.000 C 
ATOM     20  C   UNL     1       7.049   4.548  16.729  0.00  0.00    +0.000 C 
ATOM     21  C   UNL     1       7.312   5.982  16.252  0.00  0.00    +0.000 C 
ATOM     22  C   UNL     1       5.990   6.748  16.232  0.00  0.00    +0.000 C 
ATOM     23  C   UNL     1       5.029   6.070  15.235  0.00  0.00    +0.000 C 
ATOM     24  C   UNL     1       5.445   6.722  17.674  0.00  0.00    +0.000 C 
ATOM     25  C   UNL     1       6.346   4.535  18.113  0.00  0.00    +0.000 C 
ENDBRANCH  13  16
BRANCH   1  27
ATOM     26  N   UNL     1       3.008  12.663  18.060  0.00  0.00    +0.000 NA
ATOM     27  C   UNL     1       2.207  11.818  18.544  0.00  0.00    +0.000 C 
ENDBRANCH   1  27
BRANCH   1  28
ATOM     28  C   UNL     1      -0.062  11.262  19.759  0.00  0.00    +0.000 C 
ATOM     29  N   UNL     1      -1.143  11.646  20.282  0.00  0.00    +0.000 NA
ENDBRANCH   1  28
TORSDOF 3
ENDMDL
