MODEL 1
REMARK VINA RESULT:      -8.8      0.000      0.000
REMARK  Name = 
REMARK  11 active torsions:
REMARK  status: ('A' for Active; 'I' for Inactive)
REMARK    1  A    between atoms: N_1  and  C_2
REMARK    2  A    between atoms: C_2  and  C_3
REMARK    3  A    between atoms: C_2  and  C_10
REMARK    4  A    between atoms: C_3  and  C_4
REMARK    5  A    between atoms: N_12  and  C_13
REMARK    6  A    between atoms: C_13  and  C_14
REMARK    7  A    between atoms: C_14  and  N_15
REMARK    8  A    between atoms: C_14  and  C_16
REMARK    9  A    between atoms: N_18  and  C_19
REMARK   10  A    between atoms: C_22  and  C_23
REMARK   11  A    between atoms: C_24  and  C_25
REMARK                            x       y       z     vdW  Elec       q    Type
REMARK                         _______ _______ _______ _____ _____    ______ ____
ROOT
ATOM      1  C   UNL     1       4.885   3.121  18.435  0.00  0.00    +0.000 C 
ATOM      2  O   UNL     1       5.059   3.356  19.631  0.00  0.00    +0.000 OA
ATOM      3  N   UNL     1       5.238   3.961  17.386  0.00  0.00    +0.000 N 
ATOM      4  H   UNL     1       4.898   3.719  16.462  0.00  0.00    +0.000 HD
ENDROOT
BRANCH   3   5
ATOM      5  C   UNL     1       5.924   5.190  17.514  0.00  0.00    +0.000 A 
ATOM      6  C   UNL     1       5.470   6.376  16.931  0.00  0.00    +0.000 A 
ATOM      7  C   UNL     1       6.166   7.575  17.099  0.00  0.00    +0.000 A 
ATOM      8  C   UNL     1       7.331   7.604  17.859  0.00  0.00    +0.000 A 
ATOM      9  C   UNL     1       7.802   6.428  18.443  0.00  0.00    +0.000 A 
ATOM     10  C   UNL     1       7.096   5.227  18.281  0.00  0.00    +0.000 A 
BRANCH   8  11
ATOM     11  C   UNL     1       8.011   8.844  18.068  0.00  0.00    +0.000 C 
ATOM     12  C   UNL     1       8.571   9.898  18.204  0.00  0.00    +0.000 C 
BRANCH  12  13
ATOM     13  C   UNL     1       9.208  11.171  18.350  0.00  0.00    +0.000 A 
ATOM     14  C   UNL     1      10.320  11.308  19.172  0.00  0.00    +0.000 A 
ATOM     15  F   UNL     1      10.830  10.254  19.826  0.00  0.00    +0.000 F 
ATOM     16  C   UNL     1      10.890  12.564  19.317  0.00  0.00    +0.000 A 
ATOM     17  F   UNL     1      11.956  12.699  20.120  0.00  0.00    +0.000 F 
ATOM     18  N   UNL     1      10.437  13.679  18.702  0.00  0.00    +0.000 NA
ATOM     19  C   UNL     1       9.360  13.513  17.905  0.00  0.00    +0.000 A 
ATOM     20  F   UNL     1       8.884  14.604  17.287  0.00  0.00    +0.000 F 
ATOM     21  C   UNL     1       8.718  12.297  17.699  0.00  0.00    +0.000 A 
ATOM     22  F   UNL     1       7.651  12.222  16.893  0.00  0.00    +0.000 F 
ENDBRANCH  12  13
ENDBRANCH   8  11
ENDBRANCH   3   5
BRANCH   1  23
ATOM     23  C   UNL     1       4.304   1.769  17.980  0.00  0.00    +0.000 C 
BRANCH  23  24
ATOM     24  N   UNL     1       4.751   0.728  18.938  0.00  0.00    +0.000 NA
ATOM     25  H   UNL     1       5.773   0.731  18.960  0.00  0.00    +0.000 HD
ATOM     26  H   UNL     1       4.490  -0.192  18.581  0.00  0.00    +0.000 HD
ENDBRANCH  23  24
BRANCH  23  27
ATOM     27  C   UNL     1       2.762   1.864  17.949  0.00  0.00    +0.000 C 
BRANCH  27  30
ATOM     28  C   UNL     1       1.536   3.900  18.655  0.00  0.00    +0.000 C 
ATOM     29  O   UNL     1       1.322   4.249  17.498  0.00  0.00    +0.000 OA
ATOM     30  N   UNL     1       2.205   2.739  18.966  0.00  0.00    +0.000 N 
ATOM     31  H   UNL     1       2.447   2.610  19.948  0.00  0.00    +0.000 HD
BRANCH  28  32
ATOM     32  C   UNL     1       1.053   4.698  19.882  0.00  0.00    +0.000 C 
BRANCH  32  33
ATOM     33  N   UNL     1       0.691   3.769  20.987  0.00  0.00    +0.000 NA
ATOM     34  H   UNL     1      -0.223   3.365  20.764  0.00  0.00    +0.000 HD
ATOM     35  H   UNL     1       0.534   4.311  21.838  0.00  0.00    +0.000 HD
ENDBRANCH  32  33
BRANCH  32  36
ATOM     36  C   UNL     1       2.145   5.712  20.276  0.00  0.00    +0.000 C 
BRANCH  36  37
ATOM     37  C   UNL     1       1.940   7.101  19.721  0.00  0.00    +0.000 A 
ATOM     38  C   UNL     1       2.362   7.415  18.422  0.00  0.00    +0.000 A 
ATOM     39  C   UNL     1       2.168   8.699  17.907  0.00  0.00    +0.000 A 
ATOM     40  C   UNL     1       1.548   9.676  18.683  0.00  0.00    +0.000 A 
ATOM     41  C   UNL     1       1.110   9.369  19.969  0.00  0.00    +0.000 A 
ATOM     42  C   UNL     1       1.298   8.086  20.483  0.00  0.00    +0.000 A 
ENDBRANCH  36  37
ENDBRANCH  32  36
ENDBRANCH  28  32
ENDBRANCH  27  30
ENDBRANCH  23  27
ENDBRANCH   1  23
TORSDOF 11
ENDMDL
MODEL 2
REMARK VINA RESULT:      -8.4      4.781      7.735
REMARK  Name = 
REMARK  11 active torsions:
REMARK  status: ('A' for Active; 'I' for Inactive)
REMARK    1  A    between atoms: N_1  and  C_2
REMARK    2  A    between atoms: C_2  and  C_3
REMARK    3  A    between atoms: C_2  and  C_10
REMARK    4  A    between atoms: C_3  and  C_4
REMARK    5  A    between atoms: N_12  and  C_13
REMARK    6  A    between atoms: C_13  and  C_14
REMARK    7  A    between atoms: C_14  and  N_15
REMARK    8  A    between atoms: C_14  and  C_16
REMARK    9  A    between atoms: N_18  and  C_19
REMARK   10  A    between atoms: C_22  and  C_23
REMARK   11  A    between atoms: C_24  and  C_25
REMARK                            x       y       z     vdW  Elec       q    Type
REMARK                         _______ _______ _______ _____ _____    ______ ____
ROOT
ATOM      1  C   UNL     1       2.269   4.234  18.819  0.00  0.00    +0.000 C 
ATOM      2  O   UNL     1       1.536   4.400  17.844  0.00  0.00    +0.000 OA
ATOM      3  N   UNL     1       2.649   5.220  19.721  0.00  0.00    +0.000 N 
ATOM      4  H   UNL     1       3.379   4.985  20.385  0.00  0.00    +0.000 HD
ENDROOT
BRANCH   3   5
ATOM      5  C   UNL     1       2.197   6.558  19.715  0.00  0.00    +0.000 A 
ATOM      6  C   UNL     1       1.557   7.147  20.809  0.00  0.00    +0.000 A 
ATOM      7  C   UNL     1       1.144   8.482  20.770  0.00  0.00    +0.000 A 
ATOM      8  C   UNL     1       1.371   9.249  19.632  0.00  0.00    +0.000 A 
ATOM      9  C   UNL     1       2.003   8.674  18.528  0.00  0.00    +0.000 A 
ATOM     10  C   UNL     1       2.426   7.337  18.573  0.00  0.00    +0.000 A 
BRANCH   8  11
ATOM     11  C   UNL     1       0.990  10.626  19.617  0.00  0.00    +0.000 C 
ATOM     12  C   UNL     1       0.674  11.784  19.563  0.00  0.00    +0.000 C 
BRANCH  12  13
ATOM     13  C   UNL     1       0.275  13.155  19.469  0.00  0.00    +0.000 A 
ATOM     14  C   UNL     1       1.070  14.072  18.793  0.00  0.00    +0.000 A 
ATOM     15  F   UNL     1       2.211  13.691  18.199  0.00  0.00    +0.000 F 
ATOM     16  C   UNL     1       0.669  15.398  18.752  0.00  0.00    +0.000 A 
ATOM     17  F   UNL     1       1.443  16.286  18.109  0.00  0.00    +0.000 F 
ATOM     18  N   UNL     1      -0.459  15.868  19.328  0.00  0.00    +0.000 NA
ATOM     19  C   UNL     1      -1.215  14.954  19.971  0.00  0.00    +0.000 A 
ATOM     20  F   UNL     1      -2.338  15.393  20.558  0.00  0.00    +0.000 F 
ATOM     21  C   UNL     1      -0.895  13.604  20.070  0.00  0.00    +0.000 A 
ATOM     22  F   UNL     1      -1.701  12.763  20.733  0.00  0.00    +0.000 F 
ENDBRANCH  12  13
ENDBRANCH   8  11
ENDBRANCH   3   5
BRANCH   1  23
ATOM     23  C   UNL     1       2.785   2.829  19.179  0.00  0.00    +0.000 C 
BRANCH  23  24
ATOM     24  N   UNL     1       2.512   1.927  18.032  0.00  0.00    +0.000 NA
ATOM     25  H   UNL     1       3.398   1.517  17.731  0.00  0.00    +0.000 HD
ATOM     26  H   UNL     1       2.186   2.482  17.240  0.00  0.00    +0.000 HD
ENDBRANCH  23  24
BRANCH  23  27
ATOM     27  C   UNL     1       4.301   2.904  19.471  0.00  0.00    +0.000 C 
BRANCH  27  30
ATOM     28  C   UNL     1       5.777   4.461  18.229  0.00  0.00    +0.000 C 
ATOM     29  O   UNL     1       5.781   5.284  19.140  0.00  0.00    +0.000 OA
ATOM     30  N   UNL     1       5.106   3.265  18.316  0.00  0.00    +0.000 N 
ATOM     31  H   UNL     1       5.055   2.715  17.459  0.00  0.00    +0.000 HD
BRANCH  28  32
ATOM     32  C   UNL     1       6.546   4.660  16.908  0.00  0.00    +0.000 C 
BRANCH  32  33
ATOM     33  N   UNL     1       7.939   4.156  17.046  0.00  0.00    +0.000 NA
ATOM     34  H   UNL     1       7.934   3.424  17.762  0.00  0.00    +0.000 HD
ATOM     35  H   UNL     1       8.522   4.897  17.438  0.00  0.00    +0.000 HD
ENDBRANCH  32  33
BRANCH  32  36
ATOM     36  C   UNL     1       5.763   3.974  15.771  0.00  0.00    +0.000 C 
BRANCH  36  37
ATOM     37  C   UNL     1       6.348   4.182  14.394  0.00  0.00    +0.000 A 
ATOM     38  C   UNL     1       5.917   3.398  13.315  0.00  0.00    +0.000 A 
ATOM     39  C   UNL     1       6.455   3.592  12.042  0.00  0.00    +0.000 A 
ATOM     40  C   UNL     1       7.423   4.572  11.835  0.00  0.00    +0.000 A 
ATOM     41  C   UNL     1       7.846   5.368  12.897  0.00  0.00    +0.000 A 
ATOM     42  C   UNL     1       7.306   5.179  14.169  0.00  0.00    +0.000 A 
ENDBRANCH  36  37
ENDBRANCH  32  36
ENDBRANCH  28  32
ENDBRANCH  27  30
ENDBRANCH  23  27
ENDBRANCH   1  23
TORSDOF 11
ENDMDL
MODEL 3
REMARK VINA RESULT:      -8.3      0.913      1.387
REMARK  Name = 
REMARK  11 active torsions:
REMARK  status: ('A' for Active; 'I' for Inactive)
REMARK    1  A    between atoms: N_1  and  C_2
REMARK    2  A    between atoms: C_2  and  C_3
REMARK    3  A    between atoms: C_2  and  C_10
REMARK    4  A    between atoms: C_3  and  C_4
REMARK    5  A    between atoms: N_12  and  C_13
REMARK    6  A    between atoms: C_13  and  C_14
REMARK    7  A    between atoms: C_14  and  N_15
REMARK    8  A    between atoms: C_14  and  C_16
REMARK    9  A    between atoms: N_18  and  C_19
REMARK   10  A    between atoms: C_22  and  C_23
REMARK   11  A    between atoms: C_24  and  C_25
REMARK                            x       y       z     vdW  Elec       q    Type
REMARK                         _______ _______ _______ _____ _____    ______ ____
ROOT
ATOM      1  C   UNL     1       4.285   3.494  17.021  0.00  0.00    +0.000 C 
ATOM      2  O   UNL     1       3.704   4.267  16.260  0.00  0.00    +0.000 OA
ATOM      3  N   UNL     1       5.442   3.780  17.737  0.00  0.00    +0.000 N 
ATOM      4  H   UNL     1       5.902   3.006  18.203  0.00  0.00    +0.000 HD
ENDROOT
BRANCH   3   5
ATOM      5  C   UNL     1       6.100   5.029  17.768  0.00  0.00    +0.000 A 
ATOM      6  C   UNL     1       5.813   6.060  16.869  0.00  0.00    +0.000 A 
ATOM      7  C   UNL     1       6.472   7.289  16.947  0.00  0.00    +0.000 A 
ATOM      8  C   UNL     1       7.429   7.506  17.933  0.00  0.00    +0.000 A 
ATOM      9  C   UNL     1       7.732   6.485  18.835  0.00  0.00    +0.000 A 
ATOM     10  C   UNL     1       7.062   5.255  18.761  0.00  0.00    +0.000 A 
BRANCH   8  11
ATOM     11  C   UNL     1       8.063   8.783  18.038  0.00  0.00    +0.000 C 
ATOM     12  C   UNL     1       8.573   9.864  18.160  0.00  0.00    +0.000 C 
BRANCH  12  13
ATOM     13  C   UNL     1       9.181  11.146  18.343  0.00  0.00    +0.000 A 
ATOM     14  C   UNL     1      10.289  11.284  19.169  0.00  0.00    +0.000 A 
ATOM     15  F   UNL     1      10.823  10.223  19.792  0.00  0.00    +0.000 F 
ATOM     16  C   UNL     1      10.831  12.548  19.350  0.00  0.00    +0.000 A 
ATOM     17  F   UNL     1      11.894  12.684  20.157  0.00  0.00    +0.000 F 
ATOM     18  N   UNL     1      10.353  13.669  18.767  0.00  0.00    +0.000 NA
ATOM     19  C   UNL     1       9.280  13.503  17.966  0.00  0.00    +0.000 A 
ATOM     20  F   UNL     1       8.780  14.600  17.379  0.00  0.00    +0.000 F 
ATOM     21  C   UNL     1       8.666  12.279  17.725  0.00  0.00    +0.000 A 
ATOM     22  F   UNL     1       7.600  12.204  16.916  0.00  0.00    +0.000 F 
ENDBRANCH  12  13
ENDBRANCH   8  11
ENDBRANCH   3   5
BRANCH   1  23
ATOM     23  C   UNL     1       3.698   2.101  17.319  0.00  0.00    +0.000 C 
BRANCH  23  24
ATOM     24  N   UNL     1       4.566   1.439  18.325  0.00  0.00    +0.000 NA
ATOM     25  H   UNL     1       4.312   0.450  18.364  0.00  0.00    +0.000 HD
ATOM     26  H   UNL     1       4.352   1.812  19.250  0.00  0.00    +0.000 HD
ENDBRANCH  23  24
BRANCH  23  27
ATOM     27  C   UNL     1       2.258   2.262  17.856  0.00  0.00    +0.000 C 
BRANCH  27  30
ATOM     28  C   UNL     1       2.371   3.912  19.702  0.00  0.00    +0.000 C 
ATOM     29  O   UNL     1       3.016   3.156  20.423  0.00  0.00    +0.000 OA
ATOM     30  N   UNL     1       1.984   3.569  18.428  0.00  0.00    +0.000 N 
ATOM     31  H   UNL     1       1.341   4.211  17.966  0.00  0.00    +0.000 HD
BRANCH  28  32
ATOM     32  C   UNL     1       1.954   5.334  20.127  0.00  0.00    +0.000 C 
BRANCH  32  33
ATOM     33  N   UNL     1       2.040   5.472  21.605  0.00  0.00    +0.000 NA
ATOM     34  H   UNL     1       1.605   6.364  21.859  0.00  0.00    +0.000 HD
ATOM     35  H   UNL     1       3.019   5.576  21.873  0.00  0.00    +0.000 HD
ENDBRANCH  32  33
BRANCH  32  36
ATOM     36  C   UNL     1       2.828   6.354  19.370  0.00  0.00    +0.000 C 
BRANCH  36  37
ATOM     37  C   UNL     1       2.201   7.718  19.209  0.00  0.00    +0.000 A 
ATOM     38  C   UNL     1       1.435   8.273  20.244  0.00  0.00    +0.000 A 
ATOM     39  C   UNL     1       0.859   9.536  20.096  0.00  0.00    +0.000 A 
ATOM     40  C   UNL     1       1.047  10.256  18.919  0.00  0.00    +0.000 A 
ATOM     41  C   UNL     1       1.821   9.722  17.892  0.00  0.00    +0.000 A 
ATOM     42  C   UNL     1       2.401   8.462  18.038  0.00  0.00    +0.000 A 
ENDBRANCH  36  37
ENDBRANCH  32  36
ENDBRANCH  28  32
ENDBRANCH  27  30
ENDBRANCH  23  27
ENDBRANCH   1  23
TORSDOF 11
ENDMDL
MODEL 4
REMARK VINA RESULT:      -8.0      4.312      7.046
REMARK  Name = 
REMARK  11 active torsions:
REMARK  status: ('A' for Active; 'I' for Inactive)
REMARK    1  A    between atoms: N_1  and  C_2
REMARK    2  A    between atoms: C_2  and  C_3
REMARK    3  A    between atoms: C_2  and  C_10
REMARK    4  A    between atoms: C_3  and  C_4
REMARK    5  A    between atoms: N_12  and  C_13
REMARK    6  A    between atoms: C_13  and  C_14
REMARK    7  A    between atoms: C_14  and  N_15
REMARK    8  A    between atoms: C_14  and  C_16
REMARK    9  A    between atoms: N_18  and  C_19
REMARK   10  A    between atoms: C_22  and  C_23
REMARK   11  A    between atoms: C_24  and  C_25
REMARK                            x       y       z     vdW  Elec       q    Type
REMARK                         _______ _______ _______ _____ _____    ______ ____
ROOT
ATOM      1  C   UNL     1       2.315   4.208  18.689  0.00  0.00    +0.000 C 
ATOM      2  O   UNL     1       1.943   4.404  17.533  0.00  0.00    +0.000 OA
ATOM      3  N   UNL     1       2.513   5.190  19.653  0.00  0.00    +0.000 N 
ATOM      4  H   UNL     1       2.969   4.910  20.514  0.00  0.00    +0.000 HD
ENDROOT
BRANCH   3   5
ATOM      5  C   UNL     1       2.247   6.567  19.488  0.00  0.00    +0.000 A 
ATOM      6  C   UNL     1       1.553   7.324  20.437  0.00  0.00    +0.000 A 
ATOM      7  C   UNL     1       1.330   8.690  20.246  0.00  0.00    +0.000 A 
ATOM      8  C   UNL     1       1.803   9.320  19.100  0.00  0.00    +0.000 A 
ATOM      9  C   UNL     1       2.493   8.578  18.140  0.00  0.00    +0.000 A 
ATOM     10  C   UNL     1       2.724   7.209  18.338  0.00  0.00    +0.000 A 
BRANCH   8  11
ATOM     11  C   UNL     1       1.614  10.728  18.935  0.00  0.00    +0.000 C 
ATOM     12  C   UNL     1       1.479  11.917  18.830  0.00  0.00    +0.000 C 
BRANCH  12  13
ATOM     13  C   UNL     1       1.357  13.337  18.712  0.00  0.00    +0.000 A 
ATOM     14  C   UNL     1       2.458  14.110  18.367  0.00  0.00    +0.000 A 
ATOM     15  F   UNL     1       3.648  13.544  18.116  0.00  0.00    +0.000 F 
ATOM     16  C   UNL     1       2.310  15.487  18.296  0.00  0.00    +0.000 A 
ATOM     17  F   UNL     1       3.376  16.234  17.974  0.00  0.00    +0.000 F 
ATOM     18  N   UNL     1       1.152  16.139  18.539  0.00  0.00    +0.000 NA
ATOM     19  C   UNL     1       0.098  15.362  18.867  0.00  0.00    +0.000 A 
ATOM     20  F   UNL     1      -1.064  15.983  19.120  0.00  0.00    +0.000 F 
ATOM     21  C   UNL     1       0.148  13.976  18.966  0.00  0.00    +0.000 A 
ATOM     22  F   UNL     1      -0.947  13.281  19.301  0.00  0.00    +0.000 F 
ENDBRANCH  12  13
ENDBRANCH   8  11
ENDBRANCH   3   5
BRANCH   1  23
ATOM     23  C   UNL     1       2.524   2.774  19.211  0.00  0.00    +0.000 C 
BRANCH  23  24
ATOM     24  N   UNL     1       1.646   1.866  18.431  0.00  0.00    +0.000 NA
ATOM     25  H   UNL     1       1.386   1.080  19.031  0.00  0.00    +0.000 HD
ATOM     26  H   UNL     1       2.182   1.457  17.665  0.00  0.00    +0.000 HD
ENDBRANCH  23  24
BRANCH  23  27
ATOM     27  C   UNL     1       4.009   2.384  19.041  0.00  0.00    +0.000 C 
BRANCH  27  30
ATOM     28  C   UNL     1       5.576   4.179  18.358  0.00  0.00    +0.000 C 
ATOM     29  O   UNL     1       5.850   4.469  19.519  0.00  0.00    +0.000 OA
ATOM     30  N   UNL     1       4.712   3.160  18.034  0.00  0.00    +0.000 N 
ATOM     31  H   UNL     1       4.449   3.090  17.052  0.00  0.00    +0.000 HD
BRANCH  28  32
ATOM     32  C   UNL     1       6.191   4.897  17.141  0.00  0.00    +0.000 C 
BRANCH  32  33
ATOM     33  N   UNL     1       7.542   4.344  16.850  0.00  0.00    +0.000 NA
ATOM     34  H   UNL     1       7.662   4.339  15.834  0.00  0.00    +0.000 HD
ATOM     35  H   UNL     1       7.563   3.360  17.118  0.00  0.00    +0.000 HD
ENDBRANCH  32  33
BRANCH  32  36
ATOM     36  C   UNL     1       5.218   4.779  15.951  0.00  0.00    +0.000 C 
BRANCH  36  37
ATOM     37  C   UNL     1       5.885   4.547  14.616  0.00  0.00    +0.000 A 
ATOM     38  C   UNL     1       5.336   3.644  13.696  0.00  0.00    +0.000 A 
ATOM     39  C   UNL     1       5.951   3.432  12.461  0.00  0.00    +0.000 A 
ATOM     40  C   UNL     1       7.114   4.124  12.133  0.00  0.00    +0.000 A 
ATOM     41  C   UNL     1       7.660   5.036  13.033  0.00  0.00    +0.000 A 
ATOM     42  C   UNL     1       7.044   5.253  14.266  0.00  0.00    +0.000 A 
ENDBRANCH  36  37
ENDBRANCH  32  36
ENDBRANCH  28  32
ENDBRANCH  27  30
ENDBRANCH  23  27
ENDBRANCH   1  23
TORSDOF 11
ENDMDL
MODEL 5
REMARK VINA RESULT:      -8.0      6.307      9.750
REMARK  Name = 
REMARK  11 active torsions:
REMARK  status: ('A' for Active; 'I' for Inactive)
REMARK    1  A    between atoms: N_1  and  C_2
REMARK    2  A    between atoms: C_2  and  C_3
REMARK    3  A    between atoms: C_2  and  C_10
REMARK    4  A    between atoms: C_3  and  C_4
REMARK    5  A    between atoms: N_12  and  C_13
REMARK    6  A    between atoms: C_13  and  C_14
REMARK    7  A    between atoms: C_14  and  N_15
REMARK    8  A    between atoms: C_14  and  C_16
REMARK    9  A    between atoms: N_18  and  C_19
REMARK   10  A    between atoms: C_22  and  C_23
REMARK   11  A    between atoms: C_24  and  C_25
REMARK                            x       y       z     vdW  Elec       q    Type
REMARK                         _______ _______ _______ _____ _____    ______ ____
ROOT
ATOM      1  C   UNL     1      -1.150  13.066  19.819  0.00  0.00    +0.000 C 
ATOM      2  O   UNL     1      -1.263  13.033  18.594  0.00  0.00    +0.000 OA
ATOM      3  N   UNL     1      -0.474  12.130  20.594  0.00  0.00    +0.000 N 
ATOM      4  H   UNL     1      -0.590  12.190  21.599  0.00  0.00    +0.000 HD
ENDROOT
BRANCH   3   5
ATOM      5  C   UNL     1       0.259  11.029  20.098  0.00  0.00    +0.000 A 
ATOM      6  C   UNL     1       0.385   9.826  20.798  0.00  0.00    +0.000 A 
ATOM      7  C   UNL     1       1.101   8.752  20.263  0.00  0.00    +0.000 A 
ATOM      8  C   UNL     1       1.701   8.868  19.013  0.00  0.00    +0.000 A 
ATOM      9  C   UNL     1       1.590  10.064  18.303  0.00  0.00    +0.000 A 
ATOM     10  C   UNL     1       0.862  11.138  18.838  0.00  0.00    +0.000 A 
BRANCH   8  11
ATOM     11  C   UNL     1       2.390   7.749  18.450  0.00  0.00    +0.000 C 
ATOM     12  C   UNL     1       3.005   6.826  17.988  0.00  0.00    +0.000 C 
BRANCH  12  13
ATOM     13  C   UNL     1       3.761   5.729  17.468  0.00  0.00    +0.000 A 
ATOM     14  C   UNL     1       4.816   5.956  16.594  0.00  0.00    +0.000 A 
ATOM     15  F   UNL     1       5.162   7.202  16.237  0.00  0.00    +0.000 F 
ATOM     16  C   UNL     1       5.505   4.866  16.083  0.00  0.00    +0.000 A 
ATOM     17  F   UNL     1       6.516   5.085  15.229  0.00  0.00    +0.000 F 
ATOM     18  N   UNL     1       5.220   3.580  16.383  0.00  0.00    +0.000 NA
ATOM     19  C   UNL     1       4.194   3.390  17.239  0.00  0.00    +0.000 A 
ATOM     20  F   UNL     1       3.884   2.123  17.551  0.00  0.00    +0.000 F 
ATOM     21  C   UNL     1       3.444   4.417  17.801  0.00  0.00    +0.000 A 
ATOM     22  F   UNL     1       2.437   4.139  18.641  0.00  0.00    +0.000 F 
ENDBRANCH  12  13
ENDBRANCH   8  11
ENDBRANCH   3   5
BRANCH   1  23
ATOM     23  C   UNL     1      -1.709  14.252  20.625  0.00  0.00    +0.000 C 
BRANCH  23  24
ATOM     24  N   UNL     1      -1.764  15.435  19.729  0.00  0.00    +0.000 NA
ATOM     25  H   UNL     1      -2.639  15.931  19.910  0.00  0.00    +0.000 HD
ATOM     26  H   UNL     1      -1.825  15.120  18.761  0.00  0.00    +0.000 HD
ENDBRANCH  23  24
BRANCH  23  27
ATOM     27  C   UNL     1      -3.118  13.892  21.147  0.00  0.00    +0.000 C 
BRANCH  27  30
ATOM     28  C   UNL     1      -5.074  12.622  20.306  0.00  0.00    +0.000 C 
ATOM     29  O   UNL     1      -5.284  12.100  21.397  0.00  0.00    +0.000 OA
ATOM     30  N   UNL     1      -4.059  13.527  20.102  0.00  0.00    +0.000 N 
ATOM     31  H   UNL     1      -3.886  13.797  19.135  0.00  0.00    +0.000 HD
BRANCH  28  32
ATOM     32  C   UNL     1      -5.938  12.352  19.059  0.00  0.00    +0.000 C 
BRANCH  32  33
ATOM     33  N   UNL     1      -5.633  13.350  17.998  0.00  0.00    +0.000 NA
ATOM     34  H   UNL     1      -5.098  14.108  18.431  0.00  0.00    +0.000 HD
ATOM     35  H   UNL     1      -6.503  13.787  17.693  0.00  0.00    +0.000 HD
ENDBRANCH  32  33
BRANCH  32  36
ATOM     36  C   UNL     1      -5.714  10.896  18.605  0.00  0.00    +0.000 C 
BRANCH  36  37
ATOM     37  C   UNL     1      -4.506  10.694  17.722  0.00  0.00    +0.000 A 
ATOM     38  C   UNL     1      -4.529  11.108  16.383  0.00  0.00    +0.000 A 
ATOM     39  C   UNL     1      -3.412  10.924  15.567  0.00  0.00    +0.000 A 
ATOM     40  C   UNL     1      -2.261  10.331  16.082  0.00  0.00    +0.000 A 
ATOM     41  C   UNL     1      -2.222   9.931  17.416  0.00  0.00    +0.000 A 
ATOM     42  C   UNL     1      -3.336  10.117  18.234  0.00  0.00    +0.000 A 
ENDBRANCH  36  37
ENDBRANCH  32  36
ENDBRANCH  28  32
ENDBRANCH  27  30
ENDBRANCH  23  27
ENDBRANCH   1  23
TORSDOF 11
ENDMDL
MODEL 6
REMARK VINA RESULT:      -8.0      4.910      8.276
REMARK  Name = 
REMARK  11 active torsions:
REMARK  status: ('A' for Active; 'I' for Inactive)
REMARK    1  A    between atoms: N_1  and  C_2
REMARK    2  A    between atoms: C_2  and  C_3
REMARK    3  A    between atoms: C_2  and  C_10
REMARK    4  A    between atoms: C_3  and  C_4
REMARK    5  A    between atoms: N_12  and  C_13
REMARK    6  A    between atoms: C_13  and  C_14
REMARK    7  A    between atoms: C_14  and  N_15
REMARK    8  A    between atoms: C_14  and  C_16
REMARK    9  A    between atoms: N_18  and  C_19
REMARK   10  A    between atoms: C_22  and  C_23
REMARK   11  A    between atoms: C_24  and  C_25
REMARK                            x       y       z     vdW  Elec       q    Type
REMARK                         _______ _______ _______ _____ _____    ______ ____
ROOT
ATOM      1  C   UNL     1       2.486   4.219  18.694  0.00  0.00    +0.000 C 
ATOM      2  O   UNL     1       1.409   4.228  18.098  0.00  0.00    +0.000 OA
ATOM      3  N   UNL     1       3.042   5.295  19.374  0.00  0.00    +0.000 N 
ATOM      4  H   UNL     1       4.002   5.201  19.687  0.00  0.00    +0.000 HD
ENDROOT
BRANCH   3   5
ATOM      5  C   UNL     1       2.429   6.555  19.560  0.00  0.00    +0.000 A 
ATOM      6  C   UNL     1       2.423   7.547  18.576  0.00  0.00    +0.000 A 
ATOM      7  C   UNL     1       1.786   8.772  18.790  0.00  0.00    +0.000 A 
ATOM      8  C   UNL     1       1.142   9.020  19.998  0.00  0.00    +0.000 A 
ATOM      9  C   UNL     1       1.144   8.043  20.994  0.00  0.00    +0.000 A 
ATOM     10  C   UNL     1       1.775   6.810  20.772  0.00  0.00    +0.000 A 
BRANCH   8  11
ATOM     11  C   UNL     1       0.451  10.257  20.192  0.00  0.00    +0.000 C 
ATOM     12  C   UNL     1      -0.145  11.280  20.392  0.00  0.00    +0.000 C 
BRANCH  12  13
ATOM     13  C   UNL     1      -0.845  12.498  20.666  0.00  0.00    +0.000 A 
ATOM     14  C   UNL     1      -0.631  13.622  19.878  0.00  0.00    +0.000 A 
ATOM     15  F   UNL     1       0.214  13.585  18.837  0.00  0.00    +0.000 F 
ATOM     16  C   UNL     1      -1.300  14.794  20.195  0.00  0.00    +0.000 A 
ATOM     17  F   UNL     1      -1.085  15.883  19.441  0.00  0.00    +0.000 F 
ATOM     18  N   UNL     1      -2.161  14.921  21.228  0.00  0.00    +0.000 NA
ATOM     19  C   UNL     1      -2.353  13.811  21.972  0.00  0.00    +0.000 A 
ATOM     20  F   UNL     1      -3.198  13.910  23.009  0.00  0.00    +0.000 F 
ATOM     21  C   UNL     1      -1.728  12.593  21.735  0.00  0.00    +0.000 A 
ATOM     22  F   UNL     1      -1.973  11.540  22.527  0.00  0.00    +0.000 F 
ENDBRANCH  12  13
ENDBRANCH   8  11
ENDBRANCH   3   5
BRANCH   1  23
ATOM     23  C   UNL     1       3.307   2.921  18.806  0.00  0.00    +0.000 C 
BRANCH  23  24
ATOM     24  N   UNL     1       3.490   2.370  17.440  0.00  0.00    +0.000 NA
ATOM     25  H   UNL     1       4.214   1.649  17.482  0.00  0.00    +0.000 HD
ATOM     26  H   UNL     1       3.866   3.098  16.832  0.00  0.00    +0.000 HD
ENDBRANCH  23  24
BRANCH  23  27
ATOM     27  C   UNL     1       4.671   3.239  19.459  0.00  0.00    +0.000 C 
BRANCH  27  30
ATOM     28  C   UNL     1       6.293   4.940  18.672  0.00  0.00    +0.000 C 
ATOM     29  O   UNL     1       6.077   5.680  19.627  0.00  0.00    +0.000 OA
ATOM     30  N   UNL     1       5.674   3.722  18.525  0.00  0.00    +0.000 N 
ATOM     31  H   UNL     1       5.820   3.248  17.635  0.00  0.00    +0.000 HD
BRANCH  28  32
ATOM     32  C   UNL     1       7.301   5.275  17.555  0.00  0.00    +0.000 C 
BRANCH  32  33
ATOM     33  N   UNL     1       8.000   4.039  17.110  0.00  0.00    +0.000 NA
ATOM     34  H   UNL     1       7.559   3.730  16.240  0.00  0.00    +0.000 HD
ATOM     35  H   UNL     1       7.809   3.291  17.778  0.00  0.00    +0.000 HD
ENDBRANCH  32  33
BRANCH  32  36
ATOM     36  C   UNL     1       6.556   5.995  16.413  0.00  0.00    +0.000 C 
BRANCH  36  37
ATOM     37  C   UNL     1       6.479   5.213  15.124  0.00  0.00    +0.000 A 
ATOM     38  C   UNL     1       5.411   4.335  14.890  0.00  0.00    +0.000 A 
ATOM     39  C   UNL     1       5.338   3.615  13.696  0.00  0.00    +0.000 A 
ATOM     40  C   UNL     1       6.326   3.769  12.726  0.00  0.00    +0.000 A 
ATOM     41  C   UNL     1       7.382   4.651  12.941  0.00  0.00    +0.000 A 
ATOM     42  C   UNL     1       7.455   5.375  14.132  0.00  0.00    +0.000 A 
ENDBRANCH  36  37
ENDBRANCH  32  36
ENDBRANCH  28  32
ENDBRANCH  27  30
ENDBRANCH  23  27
ENDBRANCH   1  23
TORSDOF 11
ENDMDL
MODEL 7
REMARK VINA RESULT:      -7.9      4.820      8.078
REMARK  Name = 
REMARK  11 active torsions:
REMARK  status: ('A' for Active; 'I' for Inactive)
REMARK    1  A    between atoms: N_1  and  C_2
REMARK    2  A    between atoms: C_2  and  C_3
REMARK    3  A    between atoms: C_2  and  C_10
REMARK    4  A    between atoms: C_3  and  C_4
REMARK    5  A    between atoms: N_12  and  C_13
REMARK    6  A    between atoms: C_13  and  C_14
REMARK    7  A    between atoms: C_14  and  N_15
REMARK    8  A    between atoms: C_14  and  C_16
REMARK    9  A    between atoms: N_18  and  C_19
REMARK   10  A    between atoms: C_22  and  C_23
REMARK   11  A    between atoms: C_24  and  C_25
REMARK                            x       y       z     vdW  Elec       q    Type
REMARK                         _______ _______ _______ _____ _____    ______ ____
ROOT
ATOM      1  C   UNL     1       2.271   4.110  19.211  0.00  0.00    +0.000 C 
ATOM      2  O   UNL     1       1.249   3.848  19.845  0.00  0.00    +0.000 OA
ATOM      3  N   UNL     1       2.755   5.387  18.952  0.00  0.00    +0.000 N 
ATOM      4  H   UNL     1       3.517   5.469  18.288  0.00  0.00    +0.000 HD
ENDROOT
BRANCH   3   5
ATOM      5  C   UNL     1       2.196   6.592  19.435  0.00  0.00    +0.000 A 
ATOM      6  C   UNL     1       1.689   6.725  20.730  0.00  0.00    +0.000 A 
ATOM      7  C   UNL     1       1.165   7.940  21.178  0.00  0.00    +0.000 A 
ATOM      8  C   UNL     1       1.145   9.045  20.332  0.00  0.00    +0.000 A 
ATOM      9  C   UNL     1       1.642   8.927  19.033  0.00  0.00    +0.000 A 
ATOM     10  C   UNL     1       2.177   7.708  18.589  0.00  0.00    +0.000 A 
BRANCH   8  11
ATOM     11  C   UNL     1       0.652  10.298  20.812  0.00  0.00    +0.000 C 
ATOM     12  C   UNL     1       0.276  11.359  21.232  0.00  0.00    +0.000 C 
BRANCH  12  13
ATOM     13  C   UNL     1      -0.138  12.638  21.720  0.00  0.00    +0.000 A 
ATOM     14  C   UNL     1       0.333  13.801  21.126  0.00  0.00    +0.000 A 
ATOM     15  F   UNL     1       1.165  13.752  20.075  0.00  0.00    +0.000 F 
ATOM     16  C   UNL     1      -0.063  15.024  21.648  0.00  0.00    +0.000 A 
ATOM     17  F   UNL     1       0.402  16.147  21.082  0.00  0.00    +0.000 F 
ATOM     18  N   UNL     1      -0.890  15.164  22.707  0.00  0.00    +0.000 NA
ATOM     19  C   UNL     1      -1.337  14.017  23.259  0.00  0.00    +0.000 A 
ATOM     20  F   UNL     1      -2.155  14.126  24.316  0.00  0.00    +0.000 F 
ATOM     21  C   UNL     1      -0.995  12.747  22.810  0.00  0.00    +0.000 A 
ATOM     22  F   UNL     1      -1.482  11.657  23.421  0.00  0.00    +0.000 F 
ENDBRANCH  12  13
ENDBRANCH   8  11
ENDBRANCH   3   5
BRANCH   1  23
ATOM     23  C   UNL     1       3.186   2.983  18.699  0.00  0.00    +0.000 C 
BRANCH  23  24
ATOM     24  N   UNL     1       3.268   3.089  17.221  0.00  0.00    +0.000 NA
ATOM     25  H   UNL     1       3.240   4.080  16.971  0.00  0.00    +0.000 HD
ATOM     26  H   UNL     1       2.428   2.682  16.809  0.00  0.00    +0.000 HD
ENDBRANCH  23  24
BRANCH  23  27
ATOM     27  C   UNL     1       4.584   3.134  19.340  0.00  0.00    +0.000 C 
BRANCH  27  30
ATOM     28  C   UNL     1       6.174   4.895  18.624  0.00  0.00    +0.000 C 
ATOM     29  O   UNL     1       5.918   5.608  19.590  0.00  0.00    +0.000 OA
ATOM     30  N   UNL     1       5.592   3.664  18.438  0.00  0.00    +0.000 N 
ATOM     31  H   UNL     1       5.770   3.214  17.541  0.00  0.00    +0.000 HD
BRANCH  28  32
ATOM     32  C   UNL     1       7.195   5.281  17.536  0.00  0.00    +0.000 C 
BRANCH  32  33
ATOM     33  N   UNL     1       7.962   4.081  17.105  0.00  0.00    +0.000 NA
ATOM     34  H   UNL     1       8.619   4.378  16.378  0.00  0.00    +0.000 HD
ATOM     35  H   UNL     1       7.328   3.434  16.633  0.00  0.00    +0.000 HD
ENDBRANCH  32  33
BRANCH  32  36
ATOM     36  C   UNL     1       6.450   5.973  16.378  0.00  0.00    +0.000 C 
BRANCH  36  37
ATOM     37  C   UNL     1       6.484   5.218  15.071  0.00  0.00    +0.000 A 
ATOM     38  C   UNL     1       5.478   4.293  14.760  0.00  0.00    +0.000 A 
ATOM     39  C   UNL     1       5.507   3.598  13.550  0.00  0.00    +0.000 A 
ATOM     40  C   UNL     1       6.537   3.824  12.639  0.00  0.00    +0.000 A 
ATOM     41  C   UNL     1       7.532   4.754  12.931  0.00  0.00    +0.000 A 
ATOM     42  C   UNL     1       7.503   5.453  14.138  0.00  0.00    +0.000 A 
ENDBRANCH  36  37
ENDBRANCH  32  36
ENDBRANCH  28  32
ENDBRANCH  27  30
ENDBRANCH  23  27
ENDBRANCH   1  23
TORSDOF 11
ENDMDL
MODEL 8
REMARK VINA RESULT:      -7.7      6.363      9.944
REMARK  Name = 
REMARK  11 active torsions:
REMARK  status: ('A' for Active; 'I' for Inactive)
REMARK    1  A    between atoms: N_1  and  C_2
REMARK    2  A    between atoms: C_2  and  C_3
REMARK    3  A    between atoms: C_2  and  C_10
REMARK    4  A    between atoms: C_3  and  C_4
REMARK    5  A    between atoms: N_12  and  C_13
REMARK    6  A    between atoms: C_13  and  C_14
REMARK    7  A    between atoms: C_14  and  N_15
REMARK    8  A    between atoms: C_14  and  C_16
REMARK    9  A    between atoms: N_18  and  C_19
REMARK   10  A    between atoms: C_22  and  C_23
REMARK   11  A    between atoms: C_24  and  C_25
REMARK                            x       y       z     vdW  Elec       q    Type
REMARK                         _______ _______ _______ _____ _____    ______ ____
ROOT
ATOM      1  C   UNL     1      -1.054  12.925  21.991  0.00  0.00    +0.000 C 
ATOM      2  O   UNL     1      -0.994  13.283  20.815  0.00  0.00    +0.000 OA
ATOM      3  N   UNL     1      -0.635  11.694  22.483  0.00  0.00    +0.000 N 
ATOM      4  H   UNL     1      -0.884  11.467  23.439  0.00  0.00    +0.000 HD
ENDROOT
BRANCH   3   5
ATOM      5  C   UNL     1      -0.001  10.681  21.730  0.00  0.00    +0.000 A 
ATOM      6  C   UNL     1       0.286  10.816  20.369  0.00  0.00    +0.000 A 
ATOM      7  C   UNL     1       0.935   9.798  19.664  0.00  0.00    +0.000 A 
ATOM      8  C   UNL     1       1.309   8.628  20.317  0.00  0.00    +0.000 A 
ATOM      9  C   UNL     1       1.024   8.474  21.674  0.00  0.00    +0.000 A 
ATOM     10  C   UNL     1       0.382   9.501  22.382  0.00  0.00    +0.000 A 
BRANCH   8  11
ATOM     11  C   UNL     1       2.016   7.612  19.601  0.00  0.00    +0.000 C 
ATOM     12  C   UNL     1       2.583   6.764  18.968  0.00  0.00    +0.000 C 
BRANCH  12  13
ATOM     13  C   UNL     1       3.257   5.776  18.182  0.00  0.00    +0.000 A 
ATOM     14  C   UNL     1       2.828   4.455  18.197  0.00  0.00    +0.000 A 
ATOM     15  F   UNL     1       1.765   4.083  18.926  0.00  0.00    +0.000 F 
ATOM     16  C   UNL     1       3.526   3.519  17.450  0.00  0.00    +0.000 A 
ATOM     17  F   UNL     1       3.119   2.241  17.474  0.00  0.00    +0.000 F 
ATOM     18  N   UNL     1       4.610   3.806  16.695  0.00  0.00    +0.000 NA
ATOM     19  C   UNL     1       5.000   5.098  16.695  0.00  0.00    +0.000 A 
ATOM     20  F   UNL     1       6.076   5.411  15.959  0.00  0.00    +0.000 F 
ATOM     21  C   UNL     1       4.367   6.106  17.412  0.00  0.00    +0.000 A 
ATOM     22  F   UNL     1       4.824   7.365  17.359  0.00  0.00    +0.000 F 
ENDBRANCH  12  13
ENDBRANCH   8  11
ENDBRANCH   3   5
BRANCH   1  23
ATOM     23  C   UNL     1      -1.550  13.893  23.080  0.00  0.00    +0.000 C 
BRANCH  23  24
ATOM     24  N   UNL     1      -0.804  15.168  22.940  0.00  0.00    +0.000 NA
ATOM     25  H   UNL     1       0.151  14.948  22.650  0.00  0.00    +0.000 HD
ATOM     26  H   UNL     1      -0.715  15.608  23.857  0.00  0.00    +0.000 HD
ENDBRANCH  23  24
BRANCH  23  27
ATOM     27  C   UNL     1      -3.068  14.121  22.903  0.00  0.00    +0.000 C 
BRANCH  27  30
ATOM     28  C   UNL     1      -4.556  13.376  21.065  0.00  0.00    +0.000 C 
ATOM     29  O   UNL     1      -4.744  14.522  20.667  0.00  0.00    +0.000 OA
ATOM     30  N   UNL     1      -3.734  13.088  22.129  0.00  0.00    +0.000 N 
ATOM     31  H   UNL     1      -3.751  12.124  22.461  0.00  0.00    +0.000 HD
BRANCH  28  32
ATOM     32  C   UNL     1      -5.187  12.136  20.401  0.00  0.00    +0.000 C 
BRANCH  32  33
ATOM     33  N   UNL     1      -6.455  11.777  21.091  0.00  0.00    +0.000 NA
ATOM     34  H   UNL     1      -6.542  12.379  21.914  0.00  0.00    +0.000 HD
ATOM     35  H   UNL     1      -6.372  10.832  21.468  0.00  0.00    +0.000 HD
ENDBRANCH  32  33
BRANCH  32  36
ATOM     36  C   UNL     1      -5.373  12.419  18.897  0.00  0.00    +0.000 C 
BRANCH  36  37
ATOM     37  C   UNL     1      -4.379  11.721  18.001  0.00  0.00    +0.000 A 
ATOM     38  C   UNL     1      -4.718  11.402  16.679  0.00  0.00    +0.000 A 
ATOM     39  C   UNL     1      -3.797  10.759  15.849  0.00  0.00    +0.000 A 
ATOM     40  C   UNL     1      -2.531  10.435  16.330  0.00  0.00    +0.000 A 
ATOM     41  C   UNL     1      -2.178  10.763  17.637  0.00  0.00    +0.000 A 
ATOM     42  C   UNL     1      -3.094  11.409  18.467  0.00  0.00    +0.000 A 
ENDBRANCH  36  37
ENDBRANCH  32  36
ENDBRANCH  28  32
ENDBRANCH  27  30
ENDBRANCH  23  27
ENDBRANCH   1  23
TORSDOF 11
ENDMDL
MODEL 9
REMARK VINA RESULT:      -7.7      6.479     10.055
REMARK  Name = 
REMARK  11 active torsions:
REMARK  status: ('A' for Active; 'I' for Inactive)
REMARK    1  A    between atoms: N_1  and  C_2
REMARK    2  A    between atoms: C_2  and  C_3
REMARK    3  A    between atoms: C_2  and  C_10
REMARK    4  A    between atoms: C_3  and  C_4
REMARK    5  A    between atoms: N_12  and  C_13
REMARK    6  A    between atoms: C_13  and  C_14
REMARK    7  A    between atoms: C_14  and  N_15
REMARK    8  A    between atoms: C_14  and  C_16
REMARK    9  A    between atoms: N_18  and  C_19
REMARK   10  A    between atoms: C_22  and  C_23
REMARK   11  A    between atoms: C_24  and  C_25
REMARK                            x       y       z     vdW  Elec       q    Type
REMARK                         _______ _______ _______ _____ _____    ______ ____
ROOT
ATOM      1  C   UNL     1       0.746  13.830  20.084  0.00  0.00    +0.000 C 
ATOM      2  O   UNL     1       1.747  13.725  20.793  0.00  0.00    +0.000 OA
ATOM      3  N   UNL     1       0.202  12.820  19.300  0.00  0.00    +0.000 N 
ATOM      4  H   UNL     1      -0.527  13.082  18.646  0.00  0.00    +0.000 HD
ENDROOT
BRANCH   3   5
ATOM      5  C   UNL     1       0.660  11.484  19.246  0.00  0.00    +0.000 A 
ATOM      6  C   UNL     1       1.470  11.003  18.214  0.00  0.00    +0.000 A 
ATOM      7  C   UNL     1       1.920   9.680  18.208  0.00  0.00    +0.000 A 
ATOM      8  C   UNL     1       1.567   8.819  19.242  0.00  0.00    +0.000 A 
ATOM      9  C   UNL     1       0.754   9.282  20.278  0.00  0.00    +0.000 A 
ATOM     10  C   UNL     1       0.311  10.613  20.286  0.00  0.00    +0.000 A 
BRANCH   8  11
ATOM     11  C   UNL     1       2.072   7.482  19.256  0.00  0.00    +0.000 C 
ATOM     12  C   UNL     1       2.461   6.346  19.287  0.00  0.00    +0.000 C 
BRANCH  12  13
ATOM     13  C   UNL     1       2.890   4.981  19.315  0.00  0.00    +0.000 A 
ATOM     14  C   UNL     1       2.806   4.244  20.489  0.00  0.00    +0.000 A 
ATOM     15  F   UNL     1       2.305   4.784  21.610  0.00  0.00    +0.000 F 
ATOM     16  C   UNL     1       3.263   2.934  20.488  0.00  0.00    +0.000 A 
ATOM     17  F   UNL     1       3.193   2.226  21.625  0.00  0.00    +0.000 F 
ATOM     18  N   UNL     1       3.788   2.315  19.408  0.00  0.00    +0.000 NA
ATOM     19  C   UNL     1       3.851   3.054  18.280  0.00  0.00    +0.000 A 
ATOM     20  F   UNL     1       4.373   2.467  17.194  0.00  0.00    +0.000 F 
ATOM     21  C   UNL     1       3.421   4.373  18.184  0.00  0.00    +0.000 A 
ATOM     22  F   UNL     1       3.524   5.036  17.024  0.00  0.00    +0.000 F 
ENDBRANCH  12  13
ENDBRANCH   8  11
ENDBRANCH   3   5
BRANCH   1  23
ATOM     23  C   UNL     1      -0.070  15.135  20.072  0.00  0.00    +0.000 C 
BRANCH  23  24
ATOM     24  N   UNL     1      -0.530  15.379  18.682  0.00  0.00    +0.000 NA
ATOM     25  H   UNL     1       0.293  15.515  18.092  0.00  0.00    +0.000 HD
ATOM     26  H   UNL     1      -1.038  16.264  18.647  0.00  0.00    +0.000 HD
ENDBRANCH  23  24
BRANCH  23  27
ATOM     27  C   UNL     1      -1.272  14.991  21.032  0.00  0.00    +0.000 C 
BRANCH  27  30
ATOM     28  C   UNL     1      -3.466  13.882  20.710  0.00  0.00    +0.000 C 
ATOM     29  O   UNL     1      -4.085  14.937  20.813  0.00  0.00    +0.000 OA
ATOM     30  N   UNL     1      -2.094  13.820  20.776  0.00  0.00    +0.000 N 
ATOM     31  H   UNL     1      -1.688  12.886  20.814  0.00  0.00    +0.000 HD
BRANCH  28  32
ATOM     32  C   UNL     1      -4.148  12.523  20.462  0.00  0.00    +0.000 C 
BRANCH  32  33
ATOM     33  N   UNL     1      -5.151  12.251  21.526  0.00  0.00    +0.000 NA
ATOM     34  H   UNL     1      -5.873  12.974  21.463  0.00  0.00    +0.000 HD
ATOM     35  H   UNL     1      -4.716  12.398  22.438  0.00  0.00    +0.000 HD
ENDBRANCH  32  33
BRANCH  32  36
ATOM     36  C   UNL     1      -4.752  12.522  19.043  0.00  0.00    +0.000 C 
BRANCH  36  37
ATOM     37  C   UNL     1      -4.035  11.632  18.057  0.00  0.00    +0.000 A 
ATOM     38  C   UNL     1      -4.525  11.479  16.753  0.00  0.00    +0.000 A 
ATOM     39  C   UNL     1      -3.860  10.658  15.840  0.00  0.00    +0.000 A 
ATOM     40  C   UNL     1      -2.699   9.989  16.220  0.00  0.00    +0.000 A 
ATOM     41  C   UNL     1      -2.194  10.147  17.508  0.00  0.00    +0.000 A 
ATOM     42  C   UNL     1      -2.854  10.970  18.421  0.00  0.00    +0.000 A 
ENDBRANCH  36  37
ENDBRANCH  32  36
ENDBRANCH  28  32
ENDBRANCH  27  30
ENDBRANCH  23  27
ENDBRANCH   1  23
TORSDOF 11
ENDMDL
