MODEL 1
REMARK VINA RESULT:      -8.6      0.000      0.000
REMARK  Name = 
REMARK  4 active torsions:
REMARK  status: ('A' for Active; 'I' for Inactive)
REMARK    1  A    between atoms: C_1  and  O_2
REMARK    2  A    between atoms: O_2  and  C_3
REMARK    3  A    between atoms: C_7  and  C_8
REMARK    4  A    between atoms: C_14  and  C_16
REMARK                            x       y       z     vdW  Elec       q    Type
REMARK                         _______ _______ _______ _____ _____    ______ ____
ROOT
ATOM      1  C   UNL     1       6.839   4.717  14.025  0.00  0.00    +0.000 C 
ATOM      2  O   UNL     1       7.695   5.542  13.710  0.00  0.00    +0.000 OA
ATOM      3  N   UNL     1       6.315   4.646  15.317  0.00  0.00    +0.000 N 
ATOM      4  C   UNL     1       6.586   5.737  16.269  0.00  0.00    +0.000 C 
ATOM      5  C   UNL     1       5.275   6.287  16.878  0.00  0.00    +0.000 C 
ATOM      6  N   UNL     1       4.386   5.202  17.349  0.00  0.00    +0.000 N 
ATOM      7  C   UNL     1       3.811   5.295  18.605  0.00  0.00    +0.000 C 
ATOM      8  O   UNL     1       3.943   6.287  19.323  0.00  0.00    +0.000 OA
ATOM      9  C   UNL     1       4.136   4.190  16.313  0.00  0.00    +0.000 C 
ATOM     10  C   UNL     1       5.479   3.579  15.882  0.00  0.00    +0.000 C 
ENDROOT
BRANCH   7  11
ATOM     11  C   UNL     1       2.919   4.197  19.116  0.00  0.00    +0.000 A 
ATOM     12  C   UNL     1       2.038   3.536  18.355  0.00  0.00    +0.000 A 
ATOM     13  C   UNL     1       1.117   2.587  19.003  0.00  0.00    +0.000 A 
ATOM     14  O   UNL     1       0.123   2.191  18.409  0.00  0.00    +0.000 OA
ATOM     15  N   UNL     1       1.423   2.233  20.282  0.00  0.00    +0.000 N 
ATOM     16  C   UNL     1       2.413   2.804  21.034  0.00  0.00    +0.000 A 
ATOM     17  O   UNL     1       2.643   2.446  22.182  0.00  0.00    +0.000 OA
ATOM     18  N   UNL     1       3.114   3.802  20.422  0.00  0.00    +0.000 N 
ATOM     19  H   UNL     1       0.819   1.569  20.742  0.00  0.00    +0.000 HD
ATOM     20  H   UNL     1       3.879   4.224  20.939  0.00  0.00    +0.000 HD
ENDBRANCH   7  11
BRANCH   1  25
ATOM     21  C   UNL     1       4.584   3.023  11.473  0.00  0.00    +0.000 A 
ATOM     22  C   UNL     1       5.449   2.058  10.960  0.00  0.00    +0.000 A 
ATOM     23  C   UNL     1       6.770   1.984  11.409  0.00  0.00    +0.000 A 
ATOM     24  C   UNL     1       7.216   2.842  12.418  0.00  0.00    +0.000 A 
ATOM     25  C   UNL     1       6.348   3.797  12.957  0.00  0.00    +0.000 A 
ATOM     26  C   UNL     1       5.064   3.928  12.417  0.00  0.00    +0.000 A 
BRANCH  21  28
ATOM     27  C   UNL     1       3.014   3.907   9.923  0.00  0.00    +0.000 C 
ATOM     28  O   UNL     1       3.306   3.002  10.985  0.00  0.00    +0.000 OA
ENDBRANCH  21  28
ENDBRANCH   1  25
TORSDOF 3
ENDMDL
MODEL 2
REMARK VINA RESULT:      -8.3      1.010      1.687
REMARK  Name = 
REMARK  4 active torsions:
REMARK  status: ('A' for Active; 'I' for Inactive)
REMARK    1  A    between atoms: C_1  and  O_2
REMARK    2  A    between atoms: O_2  and  C_3
REMARK    3  A    between atoms: C_7  and  C_8
REMARK    4  A    between atoms: C_14  and  C_16
REMARK                            x       y       z     vdW  Elec       q    Type
REMARK                         _______ _______ _______ _____ _____    ______ ____
ROOT
ATOM      1  C   UNL     1       6.620   4.527  13.892  0.00  0.00    +0.000 C 
ATOM      2  O   UNL     1       7.534   5.274  13.547  0.00  0.00    +0.000 OA
ATOM      3  N   UNL     1       6.166   4.468  15.211  0.00  0.00    +0.000 N 
ATOM      4  C   UNL     1       6.598   5.499  16.171  0.00  0.00    +0.000 C 
ATOM      5  C   UNL     1       5.385   6.154  16.872  0.00  0.00    +0.000 C 
ATOM      6  N   UNL     1       4.421   5.147  17.368  0.00  0.00    +0.000 N 
ATOM      7  C   UNL     1       3.931   5.256  18.659  0.00  0.00    +0.000 C 
ATOM      8  O   UNL     1       4.202   6.209  19.392  0.00  0.00    +0.000 OA
ATOM      9  C   UNL     1       4.014   4.196  16.324  0.00  0.00    +0.000 C 
ATOM     10  C   UNL     1       5.262   3.471  15.798  0.00  0.00    +0.000 C 
ENDROOT
BRANCH   7  11
ATOM     11  C   UNL     1       2.965   4.236  19.195  0.00  0.00    +0.000 A 
ATOM     12  C   UNL     1       2.097   3.557  18.434  0.00  0.00    +0.000 A 
ATOM     13  C   UNL     1       1.103   2.696  19.095  0.00  0.00    +0.000 A 
ATOM     14  O   UNL     1       0.124   2.298  18.476  0.00  0.00    +0.000 OA
ATOM     15  N   UNL     1       1.326   2.422  20.411  0.00  0.00    +0.000 N 
ATOM     16  C   UNL     1       2.298   3.006  21.174  0.00  0.00    +0.000 A 
ATOM     17  O   UNL     1       2.452   2.723  22.356  0.00  0.00    +0.000 OA
ATOM     18  N   UNL     1       3.074   3.929  20.533  0.00  0.00    +0.000 N 
ATOM     19  H   UNL     1       0.669   1.819  20.882  0.00  0.00    +0.000 HD
ATOM     20  H   UNL     1       3.829   4.355  21.062  0.00  0.00    +0.000 HD
ENDBRANCH   7  11
BRANCH   1  25
ATOM     21  C   UNL     1       5.990   1.752  11.368  0.00  0.00    +0.000 A 
ATOM     22  C   UNL     1       4.764   2.152  10.841  0.00  0.00    +0.000 A 
ATOM     23  C   UNL     1       4.122   3.292  11.331  0.00  0.00    +0.000 A 
ATOM     24  C   UNL     1       4.737   4.072  12.315  0.00  0.00    +0.000 A 
ATOM     25  C   UNL     1       5.979   3.693  12.832  0.00  0.00    +0.000 A 
ATOM     26  C   UNL     1       6.552   2.489  12.407  0.00  0.00    +0.000 A 
BRANCH  21  28
ATOM     27  C   UNL     1       6.105  -0.622  11.320  0.00  0.00    +0.000 C 
ATOM     28  O   UNL     1       6.546   0.634  10.809  0.00  0.00    +0.000 OA
ENDBRANCH  21  28
ENDBRANCH   1  25
TORSDOF 3
ENDMDL
MODEL 3
REMARK VINA RESULT:      -8.2      5.304      7.643
REMARK  Name = 
REMARK  4 active torsions:
REMARK  status: ('A' for Active; 'I' for Inactive)
REMARK    1  A    between atoms: C_1  and  O_2
REMARK    2  A    between atoms: O_2  and  C_3
REMARK    3  A    between atoms: C_7  and  C_8
REMARK    4  A    between atoms: C_14  and  C_16
REMARK                            x       y       z     vdW  Elec       q    Type
REMARK                         _______ _______ _______ _____ _____    ______ ____
ROOT
ATOM      1  C   UNL     1       3.438   5.484  19.225  0.00  0.00    +0.000 C 
ATOM      2  O   UNL     1       3.708   4.634  20.071  0.00  0.00    +0.000 OA
ATOM      3  N   UNL     1       2.347   6.345  19.358  0.00  0.00    +0.000 N 
ATOM      4  C   UNL     1       1.648   6.431  20.652  0.00  0.00    +0.000 C 
ATOM      5  C   UNL     1       1.548   7.896  21.138  0.00  0.00    +0.000 C 
ATOM      6  N   UNL     1       1.078   8.803  20.068  0.00  0.00    +0.000 N 
ATOM      7  C   UNL     1       0.073   9.715  20.346  0.00  0.00    +0.000 C 
ATOM      8  O   UNL     1      -0.396   9.860  21.476  0.00  0.00    +0.000 OA
ATOM      9  C   UNL     1       1.870   8.679  18.836  0.00  0.00    +0.000 C 
ATOM     10  C   UNL     1       1.780   7.230  18.333  0.00  0.00    +0.000 C 
ENDROOT
BRANCH   7  11
ATOM     11  C   UNL     1      -0.437  10.636  19.272  0.00  0.00    +0.000 A 
ATOM     12  C   UNL     1      -1.404  10.308  18.405  0.00  0.00    +0.000 A 
ATOM     13  C   UNL     1      -1.711  11.240  17.306  0.00  0.00    +0.000 A 
ATOM     14  O   UNL     1      -2.363  10.860  16.342  0.00  0.00    +0.000 OA
ATOM     15  N   UNL     1      -1.196  12.496  17.422  0.00  0.00    +0.000 N 
ATOM     16  C   UNL     1      -0.309  12.888  18.386  0.00  0.00    +0.000 A 
ATOM     17  O   UNL     1       0.124  14.033  18.441  0.00  0.00    +0.000 OA
ATOM     18  N   UNL     1       0.066  11.918  19.270  0.00  0.00    +0.000 N 
ATOM     19  H   UNL     1      -1.408  13.158  16.692  0.00  0.00    +0.000 HD
ATOM     20  H   UNL     1       0.696  12.185  20.020  0.00  0.00    +0.000 HD
ENDBRANCH   7  11
BRANCH   1  25
ATOM     21  C   UNL     1       6.199   6.648  16.882  0.00  0.00    +0.000 A 
ATOM     22  C   UNL     1       6.026   5.767  15.817  0.00  0.00    +0.000 A 
ATOM     23  C   UNL     1       5.047   4.772  15.874  0.00  0.00    +0.000 A 
ATOM     24  C   UNL     1       4.196   4.691  16.980  0.00  0.00    +0.000 A 
ATOM     25  C   UNL     1       4.345   5.587  18.044  0.00  0.00    +0.000 A 
ATOM     26  C   UNL     1       5.401   6.504  18.014  0.00  0.00    +0.000 A 
BRANCH  21  28
ATOM     27  C   UNL     1       7.916   7.951  17.884  0.00  0.00    +0.000 C 
ATOM     28  O   UNL     1       7.170   7.598  16.722  0.00  0.00    +0.000 OA
ENDBRANCH  21  28
ENDBRANCH   1  25
TORSDOF 3
ENDMDL
MODEL 4
REMARK VINA RESULT:      -8.1      1.616      2.231
REMARK  Name = 
REMARK  4 active torsions:
REMARK  status: ('A' for Active; 'I' for Inactive)
REMARK    1  A    between atoms: C_1  and  O_2
REMARK    2  A    between atoms: O_2  and  C_3
REMARK    3  A    between atoms: C_7  and  C_8
REMARK    4  A    between atoms: C_14  and  C_16
REMARK                            x       y       z     vdW  Elec       q    Type
REMARK                         _______ _______ _______ _____ _____    ______ ____
ROOT
ATOM      1  C   UNL     1       6.898   4.580  13.407  0.00  0.00    +0.000 C 
ATOM      2  O   UNL     1       7.670   5.372  12.870  0.00  0.00    +0.000 OA
ATOM      3  N   UNL     1       6.729   4.531  14.793  0.00  0.00    +0.000 N 
ATOM      4  C   UNL     1       7.278   5.614  15.627  0.00  0.00    +0.000 C 
ATOM      5  C   UNL     1       6.194   6.213  16.553  0.00  0.00    +0.000 C 
ATOM      6  N   UNL     1       5.421   5.163  17.252  0.00  0.00    +0.000 N 
ATOM      7  C   UNL     1       5.200   5.279  18.614  0.00  0.00    +0.000 C 
ATOM      8  O   UNL     1       5.551   6.267  19.260  0.00  0.00    +0.000 OA
ATOM      9  C   UNL     1       4.873   4.158  16.329  0.00  0.00    +0.000 C 
ATOM     10  C   UNL     1       6.033   3.497  15.569  0.00  0.00    +0.000 C 
ENDROOT
BRANCH   7  11
ATOM     11  C   UNL     1       4.434   4.216  19.354  0.00  0.00    +0.000 A 
ATOM     12  C   UNL     1       3.115   4.265  19.577  0.00  0.00    +0.000 A 
ATOM     13  C   UNL     1       2.507   3.240  20.442  0.00  0.00    +0.000 A 
ATOM     14  O   UNL     1       1.386   3.410  20.904  0.00  0.00    +0.000 OA
ATOM     15  N   UNL     1       3.277   2.149  20.712  0.00  0.00    +0.000 N 
ATOM     16  C   UNL     1       4.595   2.021  20.370  0.00  0.00    +0.000 A 
ATOM     17  O   UNL     1       5.241   1.017  20.641  0.00  0.00    +0.000 OA
ATOM     18  N   UNL     1       5.140   3.091  19.720  0.00  0.00    +0.000 N 
ATOM     19  H   UNL     1       2.877   1.423  21.286  0.00  0.00    +0.000 HD
ATOM     20  H   UNL     1       6.107   3.015  19.421  0.00  0.00    +0.000 HD
ENDBRANCH   7  11
BRANCH   1  25
ATOM     21  C   UNL     1       5.907   1.629  11.222  0.00  0.00    +0.000 A 
ATOM     22  C   UNL     1       4.622   2.007  10.840  0.00  0.00    +0.000 A 
ATOM     23  C   UNL     1       4.061   3.193  11.322  0.00  0.00    +0.000 A 
ATOM     24  C   UNL     1       4.811   4.036  12.147  0.00  0.00    +0.000 A 
ATOM     25  C   UNL     1       6.112   3.677  12.516  0.00  0.00    +0.000 A 
ATOM     26  C   UNL     1       6.613   2.435  12.112  0.00  0.00    +0.000 A 
BRANCH  21  28
ATOM     27  C   UNL     1       6.042  -0.740  11.373  0.00  0.00    +0.000 C 
ATOM     28  O   UNL     1       6.373   0.462  10.681  0.00  0.00    +0.000 OA
ENDBRANCH  21  28
ENDBRANCH   1  25
TORSDOF 3
ENDMDL
MODEL 5
REMARK VINA RESULT:      -8.1      1.244      1.353
REMARK  Name = 
REMARK  4 active torsions:
REMARK  status: ('A' for Active; 'I' for Inactive)
REMARK    1  A    between atoms: C_1  and  O_2
REMARK    2  A    between atoms: O_2  and  C_3
REMARK    3  A    between atoms: C_7  and  C_8
REMARK    4  A    between atoms: C_14  and  C_16
REMARK                            x       y       z     vdW  Elec       q    Type
REMARK                         _______ _______ _______ _____ _____    ______ ____
ROOT
ATOM      1  C   UNL     1       7.016   4.663  13.416  0.00  0.00    +0.000 C 
ATOM      2  O   UNL     1       7.749   5.506  12.901  0.00  0.00    +0.000 OA
ATOM      3  N   UNL     1       6.766   4.637  14.790  0.00  0.00    +0.000 N 
ATOM      4  C   UNL     1       7.167   5.786  15.620  0.00  0.00    +0.000 C 
ATOM      5  C   UNL     1       5.979   6.312  16.460  0.00  0.00    +0.000 C 
ATOM      6  N   UNL     1       5.258   5.217  17.145  0.00  0.00    +0.000 N 
ATOM      7  C   UNL     1       4.943   5.349  18.488  0.00  0.00    +0.000 C 
ATOM      8  O   UNL     1       5.166   6.382  19.121  0.00  0.00    +0.000 OA
ATOM      9  C   UNL     1       4.857   4.143  16.225  0.00  0.00    +0.000 C 
ATOM     10  C   UNL     1       6.115   3.567  15.556  0.00  0.00    +0.000 C 
ENDROOT
BRANCH   7  11
ATOM     11  C   UNL     1       4.228   4.243  19.214  0.00  0.00    +0.000 A 
ATOM     12  C   UNL     1       2.901   4.199  19.386  0.00  0.00    +0.000 A 
ATOM     13  C   UNL     1       2.335   3.144  20.243  0.00  0.00    +0.000 A 
ATOM     14  O   UNL     1       1.188   3.238  20.660  0.00  0.00    +0.000 OA
ATOM     15  N   UNL     1       3.171   2.116  20.560  0.00  0.00    +0.000 N 
ATOM     16  C   UNL     1       4.507   2.080  20.271  0.00  0.00    +0.000 A 
ATOM     17  O   UNL     1       5.213   1.128  20.582  0.00  0.00    +0.000 OA
ATOM     18  N   UNL     1       4.999   3.178  19.625  0.00  0.00    +0.000 N 
ATOM     19  H   UNL     1       2.802   1.370  21.130  0.00  0.00    +0.000 HD
ATOM     20  H   UNL     1       5.980   3.169  19.364  0.00  0.00    +0.000 HD
ENDBRANCH   7  11
BRANCH   1  25
ATOM     21  C   UNL     1       4.452   2.917  11.216  0.00  0.00    +0.000 A 
ATOM     22  C   UNL     1       5.173   1.793  10.817  0.00  0.00    +0.000 A 
ATOM     23  C   UNL     1       6.498   1.623  11.224  0.00  0.00    +0.000 A 
ATOM     24  C   UNL     1       7.091   2.552  12.083  0.00  0.00    +0.000 A 
ATOM     25  C   UNL     1       6.368   3.671  12.509  0.00  0.00    +0.000 A 
ATOM     26  C   UNL     1       5.080   3.879  12.002  0.00  0.00    +0.000 A 
BRANCH  21  28
ATOM     27  C   UNL     1       2.876   3.929   9.752  0.00  0.00    +0.000 C 
ATOM     28  O   UNL     1       3.156   2.983  10.781  0.00  0.00    +0.000 OA
ENDBRANCH  21  28
ENDBRANCH   1  25
TORSDOF 3
ENDMDL
MODEL 6
REMARK VINA RESULT:      -8.1      5.085      7.491
REMARK  Name = 
REMARK  4 active torsions:
REMARK  status: ('A' for Active; 'I' for Inactive)
REMARK    1  A    between atoms: C_1  and  O_2
REMARK    2  A    between atoms: O_2  and  C_3
REMARK    3  A    between atoms: C_7  and  C_8
REMARK    4  A    between atoms: C_14  and  C_16
REMARK                            x       y       z     vdW  Elec       q    Type
REMARK                         _______ _______ _______ _____ _____    ______ ____
ROOT
ATOM      1  C   UNL     1       3.560   5.226  19.040  0.00  0.00    +0.000 C 
ATOM      2  O   UNL     1       3.813   4.340  19.854  0.00  0.00    +0.000 OA
ATOM      3  N   UNL     1       2.483   6.100  19.204  0.00  0.00    +0.000 N 
ATOM      4  C   UNL     1       1.780   6.146  20.498  0.00  0.00    +0.000 C 
ATOM      5  C   UNL     1       1.702   7.592  21.041  0.00  0.00    +0.000 C 
ATOM      6  N   UNL     1       1.250   8.548  20.006  0.00  0.00    +0.000 N 
ATOM      7  C   UNL     1       0.259   9.464  20.316  0.00  0.00    +0.000 C 
ATOM      8  O   UNL     1      -0.211   9.573  21.449  0.00  0.00    +0.000 OA
ATOM      9  C   UNL     1       2.045   8.459  18.773  0.00  0.00    +0.000 C 
ATOM     10  C   UNL     1       1.934   7.032  18.212  0.00  0.00    +0.000 C 
ENDROOT
BRANCH   7  11
ATOM     11  C   UNL     1      -0.232  10.435  19.277  0.00  0.00    +0.000 A 
ATOM     12  C   UNL     1       0.234  11.683  19.142  0.00  0.00    +0.000 A 
ATOM     13  C   UNL     1      -0.431  12.584  18.186  0.00  0.00    +0.000 A 
ATOM     14  O   UNL     1      -0.236  13.792  18.242  0.00  0.00    +0.000 OA
ATOM     15  N   UNL     1      -1.281  11.997  17.298  0.00  0.00    +0.000 N 
ATOM     16  C   UNL     1      -1.664  10.685  17.338  0.00  0.00    +0.000 A 
ATOM     17  O   UNL     1      -2.435  10.210  16.513  0.00  0.00    +0.000 OA
ATOM     18  N   UNL     1      -1.140   9.950  18.362  0.00  0.00    +0.000 N 
ATOM     19  H   UNL     1      -1.734  12.590  16.621  0.00  0.00    +0.000 HD
ATOM     20  H   UNL     1      -1.376   8.963  18.399  0.00  0.00    +0.000 HD
ENDBRANCH   7  11
BRANCH   1  25
ATOM     21  C   UNL     1       6.398   6.380  16.785  0.00  0.00    +0.000 A 
ATOM     22  C   UNL     1       6.164   5.602  15.653  0.00  0.00    +0.000 A 
ATOM     23  C   UNL     1       5.117   4.677  15.635  0.00  0.00    +0.000 A 
ATOM     24  C   UNL     1       4.262   4.567  16.735  0.00  0.00    +0.000 A 
ATOM     25  C   UNL     1       4.473   5.361  17.867  0.00  0.00    +0.000 A 
ATOM     26  C   UNL     1       5.591   6.202  17.906  0.00  0.00    +0.000 A 
BRANCH  21  28
ATOM     27  C   UNL     1       7.809   7.932  17.902  0.00  0.00    +0.000 C 
ATOM     28  O   UNL     1       7.433   7.270  16.698  0.00  0.00    +0.000 OA
ENDBRANCH  21  28
ENDBRANCH   1  25
TORSDOF 3
ENDMDL
MODEL 7
REMARK VINA RESULT:      -7.9      4.313      8.748
REMARK  Name = 
REMARK  4 active torsions:
REMARK  status: ('A' for Active; 'I' for Inactive)
REMARK    1  A    between atoms: C_1  and  O_2
REMARK    2  A    between atoms: O_2  and  C_3
REMARK    3  A    between atoms: C_7  and  C_8
REMARK    4  A    between atoms: C_14  and  C_16
REMARK                            x       y       z     vdW  Elec       q    Type
REMARK                         _______ _______ _______ _____ _____    ______ ____
ROOT
ATOM      1  C   UNL     1       0.851   7.665  20.793  0.00  0.00    +0.000 C 
ATOM      2  O   UNL     1      -0.105   7.397  21.518  0.00  0.00    +0.000 OA
ATOM      3  N   UNL     1       1.774   6.697  20.392  0.00  0.00    +0.000 N 
ATOM      4  C   UNL     1       1.472   5.273  20.615  0.00  0.00    +0.000 C 
ATOM      5  C   UNL     1       1.607   4.460  19.307  0.00  0.00    +0.000 C 
ATOM      6  N   UNL     1       2.865   4.767  18.592  0.00  0.00    +0.000 N 
ATOM      7  C   UNL     1       3.647   3.726  18.119  0.00  0.00    +0.000 C 
ATOM      8  O   UNL     1       3.298   2.547  18.197  0.00  0.00    +0.000 OA
ATOM      9  C   UNL     1       3.050   6.208  18.373  0.00  0.00    +0.000 C 
ATOM     10  C   UNL     1       3.068   6.919  19.735  0.00  0.00    +0.000 C 
ENDROOT
BRANCH   7  11
ATOM     11  C   UNL     1       4.940   4.009  17.405  0.00  0.00    +0.000 A 
ATOM     12  C   UNL     1       5.037   4.200  16.083  0.00  0.00    +0.000 A 
ATOM     13  C   UNL     1       6.377   4.320  15.484  0.00  0.00    +0.000 A 
ATOM     14  O   UNL     1       6.524   4.200  14.275  0.00  0.00    +0.000 OA
ATOM     15  N   UNL     1       7.407   4.524  16.353  0.00  0.00    +0.000 N 
ATOM     16  C   UNL     1       7.300   4.469  17.715  0.00  0.00    +0.000 A 
ATOM     17  O   UNL     1       8.262   4.659  18.449  0.00  0.00    +0.000 OA
ATOM     18  N   UNL     1       6.056   4.179  18.196  0.00  0.00    +0.000 N 
ATOM     19  H   UNL     1       8.332   4.629  15.966  0.00  0.00    +0.000 HD
ATOM     20  H   UNL     1       5.934   4.165  19.204  0.00  0.00    +0.000 HD
ENDBRANCH   7  11
BRANCH   1  25
ATOM     21  C   UNL     1       1.041  11.464  20.773  0.00  0.00    +0.000 A 
ATOM     22  C   UNL     1       1.213  11.709  19.412  0.00  0.00    +0.000 A 
ATOM     23  C   UNL     1       1.310  10.648  18.509  0.00  0.00    +0.000 A 
ATOM     24  C   UNL     1       1.177   9.331  18.960  0.00  0.00    +0.000 A 
ATOM     25  C   UNL     1       0.979   9.076  20.321  0.00  0.00    +0.000 A 
ATOM     26  C   UNL     1       0.995  10.146  21.222  0.00  0.00    +0.000 A 
BRANCH  21  28
ATOM     27  C   UNL     1       0.665  13.806  20.920  0.00  0.00    +0.000 C 
ATOM     28  O   UNL     1       0.939  12.569  21.573  0.00  0.00    +0.000 OA
ENDBRANCH  21  28
ENDBRANCH   1  25
TORSDOF 3
ENDMDL
MODEL 8
REMARK VINA RESULT:      -7.9      5.244      8.675
REMARK  Name = 
REMARK  4 active torsions:
REMARK  status: ('A' for Active; 'I' for Inactive)
REMARK    1  A    between atoms: C_1  and  O_2
REMARK    2  A    between atoms: O_2  and  C_3
REMARK    3  A    between atoms: C_7  and  C_8
REMARK    4  A    between atoms: C_14  and  C_16
REMARK                            x       y       z     vdW  Elec       q    Type
REMARK                         _______ _______ _______ _____ _____    ______ ____
ROOT
ATOM      1  C   UNL     1      -0.019   9.527  20.337  0.00  0.00    +0.000 C 
ATOM      2  O   UNL     1      -0.593   9.546  21.425  0.00  0.00    +0.000 OA
ATOM      3  N   UNL     1       1.156   8.802  20.129  0.00  0.00    +0.000 N 
ATOM      4  C   UNL     1       1.593   7.827  21.143  0.00  0.00    +0.000 C 
ATOM      5  C   UNL     1       1.848   6.438  20.511  0.00  0.00    +0.000 C 
ATOM      6  N   UNL     1       2.667   6.531  19.283  0.00  0.00    +0.000 N 
ATOM      7  C   UNL     1       3.740   5.671  19.118  0.00  0.00    +0.000 C 
ATOM      8  O   UNL     1       3.997   4.771  19.919  0.00  0.00    +0.000 OA
ATOM      9  C   UNL     1       2.121   7.492  18.314  0.00  0.00    +0.000 C 
ATOM     10  C   UNL     1       2.057   8.879  18.972  0.00  0.00    +0.000 C 
ENDROOT
BRANCH   7  11
ATOM     11  C   UNL     1       4.601   5.757  17.888  0.00  0.00    +0.000 A 
ATOM     12  C   UNL     1       4.350   5.091  16.753  0.00  0.00    +0.000 A 
ATOM     13  C   UNL     1       5.347   5.141  15.671  0.00  0.00    +0.000 A 
ATOM     14  O   UNL     1       5.301   4.330  14.755  0.00  0.00    +0.000 OA
ATOM     15  N   UNL     1       6.313   6.094  15.788  0.00  0.00    +0.000 N 
ATOM     16  C   UNL     1       6.502   6.882  16.889  0.00  0.00    +0.000 A 
ATOM     17  O   UNL     1       7.390   7.723  16.940  0.00  0.00    +0.000 OA
ATOM     18  N   UNL     1       5.643   6.657  17.927  0.00  0.00    +0.000 N 
ATOM     19  H   UNL     1       6.997   6.161  15.050  0.00  0.00    +0.000 HD
ATOM     20  H   UNL     1       5.733   7.249  18.747  0.00  0.00    +0.000 HD
ENDBRANCH   7  11
BRANCH   1  25
ATOM     21  C   UNL     1      -1.959  10.359  17.172  0.00  0.00    +0.000 A 
ATOM     22  C   UNL     1      -1.804  11.743  17.128  0.00  0.00    +0.000 A 
ATOM     23  C   UNL     1      -1.111  12.409  18.142  0.00  0.00    +0.000 A 
ATOM     24  C   UNL     1      -0.519  11.683  19.179  0.00  0.00    +0.000 A 
ATOM     25  C   UNL     1      -0.646  10.291  19.218  0.00  0.00    +0.000 A 
ATOM     26  C   UNL     1      -1.436   9.655  18.255  0.00  0.00    +0.000 A 
BRANCH  21  28
ATOM     27  C   UNL     1      -3.154  10.695  15.146  0.00  0.00    +0.000 C 
ATOM     28  O   UNL     1      -2.636   9.798  16.125  0.00  0.00    +0.000 OA
ENDBRANCH  21  28
ENDBRANCH   1  25
TORSDOF 3
ENDMDL
MODEL 9
REMARK VINA RESULT:      -7.9      0.580      1.588
REMARK  Name = 
REMARK  4 active torsions:
REMARK  status: ('A' for Active; 'I' for Inactive)
REMARK    1  A    between atoms: C_1  and  O_2
REMARK    2  A    between atoms: O_2  and  C_3
REMARK    3  A    between atoms: C_7  and  C_8
REMARK    4  A    between atoms: C_14  and  C_16
REMARK                            x       y       z     vdW  Elec       q    Type
REMARK                         _______ _______ _______ _____ _____    ______ ____
ROOT
ATOM      1  C   UNL     1       6.929   4.765  14.013  0.00  0.00    +0.000 C 
ATOM      2  O   UNL     1       7.785   5.568  13.647  0.00  0.00    +0.000 OA
ATOM      3  N   UNL     1       6.473   4.714  15.332  0.00  0.00    +0.000 N 
ATOM      4  C   UNL     1       6.819   5.807  16.259  0.00  0.00    +0.000 C 
ATOM      5  C   UNL     1       5.554   6.389  16.933  0.00  0.00    +0.000 C 
ATOM      6  N   UNL     1       4.669   5.328  17.459  0.00  0.00    +0.000 N 
ATOM      7  C   UNL     1       4.164   5.441  18.744  0.00  0.00    +0.000 C 
ATOM      8  O   UNL     1       4.356   6.436  19.445  0.00  0.00    +0.000 OA
ATOM      9  C   UNL     1       4.342   4.314  16.446  0.00  0.00    +0.000 C 
ATOM     10  C   UNL     1       5.646   3.670  15.949  0.00  0.00    +0.000 C 
ENDROOT
BRANCH   7  11
ATOM     11  C   UNL     1       3.277   4.367  19.311  0.00  0.00    +0.000 A 
ATOM     12  C   UNL     1       3.286   3.993  20.597  0.00  0.00    +0.000 A 
ATOM     13  C   UNL     1       2.478   2.829  20.998  0.00  0.00    +0.000 A 
ATOM     14  O   UNL     1       2.680   2.282  22.075  0.00  0.00    +0.000 OA
ATOM     15  N   UNL     1       1.554   2.400  20.095  0.00  0.00    +0.000 N 
ATOM     16  C   UNL     1       1.438   2.867  18.815  0.00  0.00    +0.000 A 
ATOM     17  O   UNL     1       0.588   2.442  18.043  0.00  0.00    +0.000 OA
ATOM     18  N   UNL     1       2.340   3.828  18.457  0.00  0.00    +0.000 N 
ATOM     19  H   UNL     1       0.974   1.616  20.354  0.00  0.00    +0.000 HD
ATOM     20  H   UNL     1       2.259   4.223  17.525  0.00  0.00    +0.000 HD
ENDBRANCH   7  11
BRANCH   1  25
ATOM     21  C   UNL     1       4.517   3.130  11.568  0.00  0.00    +0.000 A 
ATOM     22  C   UNL     1       5.319   2.115  11.050  0.00  0.00    +0.000 A 
ATOM     23  C   UNL     1       6.649   1.986  11.460  0.00  0.00    +0.000 A 
ATOM     24  C   UNL     1       7.166   2.842  12.436  0.00  0.00    +0.000 A 
ATOM     25  C   UNL     1       6.362   3.849  12.980  0.00  0.00    +0.000 A 
ATOM     26  C   UNL     1       5.069   4.029  12.477  0.00  0.00    +0.000 A 
BRANCH  21  28
ATOM     27  C   UNL     1       3.005   3.773   9.851  0.00  0.00    +0.000 C 
ATOM     28  O   UNL     1       3.226   3.160  11.120  0.00  0.00    +0.000 OA
ENDBRANCH  21  28
ENDBRANCH   1  25
TORSDOF 3
ENDMDL
