MODEL 1
REMARK VINA RESULT:      -9.2      0.000      0.000
REMARK  Name = 
REMARK  4 active torsions:
REMARK  status: ('A' for Active; 'I' for Inactive)
REMARK    1  A    between atoms: C_4  and  C_5
REMARK    2  A    between atoms: C_9  and  C_10
REMARK    3  A    between atoms: C_10  and  O_11
REMARK    4  A    between atoms: C_14  and  C_15
REMARK                            x       y       z     vdW  Elec       q    Type
REMARK                         _______ _______ _______ _____ _____    ______ ____
ROOT
ATOM      1  O   UNL     1       8.153   5.280  19.092  0.00  0.00    +0.000 OA
ATOM      2  C   UNL     1       7.195   5.046  18.355  0.00  0.00    +0.000 C 
ATOM      3  C   UNL     1       7.425   4.946  16.896  0.00  0.00    +0.000 C 
ATOM      4  C   UNL     1       6.400   4.732  16.056  0.00  0.00    +0.000 C 
ATOM      5  C   UNL     1       4.979   4.638  16.498  0.00  0.00    +0.000 C 
ATOM      6  C   UNL     1       4.733   5.206  17.914  0.00  0.00    +0.000 C 
ATOM      7  C   UNL     1       5.810   4.761  18.904  0.00  0.00    +0.000 C 
ENDROOT
BRANCH   6   8
ATOM      8  C   UNL     1       3.306   4.829  18.284  0.00  0.00    +0.000 A 
ATOM      9  C   UNL     1       2.746   5.265  19.499  0.00  0.00    +0.000 A 
ATOM     10  C   UNL     1       1.643   4.610  20.040  0.00  0.00    +0.000 A 
ATOM     11  C   UNL     1       1.066   3.557  19.344  0.00  0.00    +0.000 A 
ATOM     12  F   UNL     1       0.068   2.863  19.908  0.00  0.00    +0.000 F 
ATOM     13  C   UNL     1       1.533   3.186  18.089  0.00  0.00    +0.000 A 
ATOM     14  C   UNL     1       2.650   3.827  17.552  0.00  0.00    +0.000 A 
ENDBRANCH   6   8
BRANCH   4  15
ATOM     15  C   UNL     1       6.636   4.573  14.617  0.00  0.00    +0.000 A 
ATOM     16  C   UNL     1       7.605   5.349  13.971  0.00  0.00    +0.000 A 
ATOM     17  C   UNL     1       7.818   5.200  12.601  0.00  0.00    +0.000 A 
ATOM     18  C   UNL     1       7.070   4.272  11.874  0.00  0.00    +0.000 A 
ATOM     19  C   UNL     1       6.116   3.465  12.511  0.00  0.00    +0.000 A 
ATOM     20  C   UNL     1       5.899   3.634  13.886  0.00  0.00    +0.000 A 
BRANCH  19  21
ATOM     21  C   UNL     1       5.284   2.505  11.702  0.00  0.00    +0.000 C 
BRANCH  21  22
ATOM     22  O   UNL     1       5.976   1.288  11.451  0.00  0.00    +0.000 OA
ATOM     23  H   UNL     1       5.807   1.059  10.521  0.00  0.00    +0.000 HD
ENDBRANCH  21  22
ENDBRANCH  19  21
ENDBRANCH   4  15
TORSDOF 4
ENDMDL
MODEL 2
REMARK VINA RESULT:      -9.0      0.766      1.224
REMARK  Name = 
REMARK  4 active torsions:
REMARK  status: ('A' for Active; 'I' for Inactive)
REMARK    1  A    between atoms: C_4  and  C_5
REMARK    2  A    between atoms: C_9  and  C_10
REMARK    3  A    between atoms: C_10  and  O_11
REMARK    4  A    between atoms: C_14  and  C_15
REMARK                            x       y       z     vdW  Elec       q    Type
REMARK                         _______ _______ _______ _____ _____    ______ ____
ROOT
ATOM      1  O   UNL     1       7.945   6.387  18.838  0.00  0.00    +0.000 OA
ATOM      2  C   UNL     1       7.139   5.722  18.188  0.00  0.00    +0.000 C 
ATOM      3  C   UNL     1       7.348   5.571  16.730  0.00  0.00    +0.000 C 
ATOM      4  C   UNL     1       6.468   4.887  15.981  0.00  0.00    +0.000 C 
ATOM      5  C   UNL     1       5.215   4.288  16.522  0.00  0.00    +0.000 C 
ATOM      6  C   UNL     1       4.804   4.856  17.900  0.00  0.00    +0.000 C 
ATOM      7  C   UNL     1       5.997   4.973  18.850  0.00  0.00    +0.000 C 
ENDROOT
BRANCH   6   8
ATOM      8  C   UNL     1       3.655   3.989  18.394  0.00  0.00    +0.000 A 
ATOM      9  C   UNL     1       3.597   2.625  18.056  0.00  0.00    +0.000 A 
ATOM     10  C   UNL     1       2.390   1.933  18.129  0.00  0.00    +0.000 A 
ATOM     11  C   UNL     1       1.256   2.587  18.590  0.00  0.00    +0.000 A 
ATOM     12  F   UNL     1       0.076   1.953  18.568  0.00  0.00    +0.000 F 
ATOM     13  C   UNL     1       1.319   3.901  19.037  0.00  0.00    +0.000 A 
ATOM     14  C   UNL     1       2.520   4.603  18.948  0.00  0.00    +0.000 A 
ENDBRANCH   6   8
BRANCH   4  15
ATOM     15  C   UNL     1       6.707   4.688  14.547  0.00  0.00    +0.000 A 
ATOM     16  C   UNL     1       7.700   5.423  13.889  0.00  0.00    +0.000 A 
ATOM     17  C   UNL     1       7.916   5.236  12.524  0.00  0.00    +0.000 A 
ATOM     18  C   UNL     1       7.147   4.310  11.815  0.00  0.00    +0.000 A 
ATOM     19  C   UNL     1       6.169   3.544  12.466  0.00  0.00    +0.000 A 
ATOM     20  C   UNL     1       5.950   3.751  13.836  0.00  0.00    +0.000 A 
BRANCH  19  21
ATOM     21  C   UNL     1       5.317   2.586  11.675  0.00  0.00    +0.000 C 
BRANCH  21  22
ATOM     22  O   UNL     1       5.972   1.341  11.471  0.00  0.00    +0.000 OA
ATOM     23  H   UNL     1       6.525   1.186  12.255  0.00  0.00    +0.000 HD
ENDBRANCH  21  22
ENDBRANCH  19  21
ENDBRANCH   4  15
TORSDOF 4
ENDMDL
MODEL 3
REMARK VINA RESULT:      -8.3      3.285      7.130
REMARK  Name = 
REMARK  4 active torsions:
REMARK  status: ('A' for Active; 'I' for Inactive)
REMARK    1  A    between atoms: C_4  and  C_5
REMARK    2  A    between atoms: C_9  and  C_10
REMARK    3  A    between atoms: C_10  and  O_11
REMARK    4  A    between atoms: C_14  and  C_15
REMARK                            x       y       z     vdW  Elec       q    Type
REMARK                         _______ _______ _______ _____ _____    ______ ____
ROOT
ATOM      1  O   UNL     1       7.627   5.738  19.429  0.00  0.00    +0.000 OA
ATOM      2  C   UNL     1       6.821   5.376  18.572  0.00  0.00    +0.000 C 
ATOM      3  C   UNL     1       5.494   4.882  19.004  0.00  0.00    +0.000 C 
ATOM      4  C   UNL     1       4.603   4.440  18.102  0.00  0.00    +0.000 C 
ATOM      5  C   UNL     1       4.883   4.355  16.640  0.00  0.00    +0.000 C 
ATOM      6  C   UNL     1       6.389   4.422  16.295  0.00  0.00    +0.000 C 
ATOM      7  C   UNL     1       7.110   5.512  17.089  0.00  0.00    +0.000 C 
ENDROOT
BRANCH   6   8
ATOM      8  C   UNL     1       6.474   4.549  14.781  0.00  0.00    +0.000 A 
ATOM      9  C   UNL     1       5.696   3.720  13.952  0.00  0.00    +0.000 A 
ATOM     10  C   UNL     1       6.054   3.523  12.620  0.00  0.00    +0.000 A 
ATOM     11  C   UNL     1       7.152   4.196  12.102  0.00  0.00    +0.000 A 
ATOM     12  F   UNL     1       7.555   3.932  10.852  0.00  0.00    +0.000 F 
ATOM     13  C   UNL     1       7.864   5.106  12.873  0.00  0.00    +0.000 A 
ATOM     14  C   UNL     1       7.522   5.292  14.213  0.00  0.00    +0.000 A 
ENDBRANCH   6   8
BRANCH   4  15
ATOM     15  C   UNL     1       3.267   4.007  18.525  0.00  0.00    +0.000 A 
ATOM     16  C   UNL     1       2.197   4.036  17.623  0.00  0.00    +0.000 A 
ATOM     17  C   UNL     1       0.928   3.631  18.035  0.00  0.00    +0.000 A 
ATOM     18  C   UNL     1       0.724   3.191  19.344  0.00  0.00    +0.000 A 
ATOM     19  C   UNL     1       1.791   3.127  20.252  0.00  0.00    +0.000 A 
ATOM     20  C   UNL     1       3.061   3.551  19.832  0.00  0.00    +0.000 A 
BRANCH  19  21
ATOM     21  C   UNL     1       1.543   2.696  21.674  0.00  0.00    +0.000 C 
BRANCH  21  22
ATOM     22  O   UNL     1       2.742   2.289  22.320  0.00  0.00    +0.000 OA
ATOM     23  H   UNL     1       2.486   1.645  23.001  0.00  0.00    +0.000 HD
ENDBRANCH  21  22
ENDBRANCH  19  21
ENDBRANCH   4  15
TORSDOF 4
ENDMDL
MODEL 4
REMARK VINA RESULT:      -8.3      3.979      7.688
REMARK  Name = 
REMARK  4 active torsions:
REMARK  status: ('A' for Active; 'I' for Inactive)
REMARK    1  A    between atoms: C_4  and  C_5
REMARK    2  A    between atoms: C_9  and  C_10
REMARK    3  A    between atoms: C_10  and  O_11
REMARK    4  A    between atoms: C_14  and  C_15
REMARK                            x       y       z     vdW  Elec       q    Type
REMARK                         _______ _______ _______ _____ _____    ______ ____
ROOT
ATOM      1  O   UNL     1       2.947   2.958  20.851  0.00  0.00    +0.000 OA
ATOM      2  C   UNL     1       3.267   3.794  20.006  0.00  0.00    +0.000 C 
ATOM      3  C   UNL     1       2.592   5.112  20.014  0.00  0.00    +0.000 C 
ATOM      4  C   UNL     1       2.885   6.035  19.083  0.00  0.00    +0.000 C 
ATOM      5  C   UNL     1       3.840   5.801  17.963  0.00  0.00    +0.000 C 
ATOM      6  C   UNL     1       4.150   4.306  17.717  0.00  0.00    +0.000 C 
ATOM      7  C   UNL     1       4.396   3.551  19.023  0.00  0.00    +0.000 C 
ENDROOT
BRANCH   6   8
ATOM      8  C   UNL     1       5.291   4.267  16.711  0.00  0.00    +0.000 A 
ATOM      9  C   UNL     1       6.520   4.885  17.004  0.00  0.00    +0.000 A 
ATOM     10  C   UNL     1       7.399   5.224  15.978  0.00  0.00    +0.000 A 
ATOM     11  C   UNL     1       7.077   4.896  14.667  0.00  0.00    +0.000 A 
ATOM     12  F   UNL     1       7.873   5.307  13.672  0.00  0.00    +0.000 F 
ATOM     13  C   UNL     1       5.922   4.183  14.371  0.00  0.00    +0.000 A 
ATOM     14  C   UNL     1       5.029   3.860  15.392  0.00  0.00    +0.000 A 
ENDBRANCH   6   8
BRANCH   4  15
ATOM     15  C   UNL     1       2.259   7.361  19.127  0.00  0.00    +0.000 A 
ATOM     16  C   UNL     1       2.236   8.168  17.984  0.00  0.00    +0.000 A 
ATOM     17  C   UNL     1       1.648   9.432  18.035  0.00  0.00    +0.000 A 
ATOM     18  C   UNL     1       1.076   9.889  19.224  0.00  0.00    +0.000 A 
ATOM     19  C   UNL     1       1.065   9.082  20.370  0.00  0.00    +0.000 A 
ATOM     20  C   UNL     1       1.672   7.819  20.312  0.00  0.00    +0.000 A 
BRANCH  19  21
ATOM     21  C   UNL     1       0.487   9.612  21.656  0.00  0.00    +0.000 C 
BRANCH  21  22
ATOM     22  O   UNL     1       1.455   9.638  22.698  0.00  0.00    +0.000 OA
ATOM     23  H   UNL     1       2.325   9.669  22.268  0.00  0.00    +0.000 HD
ENDBRANCH  21  22
ENDBRANCH  19  21
ENDBRANCH   4  15
TORSDOF 4
ENDMDL
MODEL 5
REMARK VINA RESULT:      -8.2      4.458      8.409
REMARK  Name = 
REMARK  4 active torsions:
REMARK  status: ('A' for Active; 'I' for Inactive)
REMARK    1  A    between atoms: C_4  and  C_5
REMARK    2  A    between atoms: C_9  and  C_10
REMARK    3  A    between atoms: C_10  and  O_11
REMARK    4  A    between atoms: C_14  and  C_15
REMARK                            x       y       z     vdW  Elec       q    Type
REMARK                         _______ _______ _______ _____ _____    ______ ____
ROOT
ATOM      1  O   UNL     1       2.157   3.750  21.555  0.00  0.00    +0.000 OA
ATOM      2  C   UNL     1       2.398   4.601  20.700  0.00  0.00    +0.000 C 
ATOM      3  C   UNL     1       1.778   5.940  20.830  0.00  0.00    +0.000 C 
ATOM      4  C   UNL     1       1.985   6.882  19.896  0.00  0.00    +0.000 C 
ATOM      5  C   UNL     1       2.782   6.653  18.657  0.00  0.00    +0.000 C 
ATOM      6  C   UNL     1       3.003   5.158  18.332  0.00  0.00    +0.000 C 
ATOM      7  C   UNL     1       3.384   4.353  19.574  0.00  0.00    +0.000 C 
ENDROOT
BRANCH   6   8
ATOM      8  C   UNL     1       4.005   5.114  17.187  0.00  0.00    +0.000 A 
ATOM      9  C   UNL     1       4.440   3.880  16.669  0.00  0.00    +0.000 A 
ATOM     10  C   UNL     1       5.627   3.801  15.945  0.00  0.00    +0.000 A 
ATOM     11  C   UNL     1       6.350   4.959  15.692  0.00  0.00    +0.000 A 
ATOM     12  F   UNL     1       7.540   4.871  15.082  0.00  0.00    +0.000 F 
ATOM     13  C   UNL     1       5.878   6.201  16.096  0.00  0.00    +0.000 A 
ATOM     14  C   UNL     1       4.700   6.283  16.839  0.00  0.00    +0.000 A 
ENDBRANCH   6   8
BRANCH   4  15
ATOM     15  C   UNL     1       1.420   8.226  20.056  0.00  0.00    +0.000 A 
ATOM     16  C   UNL     1       1.471   9.143  19.000  0.00  0.00    +0.000 A 
ATOM     17  C   UNL     1       0.940  10.423  19.162  0.00  0.00    +0.000 A 
ATOM     18  C   UNL     1       0.350  10.787  20.374  0.00  0.00    +0.000 A 
ATOM     19  C   UNL     1       0.263   9.870  21.432  0.00  0.00    +0.000 A 
ATOM     20  C   UNL     1       0.814   8.591  21.264  0.00  0.00    +0.000 A 
BRANCH  19  21
ATOM     21  C   UNL     1      -0.332  10.296  22.748  0.00  0.00    +0.000 C 
BRANCH  21  22
ATOM     22  O   UNL     1       0.330   9.687  23.850  0.00  0.00    +0.000 OA
ATOM     23  H   UNL     1       0.934   9.023  23.478  0.00  0.00    +0.000 HD
ENDBRANCH  21  22
ENDBRANCH  19  21
ENDBRANCH   4  15
TORSDOF 4
ENDMDL
MODEL 6
REMARK VINA RESULT:      -8.1      3.045      3.910
REMARK  Name = 
REMARK  4 active torsions:
REMARK  status: ('A' for Active; 'I' for Inactive)
REMARK    1  A    between atoms: C_4  and  C_5
REMARK    2  A    between atoms: C_9  and  C_10
REMARK    3  A    between atoms: C_10  and  O_11
REMARK    4  A    between atoms: C_14  and  C_15
REMARK                            x       y       z     vdW  Elec       q    Type
REMARK                         _______ _______ _______ _____ _____    ______ ____
ROOT
ATOM      1  O   UNL     1       2.106   2.484  18.947  0.00  0.00    +0.000 OA
ATOM      2  C   UNL     1       2.546   3.549  18.513  0.00  0.00    +0.000 C 
ATOM      3  C   UNL     1       3.645   3.516  17.521  0.00  0.00    +0.000 C 
ATOM      4  C   UNL     1       4.179   4.656  17.055  0.00  0.00    +0.000 C 
ATOM      5  C   UNL     1       3.767   6.010  17.522  0.00  0.00    +0.000 C 
ATOM      6  C   UNL     1       2.986   5.992  18.857  0.00  0.00    +0.000 C 
ATOM      7  C   UNL     1       1.933   4.885  18.889  0.00  0.00    +0.000 C 
ENDROOT
BRANCH   6   8
ATOM      8  C   UNL     1       2.459   7.405  19.062  0.00  0.00    +0.000 A 
ATOM      9  C   UNL     1       1.855   7.770  20.279  0.00  0.00    +0.000 A 
ATOM     10  C   UNL     1       1.013   8.878  20.342  0.00  0.00    +0.000 A 
ATOM     11  C   UNL     1       0.819   9.653  19.206  0.00  0.00    +0.000 A 
ATOM     12  F   UNL     1      -0.065  10.658  19.239  0.00  0.00    +0.000 F 
ATOM     13  C   UNL     1       1.497   9.375  18.025  0.00  0.00    +0.000 A 
ATOM     14  C   UNL     1       2.325   8.255  17.952  0.00  0.00    +0.000 A 
ENDBRANCH   6   8
BRANCH   4  15
ATOM     15  C   UNL     1       5.227   4.623  16.029  0.00  0.00    +0.000 A 
ATOM     16  C   UNL     1       6.494   5.152  16.297  0.00  0.00    +0.000 A 
ATOM     17  C   UNL     1       7.483   5.126  15.314  0.00  0.00    +0.000 A 
ATOM     18  C   UNL     1       7.211   4.566  14.064  0.00  0.00    +0.000 A 
ATOM     19  C   UNL     1       5.956   4.004  13.788  0.00  0.00    +0.000 A 
ATOM     20  C   UNL     1       4.964   4.050  14.780  0.00  0.00    +0.000 A 
BRANCH  19  21
ATOM     21  C   UNL     1       5.665   3.449  12.419  0.00  0.00    +0.000 C 
BRANCH  21  22
ATOM     22  O   UNL     1       6.574   2.413  12.065  0.00  0.00    +0.000 OA
ATOM     23  H   UNL     1       7.032   2.155  12.882  0.00  0.00    +0.000 HD
ENDBRANCH  21  22
ENDBRANCH  19  21
ENDBRANCH   4  15
TORSDOF 4
ENDMDL
MODEL 7
REMARK VINA RESULT:      -8.1      3.284      4.738
REMARK  Name = 
REMARK  4 active torsions:
REMARK  status: ('A' for Active; 'I' for Inactive)
REMARK    1  A    between atoms: C_4  and  C_5
REMARK    2  A    between atoms: C_9  and  C_10
REMARK    3  A    between atoms: C_10  and  O_11
REMARK    4  A    between atoms: C_14  and  C_15
REMARK                            x       y       z     vdW  Elec       q    Type
REMARK                         _______ _______ _______ _____ _____    ______ ____
ROOT
ATOM      1  O   UNL     1       1.667   2.730  20.681  0.00  0.00    +0.000 OA
ATOM      2  C   UNL     1       2.109   3.753  20.159  0.00  0.00    +0.000 C 
ATOM      3  C   UNL     1       3.295   3.649  19.278  0.00  0.00    +0.000 C 
ATOM      4  C   UNL     1       3.832   4.748  18.723  0.00  0.00    +0.000 C 
ATOM      5  C   UNL     1       3.334   6.129  18.983  0.00  0.00    +0.000 C 
ATOM      6  C   UNL     1       2.436   6.237  20.236  0.00  0.00    +0.000 C 
ATOM      7  C   UNL     1       1.421   5.096  20.312  0.00  0.00    +0.000 C 
ENDROOT
BRANCH   6   8
ATOM      8  C   UNL     1       1.846   7.640  20.219  0.00  0.00    +0.000 A 
ATOM      9  C   UNL     1       1.028   8.081  21.275  0.00  0.00    +0.000 A 
ATOM     10  C   UNL     1       0.161   9.155  21.092  0.00  0.00    +0.000 A 
ATOM     11  C   UNL     1       0.151   9.824  19.875  0.00  0.00    +0.000 A 
ATOM     12  F   UNL     1      -0.749  10.792  19.664  0.00  0.00    +0.000 F 
ATOM     13  C   UNL     1       1.033   9.475  18.859  0.00  0.00    +0.000 A 
ATOM     14  C   UNL     1       1.889   8.387  19.032  0.00  0.00    +0.000 A 
ENDBRANCH   6   8
BRANCH   4  15
ATOM     15  C   UNL     1       4.969   4.638  17.804  0.00  0.00    +0.000 A 
ATOM     16  C   UNL     1       6.280   4.693  18.293  0.00  0.00    +0.000 A 
ATOM     17  C   UNL     1       7.357   4.597  17.412  0.00  0.00    +0.000 A 
ATOM     18  C   UNL     1       7.129   4.439  16.043  0.00  0.00    +0.000 A 
ATOM     19  C   UNL     1       5.822   4.352  15.540  0.00  0.00    +0.000 A 
ATOM     20  C   UNL     1       4.747   4.465  16.433  0.00  0.00    +0.000 A 
BRANCH  19  21
ATOM     21  C   UNL     1       5.596   4.231  14.056  0.00  0.00    +0.000 C 
BRANCH  21  22
ATOM     22  O   UNL     1       6.370   3.183  13.487  0.00  0.00    +0.000 OA
ATOM     23  H   UNL     1       7.057   2.960  14.138  0.00  0.00    +0.000 HD
ENDBRANCH  21  22
ENDBRANCH  19  21
ENDBRANCH   4  15
TORSDOF 4
ENDMDL
MODEL 8
REMARK VINA RESULT:      -8.1      4.476      8.287
REMARK  Name = 
REMARK  4 active torsions:
REMARK  status: ('A' for Active; 'I' for Inactive)
REMARK    1  A    between atoms: C_4  and  C_5
REMARK    2  A    between atoms: C_9  and  C_10
REMARK    3  A    between atoms: C_10  and  O_11
REMARK    4  A    between atoms: C_14  and  C_15
REMARK                            x       y       z     vdW  Elec       q    Type
REMARK                         _______ _______ _______ _____ _____    ______ ____
ROOT
ATOM      1  O   UNL     1       2.092   3.716  21.481  0.00  0.00    +0.000 OA
ATOM      2  C   UNL     1       2.424   4.575  20.664  0.00  0.00    +0.000 C 
ATOM      3  C   UNL     1       1.787   5.910  20.734  0.00  0.00    +0.000 C 
ATOM      4  C   UNL     1       2.092   6.861  19.836  0.00  0.00    +0.000 C 
ATOM      5  C   UNL     1       3.023   6.645  18.692  0.00  0.00    +0.000 C 
ATOM      6  C   UNL     1       3.286   5.153  18.383  0.00  0.00    +0.000 C 
ATOM      7  C   UNL     1       3.530   4.339  19.654  0.00  0.00    +0.000 C 
ENDROOT
BRANCH   6   8
ATOM      8  C   UNL     1       4.411   5.121  17.357  0.00  0.00    +0.000 A 
ATOM      9  C   UNL     1       4.717   6.267  16.601  0.00  0.00    +0.000 A 
ATOM     10  C   UNL     1       5.421   6.152  15.405  0.00  0.00    +0.000 A 
ATOM     11  C   UNL     1       5.869   4.904  14.994  0.00  0.00    +0.000 A 
ATOM     12  F   UNL     1       6.459   4.778  13.799  0.00  0.00    +0.000 F 
ATOM     13  C   UNL     1       5.676   3.778  15.785  0.00  0.00    +0.000 A 
ATOM     14  C   UNL     1       4.953   3.885  16.973  0.00  0.00    +0.000 A 
ENDBRANCH   6   8
BRANCH   4  15
ATOM     15  C   UNL     1       1.506   8.201  19.942  0.00  0.00    +0.000 A 
ATOM     16  C   UNL     1       1.549   9.078  18.852  0.00  0.00    +0.000 A 
ATOM     17  C   UNL     1       0.998  10.354  18.962  0.00  0.00    +0.000 A 
ATOM     18  C   UNL     1       0.397  10.756  20.157  0.00  0.00    +0.000 A 
ATOM     19  C   UNL     1       0.317   9.879  21.249  0.00  0.00    +0.000 A 
ATOM     20  C   UNL     1       0.889   8.603  21.132  0.00  0.00    +0.000 A 
BRANCH  19  21
ATOM     21  C   UNL     1      -0.291  10.346  22.545  0.00  0.00    +0.000 C 
BRANCH  21  22
ATOM     22  O   UNL     1      -0.617   9.256  23.398  0.00  0.00    +0.000 OA
ATOM     23  H   UNL     1      -1.137   8.632  22.866  0.00  0.00    +0.000 HD
ENDBRANCH  21  22
ENDBRANCH  19  21
ENDBRANCH   4  15
TORSDOF 4
ENDMDL
MODEL 9
REMARK VINA RESULT:      -8.0      3.124      6.775
REMARK  Name = 
REMARK  4 active torsions:
REMARK  status: ('A' for Active; 'I' for Inactive)
REMARK    1  A    between atoms: C_4  and  C_5
REMARK    2  A    between atoms: C_9  and  C_10
REMARK    3  A    between atoms: C_10  and  O_11
REMARK    4  A    between atoms: C_14  and  C_15
REMARK                            x       y       z     vdW  Elec       q    Type
REMARK                         _______ _______ _______ _____ _____    ______ ____
ROOT
ATOM      1  O   UNL     1       8.270   5.530  19.583  0.00  0.00    +0.000 OA
ATOM      2  C   UNL     1       7.326   5.362  18.811  0.00  0.00    +0.000 C 
ATOM      3  C   UNL     1       5.965   5.202  19.372  0.00  0.00    +0.000 C 
ATOM      4  C   UNL     1       4.916   4.976  18.565  0.00  0.00    +0.000 C 
ATOM      5  C   UNL     1       5.032   4.814  17.088  0.00  0.00    +0.000 C 
ATOM      6  C   UNL     1       6.473   4.518  16.610  0.00  0.00    +0.000 C 
ATOM      7  C   UNL     1       7.501   5.412  17.305  0.00  0.00    +0.000 C 
ENDROOT
BRANCH   6   8
ATOM      8  C   UNL     1       6.446   4.607  15.091  0.00  0.00    +0.000 A 
ATOM      9  C   UNL     1       5.587   3.781  14.345  0.00  0.00    +0.000 A 
ATOM     10  C   UNL     1       5.836   3.543  12.995  0.00  0.00    +0.000 A 
ATOM     11  C   UNL     1       6.909   4.173  12.379  0.00  0.00    +0.000 A 
ATOM     12  F   UNL     1       7.209   3.870  11.109  0.00  0.00    +0.000 F 
ATOM     13  C   UNL     1       7.701   5.082  13.071  0.00  0.00    +0.000 A 
ATOM     14  C   UNL     1       7.466   5.307  14.427  0.00  0.00    +0.000 A 
ENDBRANCH   6   8
BRANCH   4  15
ATOM     15  C   UNL     1       3.560   4.877  19.116  0.00  0.00    +0.000 A 
ATOM     16  C   UNL     1       3.073   5.869  19.974  0.00  0.00    +0.000 A 
ATOM     17  C   UNL     1       1.786   5.764  20.502  0.00  0.00    +0.000 A 
ATOM     18  C   UNL     1       0.981   4.673  20.169  0.00  0.00    +0.000 A 
ATOM     19  C   UNL     1       1.442   3.685  19.287  0.00  0.00    +0.000 A 
ATOM     20  C   UNL     1       2.744   3.793  18.775  0.00  0.00    +0.000 A 
BRANCH  19  21
ATOM     21  C   UNL     1       0.578   2.491  18.979  0.00  0.00    +0.000 C 
BRANCH  21  22
ATOM     22  O   UNL     1       1.354   1.358  18.609  0.00  0.00    +0.000 OA
ATOM     23  H   UNL     1       1.116   0.645  19.224  0.00  0.00    +0.000 HD
ENDBRANCH  21  22
ENDBRANCH  19  21
ENDBRANCH   4  15
TORSDOF 4
ENDMDL
