MODEL 1
REMARK VINA RESULT:      -7.1      0.000      0.000
REMARK  Name = 
REMARK  3 active torsions:
REMARK  status: ('A' for Active; 'I' for Inactive)
REMARK    1  A    between atoms: C_1  and  C_2
REMARK    2  A    between atoms: C_4  and  C_5
REMARK    3  A    between atoms: N_12  and  C_13
REMARK                            x       y       z     vdW  Elec       q    Type
REMARK                         _______ _______ _______ _____ _____    ______ ____
ROOT
ATOM      1  C   UNL     1       4.086   3.967  16.808  0.00  0.00    +0.000 C 
ATOM      2  C   UNL     1       3.437   4.676  17.963  0.00  0.00    +0.000 A 
ATOM      3  C   UNL     1       3.102   3.967  19.133  0.00  0.00    +0.000 A 
ATOM      4  C   UNL     1       2.495   4.588  20.238  0.00  0.00    +0.000 A 
ATOM      5  C   UNL     1       2.110   3.838  21.471  0.00  0.00    +0.000 C 
ATOM      6  C   UNL     1       2.259   5.951  20.078  0.00  0.00    +0.000 A 
ATOM      7  O   UNL     1       1.684   6.787  20.983  0.00  0.00    +0.000 OA
ATOM      8  C   UNL     1       1.631   7.999  20.350  0.00  0.00    +0.000 A 
ATOM      9  N   UNL     1       0.999   8.990  21.012  0.00  0.00    +0.000 N 
ATOM     10  C   UNL     1       0.973   8.982  22.476  0.00  0.00    +0.000 C 
ATOM     11  C   UNL     1      -0.265   9.752  22.982  0.00  0.00    +0.000 C 
ATOM     12  N   UNL     1      -0.354  11.125  22.435  0.00  0.00    +0.000 NA
ATOM     13  C   UNL     1      -1.588  11.767  22.887  0.00  0.00    +0.000 C 
ATOM     14  C   UNL     1      -0.305  11.071  20.954  0.00  0.00    +0.000 C 
ATOM     15  C   UNL     1       0.941  10.324  20.417  0.00  0.00    +0.000 C 
ATOM     16  N   UNL     1       2.145   7.996  19.136  0.00  0.00    +0.000 NA
ATOM     17  C   UNL     1       2.554   6.695  18.952  0.00  0.00    +0.000 A 
ATOM     18  C   UNL     1       3.162   6.056  17.864  0.00  0.00    +0.000 A 
ENDROOT
TORSDOF 0
ENDMDL
MODEL 2
REMARK VINA RESULT:      -6.7      2.632      7.256
REMARK  Name = 
REMARK  3 active torsions:
REMARK  status: ('A' for Active; 'I' for Inactive)
REMARK    1  A    between atoms: C_1  and  C_2
REMARK    2  A    between atoms: C_4  and  C_5
REMARK    3  A    between atoms: N_12  and  C_13
REMARK                            x       y       z     vdW  Elec       q    Type
REMARK                         _______ _______ _______ _____ _____    ______ ____
ROOT
ATOM      1  C   UNL     1      -0.363   8.734  22.364  0.00  0.00    +0.000 C 
ATOM      2  C   UNL     1       0.524   8.546  21.166  0.00  0.00    +0.000 A 
ATOM      3  C   UNL     1       0.584   9.536  20.165  0.00  0.00    +0.000 A 
ATOM      4  C   UNL     1       1.399   9.405  19.028  0.00  0.00    +0.000 A 
ATOM      5  C   UNL     1       1.447  10.435  17.949  0.00  0.00    +0.000 C 
ATOM      6  C   UNL     1       2.138   8.224  18.979  0.00  0.00    +0.000 A 
ATOM      7  O   UNL     1       2.997   7.845  17.996  0.00  0.00    +0.000 OA
ATOM      8  C   UNL     1       3.431   6.603  18.377  0.00  0.00    +0.000 A 
ATOM      9  N   UNL     1       4.229   5.958  17.502  0.00  0.00    +0.000 N 
ATOM     10  C   UNL     1       5.074   6.728  16.587  0.00  0.00    +0.000 C 
ATOM     11  C   UNL     1       5.369   5.895  15.320  0.00  0.00    +0.000 C 
ATOM     12  N   UNL     1       5.949   4.568  15.624  0.00  0.00    +0.000 NA
ATOM     13  C   UNL     1       6.126   3.802  14.391  0.00  0.00    +0.000 C 
ATOM     14  C   UNL     1       5.061   3.844  16.566  0.00  0.00    +0.000 C 
ATOM     15  C   UNL     1       4.768   4.646  17.858  0.00  0.00    +0.000 C 
ATOM     16  N   UNL     1       2.935   6.187  19.524  0.00  0.00    +0.000 NA
ATOM     17  C   UNL     1       2.111   7.215  19.922  0.00  0.00    +0.000 A 
ATOM     18  C   UNL     1       1.293   7.369  21.049  0.00  0.00    +0.000 A 
ENDROOT
TORSDOF 0
ENDMDL
MODEL 3
REMARK VINA RESULT:      -6.6      2.591      6.687
REMARK  Name = 
REMARK  3 active torsions:
REMARK  status: ('A' for Active; 'I' for Inactive)
REMARK    1  A    between atoms: C_1  and  C_2
REMARK    2  A    between atoms: C_4  and  C_5
REMARK    3  A    between atoms: N_12  and  C_13
REMARK                            x       y       z     vdW  Elec       q    Type
REMARK                         _______ _______ _______ _____ _____    ______ ____
ROOT
ATOM      1  C   UNL     1      -1.303  11.748  18.572  0.00  0.00    +0.000 C 
ATOM      2  C   UNL     1      -0.322  10.655  18.890  0.00  0.00    +0.000 A 
ATOM      3  C   UNL     1      -0.219  10.155  20.203  0.00  0.00    +0.000 A 
ATOM      4  C   UNL     1       0.683   9.134  20.549  0.00  0.00    +0.000 A 
ATOM      5  C   UNL     1       0.819   8.619  21.944  0.00  0.00    +0.000 C 
ATOM      6  C   UNL     1       1.454   8.661  19.489  0.00  0.00    +0.000 A 
ATOM      7  O   UNL     1       2.400   7.686  19.546  0.00  0.00    +0.000 OA
ATOM      8  C   UNL     1       2.903   7.618  18.274  0.00  0.00    +0.000 A 
ATOM      9  N   UNL     1       3.945   6.782  18.090  0.00  0.00    +0.000 N 
ATOM     10  C   UNL     1       4.087   5.602  18.946  0.00  0.00    +0.000 C 
ATOM     11  C   UNL     1       5.572   5.186  19.022  0.00  0.00    +0.000 C 
ATOM     12  N   UNL     1       6.182   4.979  17.689  0.00  0.00    +0.000 NA
ATOM     13  C   UNL     1       7.604   4.670  17.830  0.00  0.00    +0.000 C 
ATOM     14  C   UNL     1       5.991   6.197  16.864  0.00  0.00    +0.000 C 
ATOM     15  C   UNL     1       4.506   6.624  16.750  0.00  0.00    +0.000 C 
ATOM     16  N   UNL     1       2.335   8.452  17.425  0.00  0.00    +0.000 NA
ATOM     17  C   UNL     1       1.405   9.120  18.187  0.00  0.00    +0.000 A 
ATOM     18  C   UNL     1       0.496  10.137  17.866  0.00  0.00    +0.000 A 
ENDROOT
TORSDOF 0
ENDMDL
MODEL 4
REMARK VINA RESULT:      -6.5      4.721      6.344
REMARK  Name = 
REMARK  3 active torsions:
REMARK  status: ('A' for Active; 'I' for Inactive)
REMARK    1  A    between atoms: C_1  and  C_2
REMARK    2  A    between atoms: C_4  and  C_5
REMARK    3  A    between atoms: N_12  and  C_13
REMARK                            x       y       z     vdW  Elec       q    Type
REMARK                         _______ _______ _______ _____ _____    ______ ____
ROOT
ATOM      1  C   UNL     1       7.459   4.786  13.009  0.00  0.00    +0.000 C 
ATOM      2  C   UNL     1       6.831   4.896  14.370  0.00  0.00    +0.000 A 
ATOM      3  C   UNL     1       7.417   5.713  15.357  0.00  0.00    +0.000 A 
ATOM      4  C   UNL     1       6.867   5.849  16.643  0.00  0.00    +0.000 A 
ATOM      5  C   UNL     1       7.497   6.689  17.704  0.00  0.00    +0.000 C 
ATOM      6  C   UNL     1       5.701   5.116  16.853  0.00  0.00    +0.000 A 
ATOM      7  O   UNL     1       4.970   5.063  17.998  0.00  0.00    +0.000 OA
ATOM      8  C   UNL     1       3.960   4.181  17.724  0.00  0.00    +0.000 A 
ATOM      9  N   UNL     1       3.142   3.874  18.751  0.00  0.00    +0.000 N 
ATOM     10  C   UNL     1       2.928   4.848  19.823  0.00  0.00    +0.000 C 
ATOM     11  C   UNL     1       2.540   4.117  21.126  0.00  0.00    +0.000 C 
ATOM     12  N   UNL     1       1.379   3.215  20.958  0.00  0.00    +0.000 NA
ATOM     13  C   UNL     1       1.118   2.494  22.203  0.00  0.00    +0.000 C 
ATOM     14  C   UNL     1       1.646   2.266  19.850  0.00  0.00    +0.000 C 
ATOM     15  C   UNL     1       2.014   2.974  18.523  0.00  0.00    +0.000 C 
ATOM     16  N   UNL     1       3.984   3.698  16.497  0.00  0.00    +0.000 NA
ATOM     17  C   UNL     1       5.089   4.291  15.929  0.00  0.00    +0.000 A 
ATOM     18  C   UNL     1       5.654   4.174  14.653  0.00  0.00    +0.000 A 
ENDROOT
TORSDOF 0
ENDMDL
MODEL 5
REMARK VINA RESULT:      -6.4      1.499      1.768
REMARK  Name = 
REMARK  3 active torsions:
REMARK  status: ('A' for Active; 'I' for Inactive)
REMARK    1  A    between atoms: C_1  and  C_2
REMARK    2  A    between atoms: C_4  and  C_5
REMARK    3  A    between atoms: N_12  and  C_13
REMARK                            x       y       z     vdW  Elec       q    Type
REMARK                         _______ _______ _______ _____ _____    ______ ____
ROOT
ATOM      1  C   UNL     1       5.587   4.030  16.326  0.00  0.00    +0.000 C 
ATOM      2  C   UNL     1       4.654   4.783  17.232  0.00  0.00    +0.000 A 
ATOM      3  C   UNL     1       4.089   4.148  18.354  0.00  0.00    +0.000 A 
ATOM      4  C   UNL     1       3.212   4.812  19.230  0.00  0.00    +0.000 A 
ATOM      5  C   UNL     1       2.586   4.137  20.406  0.00  0.00    +0.000 C 
ATOM      6  C   UNL     1       2.958   6.140  18.897  0.00  0.00    +0.000 A 
ATOM      7  O   UNL     1       2.151   7.005  19.566  0.00  0.00    +0.000 OA
ATOM      8  C   UNL     1       2.192   8.158  18.829  0.00  0.00    +0.000 A 
ATOM      9  N   UNL     1       1.378   9.154  19.236  0.00  0.00    +0.000 N 
ATOM     10  C   UNL     1       1.012   9.259  20.650  0.00  0.00    +0.000 C 
ATOM     11  C   UNL     1      -0.344   9.984  20.787  0.00  0.00    +0.000 C 
ATOM     12  N   UNL     1      -0.366  11.300  20.111  0.00  0.00    +0.000 NA
ATOM     13  C   UNL     1      -1.699  11.894  20.209  0.00  0.00    +0.000 C 
ATOM     14  C   UNL     1       0.030  11.134  18.691  0.00  0.00    +0.000 C 
ATOM     15  C   UNL     1       1.400  10.430  18.524  0.00  0.00    +0.000 C 
ATOM     16  N   UNL     1       2.974   8.093  17.770  0.00  0.00    +0.000 NA
ATOM     17  C   UNL     1       3.474   6.811  17.804  0.00  0.00    +0.000 A 
ATOM     18  C   UNL     1       4.347   6.130  16.947  0.00  0.00    +0.000 A 
ENDROOT
TORSDOF 0
ENDMDL
MODEL 6
REMARK VINA RESULT:      -6.4      1.718      2.977
REMARK  Name = 
REMARK  3 active torsions:
REMARK  status: ('A' for Active; 'I' for Inactive)
REMARK    1  A    between atoms: C_1  and  C_2
REMARK    2  A    between atoms: C_4  and  C_5
REMARK    3  A    between atoms: N_12  and  C_13
REMARK                            x       y       z     vdW  Elec       q    Type
REMARK                         _______ _______ _______ _____ _____    ______ ____
ROOT
ATOM      1  C   UNL     1       4.254   2.266  19.700  0.00  0.00    +0.000 C 
ATOM      2  C   UNL     1       3.923   3.674  19.293  0.00  0.00    +0.000 A 
ATOM      3  C   UNL     1       4.522   4.242  18.152  0.00  0.00    +0.000 A 
ATOM      4  C   UNL     1       4.244   5.554  17.732  0.00  0.00    +0.000 A 
ATOM      5  C   UNL     1       4.896   6.173  16.540  0.00  0.00    +0.000 C 
ATOM      6  C   UNL     1       3.329   6.235  18.532  0.00  0.00    +0.000 A 
ATOM      7  O   UNL     1       2.887   7.509  18.357  0.00  0.00    +0.000 OA
ATOM      8  C   UNL     1       2.048   7.733  19.415  0.00  0.00    +0.000 A 
ATOM      9  N   UNL     1       1.552   8.982  19.527  0.00  0.00    +0.000 N 
ATOM     10  C   UNL     1       1.373   9.801  18.326  0.00  0.00    +0.000 C 
ATOM     11  C   UNL     1       1.435  11.298  18.700  0.00  0.00    +0.000 C 
ATOM     12  N   UNL     1       0.478  11.666  19.768  0.00  0.00    +0.000 NA
ATOM     13  C   UNL     1       0.646  13.073  20.130  0.00  0.00    +0.000 C 
ATOM     14  C   UNL     1       0.695  10.794  20.947  0.00  0.00    +0.000 C 
ATOM     15  C   UNL     1       0.614   9.285  20.607  0.00  0.00    +0.000 C 
ATOM     16  N   UNL     1       1.911   6.700  20.222  0.00  0.00    +0.000 NA
ATOM     17  C   UNL     1       2.720   5.734  19.667  0.00  0.00    +0.000 A 
ATOM     18  C   UNL     1       3.011   4.424  20.064  0.00  0.00    +0.000 A 
ENDROOT
TORSDOF 0
ENDMDL
MODEL 7
REMARK VINA RESULT:      -6.3      1.311      2.532
REMARK  Name = 
REMARK  3 active torsions:
REMARK  status: ('A' for Active; 'I' for Inactive)
REMARK    1  A    between atoms: C_1  and  C_2
REMARK    2  A    between atoms: C_4  and  C_5
REMARK    3  A    between atoms: N_12  and  C_13
REMARK                            x       y       z     vdW  Elec       q    Type
REMARK                         _______ _______ _______ _____ _____    ______ ____
ROOT
ATOM      1  C   UNL     1       4.097   2.295  19.663  0.00  0.00    +0.000 C 
ATOM      2  C   UNL     1       3.706   3.734  19.482  0.00  0.00    +0.000 A 
ATOM      3  C   UNL     1       4.314   4.513  18.478  0.00  0.00    +0.000 A 
ATOM      4  C   UNL     1       3.981   5.863  18.271  0.00  0.00    +0.000 A 
ATOM      5  C   UNL     1       4.642   6.703  17.228  0.00  0.00    +0.000 C 
ATOM      6  C   UNL     1       3.004   6.356  19.133  0.00  0.00    +0.000 A 
ATOM      7  O   UNL     1       2.502   7.619  19.152  0.00  0.00    +0.000 OA
ATOM      8  C   UNL     1       1.616   7.623  20.196  0.00  0.00    +0.000 A 
ATOM      9  N   UNL     1       1.050   8.811  20.492  0.00  0.00    +0.000 N 
ATOM     10  C   UNL     1       0.871   9.811  19.438  0.00  0.00    +0.000 C 
ATOM     11  C   UNL     1       0.839  11.225  20.057  0.00  0.00    +0.000 C 
ATOM     12  N   UNL     1      -0.172  11.364  21.129  0.00  0.00    +0.000 NA
ATOM     13  C   UNL     1      -0.091  12.696  21.727  0.00  0.00    +0.000 C 
ATOM     14  C   UNL     1       0.050  10.316  22.156  0.00  0.00    +0.000 C 
ATOM     15  C   UNL     1       0.061   8.884  21.566  0.00  0.00    +0.000 C 
ATOM     16  N   UNL     1       1.505   6.464  20.813  0.00  0.00    +0.000 NA
ATOM     17  C   UNL     1       2.383   5.644  20.141  0.00  0.00    +0.000 A 
ATOM     18  C   UNL     1       2.729   4.300  20.327  0.00  0.00    +0.000 A 
ENDROOT
TORSDOF 0
ENDMDL
MODEL 8
REMARK VINA RESULT:      -6.2      2.047      6.868
REMARK  Name = 
REMARK  3 active torsions:
REMARK  status: ('A' for Active; 'I' for Inactive)
REMARK    1  A    between atoms: C_1  and  C_2
REMARK    2  A    between atoms: C_4  and  C_5
REMARK    3  A    between atoms: N_12  and  C_13
REMARK                            x       y       z     vdW  Elec       q    Type
REMARK                         _______ _______ _______ _____ _____    ______ ____
ROOT
ATOM      1  C   UNL     1      -0.853  11.278  21.939  0.00  0.00    +0.000 C 
ATOM      2  C   UNL     1      -0.016  10.286  21.182  0.00  0.00    +0.000 A 
ATOM      3  C   UNL     1       0.560  10.642  19.947  0.00  0.00    +0.000 A 
ATOM      4  C   UNL     1       1.351   9.749  19.203  0.00  0.00    +0.000 A 
ATOM      5  C   UNL     1       1.942  10.108  17.879  0.00  0.00    +0.000 C 
ATOM      6  C   UNL     1       1.517   8.496  19.790  0.00  0.00    +0.000 A 
ATOM      7  O   UNL     1       2.225   7.451  19.287  0.00  0.00    +0.000 OA
ATOM      8  C   UNL     1       2.048   6.443  20.196  0.00  0.00    +0.000 A 
ATOM      9  N   UNL     1       2.577   5.246  19.869  0.00  0.00    +0.000 N 
ATOM     10  C   UNL     1       3.757   5.188  19.003  0.00  0.00    +0.000 C 
ATOM     11  C   UNL     1       3.793   3.836  18.259  0.00  0.00    +0.000 C 
ATOM     12  N   UNL     1       3.718   2.672  19.170  0.00  0.00    +0.000 NA
ATOM     13  C   UNL     1       3.673   1.431  18.398  0.00  0.00    +0.000 C 
ATOM     14  C   UNL     1       2.516   2.796  20.031  0.00  0.00    +0.000 C 
ATOM     15  C   UNL     1       2.466   4.134  20.810  0.00  0.00    +0.000 C 
ATOM     16  N   UNL     1       1.309   6.778  21.235  0.00  0.00    +0.000 NA
ATOM     17  C   UNL     1       0.967   8.089  20.991  0.00  0.00    +0.000 A 
ATOM     18  C   UNL     1       0.185   8.997  21.716  0.00  0.00    +0.000 A 
ENDROOT
TORSDOF 0
ENDMDL
MODEL 9
REMARK VINA RESULT:      -6.2      1.876      6.401
REMARK  Name = 
REMARK  3 active torsions:
REMARK  status: ('A' for Active; 'I' for Inactive)
REMARK    1  A    between atoms: C_1  and  C_2
REMARK    2  A    between atoms: C_4  and  C_5
REMARK    3  A    between atoms: N_12  and  C_13
REMARK                            x       y       z     vdW  Elec       q    Type
REMARK                         _______ _______ _______ _____ _____    ______ ____
ROOT
ATOM      1  C   UNL     1       0.688  12.789  18.949  0.00  0.00    +0.000 C 
ATOM      2  C   UNL     1       0.861  11.387  19.460  0.00  0.00    +0.000 A 
ATOM      3  C   UNL     1       0.432  11.047  20.758  0.00  0.00    +0.000 A 
ATOM      4  C   UNL     1       0.572   9.748  21.278  0.00  0.00    +0.000 A 
ATOM      5  C   UNL     1       0.147   9.386  22.663  0.00  0.00    +0.000 C 
ATOM      6  C   UNL     1       1.163   8.837  20.406  0.00  0.00    +0.000 A 
ATOM      7  O   UNL     1       1.419   7.525  20.654  0.00  0.00    +0.000 OA
ATOM      8  C   UNL     1       2.043   7.074  19.522  0.00  0.00    +0.000 A 
ATOM      9  N   UNL     1       2.497   5.804  19.558  0.00  0.00    +0.000 N 
ATOM     10  C   UNL     1       1.828   4.819  20.410  0.00  0.00    +0.000 C 
ATOM     11  C   UNL     1       2.823   3.704  20.802  0.00  0.00    +0.000 C 
ATOM     12  N   UNL     1       3.472   3.073  19.631  0.00  0.00    +0.000 NA
ATOM     13  C   UNL     1       4.459   2.089  20.074  0.00  0.00    +0.000 C 
ATOM     14  C   UNL     1       4.115   4.119  18.799  0.00  0.00    +0.000 C 
ATOM     15  C   UNL     1       3.134   5.239  18.370  0.00  0.00    +0.000 C 
ATOM     16  N   UNL     1       2.175   7.986  18.580  0.00  0.00    +0.000 NA
ATOM     17  C   UNL     1       1.613   9.116  19.130  0.00  0.00    +0.000 A 
ATOM     18  C   UNL     1       1.460  10.415  18.631  0.00  0.00    +0.000 A 
ENDROOT
TORSDOF 0
ENDMDL
