MODEL 1
REMARK VINA RESULT:      -8.5      0.000      0.000
REMARK  Name = 
REMARK  6 active torsions:
REMARK  status: ('A' for Active; 'I' for Inactive)
REMARK    1  A    between atoms: C_1  and  C_2
REMARK    2  A    between atoms: C_2  and  N_3
REMARK    3  A    between atoms: C_2  and  C_21
REMARK    4  A    between atoms: C_4  and  C_6
REMARK    5  A    between atoms: C_12  and  C_13
REMARK    6  A    between atoms: N_16  and  C_17
REMARK                            x       y       z     vdW  Elec       q    Type
REMARK                         _______ _______ _______ _____ _____    ______ ____
ROOT
ATOM      1  C   UNL     1       4.760   3.774  19.122  0.00  0.00    +0.000 A 
ATOM      2  C   UNL     1       4.488   2.445  19.405  0.00  0.00    +0.000 A 
ATOM      3  N   UNL     1       3.273   2.275  20.003  0.00  0.00    +0.000 NA
ATOM      4  C   UNL     1       2.774   3.484  20.108  0.00  0.00    +0.000 A 
ATOM      5  C   UNL     1       1.534   3.921  20.641  0.00  0.00    +0.000 A 
ATOM      6  C   UNL     1       1.224   5.229  20.632  0.00  0.00    +0.000 A 
ATOM      7  C   UNL     1       2.129   6.249  20.086  0.00  0.00    +0.000 A 
ATOM      8  C   UNL     1       3.308   5.813  19.585  0.00  0.00    +0.000 A 
ATOM      9  N   UNL     1       3.634   4.451  19.589  0.00  0.00    +0.000 N 
ENDROOT
BRANCH   7  10
ATOM     10  C   UNL     1       1.749   7.631  20.087  0.00  0.00    +0.000 A 
ATOM     11  C   UNL     1       1.239   8.417  21.146  0.00  0.00    +0.000 A 
ATOM     12  N   UNL     1       0.984   9.676  20.775  0.00  0.00    +0.000 NA
ATOM     13  N   UNL     1       1.336   9.698  19.477  0.00  0.00    +0.000 N 
ATOM     14  C   UNL     1       1.224  10.917  18.713  0.00  0.00    +0.000 C 
ATOM     15  C   UNL     1       1.793   8.496  19.015  0.00  0.00    +0.000 A 
ENDBRANCH   7  10
BRANCH   1  17
ATOM     16  N   UNL     1       5.834   4.527  17.120  0.00  0.00    +0.000 N 
ATOM     17  C   UNL     1       5.917   4.372  18.492  0.00  0.00    +0.000 C 
ATOM     18  O   UNL     1       6.909   4.739  19.112  0.00  0.00    +0.000 OA
ATOM     19  H   UNL     1       4.967   4.327  16.642  0.00  0.00    +0.000 HD
BRANCH  16  21
ATOM     20  C   UNL     1       6.746   6.735  16.569  0.00  0.00    +0.000 C 
ATOM     21  C   UNL     1       6.862   5.223  16.362  0.00  0.00    +0.000 C 
BRANCH  21  22
ATOM     22  C   UNL     1       6.815   4.847  14.887  0.00  0.00    +0.000 A 
ATOM     23  C   UNL     1       5.864   3.913  14.443  0.00  0.00    +0.000 A 
ATOM     24  C   UNL     1       5.824   3.507  13.105  0.00  0.00    +0.000 A 
ATOM     25  C   UNL     1       6.730   4.034  12.189  0.00  0.00    +0.000 A 
ATOM     26  C   UNL     1       7.668   4.975  12.608  0.00  0.00    +0.000 A 
ATOM     27  C   UNL     1       7.709   5.382  13.945  0.00  0.00    +0.000 A 
ENDBRANCH  21  22
ENDBRANCH  16  21
ENDBRANCH   1  17
TORSDOF 4
ENDMDL
MODEL 2
REMARK VINA RESULT:      -8.5      0.511      1.291
REMARK  Name = 
REMARK  6 active torsions:
REMARK  status: ('A' for Active; 'I' for Inactive)
REMARK    1  A    between atoms: C_1  and  C_2
REMARK    2  A    between atoms: C_2  and  N_3
REMARK    3  A    between atoms: C_2  and  C_21
REMARK    4  A    between atoms: C_4  and  C_6
REMARK    5  A    between atoms: C_12  and  C_13
REMARK    6  A    between atoms: N_16  and  C_17
REMARK                            x       y       z     vdW  Elec       q    Type
REMARK                         _______ _______ _______ _____ _____    ______ ____
ROOT
ATOM      1  C   UNL     1       4.775   3.813  19.201  0.00  0.00    +0.000 A 
ATOM      2  C   UNL     1       4.483   2.509  19.567  0.00  0.00    +0.000 A 
ATOM      3  N   UNL     1       3.251   2.389  20.140  0.00  0.00    +0.000 NA
ATOM      4  C   UNL     1       2.760   3.606  20.147  0.00  0.00    +0.000 A 
ATOM      5  C   UNL     1       1.510   4.087  20.614  0.00  0.00    +0.000 A 
ATOM      6  C   UNL     1       1.211   5.394  20.505  0.00  0.00    +0.000 A 
ATOM      7  C   UNL     1       2.139   6.366  19.916  0.00  0.00    +0.000 A 
ATOM      8  C   UNL     1       3.328   5.889  19.480  0.00  0.00    +0.000 A 
ATOM      9  N   UNL     1       3.642   4.529  19.588  0.00  0.00    +0.000 N 
ENDROOT
BRANCH   7  10
ATOM     10  C   UNL     1       1.771   7.748  19.810  0.00  0.00    +0.000 A 
ATOM     11  C   UNL     1       1.818   8.602  18.684  0.00  0.00    +0.000 A 
ATOM     12  N   UNL     1       1.403   9.842  18.962  0.00  0.00    +0.000 NA
ATOM     13  N   UNL     1       1.084   9.781  20.268  0.00  0.00    +0.000 N 
ATOM     14  C   UNL     1       0.564  10.944  20.945  0.00  0.00    +0.000 C 
ATOM     15  C   UNL     1       1.293   8.551  20.823  0.00  0.00    +0.000 A 
ENDBRANCH   7  10
BRANCH   1  17
ATOM     16  N   UNL     1       5.913   4.414  17.182  0.00  0.00    +0.000 N 
ATOM     17  C   UNL     1       5.954   4.358  18.564  0.00  0.00    +0.000 C 
ATOM     18  O   UNL     1       6.930   4.764  19.185  0.00  0.00    +0.000 OA
ATOM     19  H   UNL     1       5.059   4.184  16.694  0.00  0.00    +0.000 HD
BRANCH  16  21
ATOM     20  C   UNL     1       6.948   6.564  16.619  0.00  0.00    +0.000 C 
ATOM     21  C   UNL     1       6.968   5.048  16.407  0.00  0.00    +0.000 C 
BRANCH  21  22
ATOM     22  C   UNL     1       6.871   4.680  14.933  0.00  0.00    +0.000 A 
ATOM     23  C   UNL     1       7.750   5.277  14.013  0.00  0.00    +0.000 A 
ATOM     24  C   UNL     1       7.658   5.001  12.646  0.00  0.00    +0.000 A 
ATOM     25  C   UNL     1       6.689   4.119  12.176  0.00  0.00    +0.000 A 
ATOM     26  C   UNL     1       5.820   3.504  13.075  0.00  0.00    +0.000 A 
ATOM     27  C   UNL     1       5.911   3.779  14.443  0.00  0.00    +0.000 A 
ENDBRANCH  21  22
ENDBRANCH  16  21
ENDBRANCH   1  17
TORSDOF 4
ENDMDL
MODEL 3
REMARK VINA RESULT:      -8.2      2.497      8.002
REMARK  Name = 
REMARK  6 active torsions:
REMARK  status: ('A' for Active; 'I' for Inactive)
REMARK    1  A    between atoms: C_1  and  C_2
REMARK    2  A    between atoms: C_2  and  N_3
REMARK    3  A    between atoms: C_2  and  C_21
REMARK    4  A    between atoms: C_4  and  C_6
REMARK    5  A    between atoms: C_12  and  C_13
REMARK    6  A    between atoms: N_16  and  C_17
REMARK                            x       y       z     vdW  Elec       q    Type
REMARK                         _______ _______ _______ _____ _____    ______ ____
ROOT
ATOM      1  C   UNL     1       2.260   7.168  19.232  0.00  0.00    +0.000 A 
ATOM      2  C   UNL     1       1.792   6.671  20.437  0.00  0.00    +0.000 A 
ATOM      3  N   UNL     1       2.348   5.467  20.758  0.00  0.00    +0.000 NA
ATOM      4  C   UNL     1       3.160   5.192  19.765  0.00  0.00    +0.000 A 
ATOM      5  C   UNL     1       4.012   4.076  19.558  0.00  0.00    +0.000 A 
ATOM      6  C   UNL     1       4.778   4.012  18.455  0.00  0.00    +0.000 A 
ATOM      7  C   UNL     1       4.772   5.064  17.431  0.00  0.00    +0.000 A 
ATOM      8  C   UNL     1       3.951   6.119  17.645  0.00  0.00    +0.000 A 
ATOM      9  N   UNL     1       3.155   6.192  18.793  0.00  0.00    +0.000 N 
ENDROOT
BRANCH   7  10
ATOM     10  C   UNL     1       5.616   4.957  16.277  0.00  0.00    +0.000 A 
ATOM     11  C   UNL     1       6.898   5.510  16.053  0.00  0.00    +0.000 A 
ATOM     12  N   UNL     1       7.384   5.207  14.846  0.00  0.00    +0.000 NA
ATOM     13  N   UNL     1       6.414   4.454  14.296  0.00  0.00    +0.000 N 
ATOM     14  C   UNL     1       6.579   3.907  12.972  0.00  0.00    +0.000 C 
ATOM     15  C   UNL     1       5.331   4.281  15.111  0.00  0.00    +0.000 A 
ENDBRANCH   7  10
BRANCH   1  17
ATOM     16  N   UNL     1       1.041   9.228  19.200  0.00  0.00    +0.000 N 
ATOM     17  C   UNL     1       1.936   8.400  18.546  0.00  0.00    +0.000 C 
ATOM     18  O   UNL     1       2.420   8.718  17.465  0.00  0.00    +0.000 OA
ATOM     19  H   UNL     1       0.743   9.006  20.139  0.00  0.00    +0.000 HD
BRANCH  16  21
ATOM     20  C   UNL     1       1.132  11.625  19.708  0.00  0.00    +0.000 C 
ATOM     21  C   UNL     1       0.712  10.553  18.698  0.00  0.00    +0.000 C 
BRANCH  21  22
ATOM     22  C   UNL     1      -0.762  10.660  18.338  0.00  0.00    +0.000 A 
ATOM     23  C   UNL     1      -1.563  11.620  18.980  0.00  0.00    +0.000 A 
ATOM     24  C   UNL     1      -2.931  11.713  18.710  0.00  0.00    +0.000 A 
ATOM     25  C   UNL     1      -3.521  10.853  17.789  0.00  0.00    +0.000 A 
ATOM     26  C   UNL     1      -2.740   9.907  17.129  0.00  0.00    +0.000 A 
ATOM     27  C   UNL     1      -1.371   9.812  17.397  0.00  0.00    +0.000 A 
ENDBRANCH  21  22
ENDBRANCH  16  21
ENDBRANCH   1  17
TORSDOF 4
ENDMDL
MODEL 4
REMARK VINA RESULT:      -7.6      2.023      7.671
REMARK  Name = 
REMARK  6 active torsions:
REMARK  status: ('A' for Active; 'I' for Inactive)
REMARK    1  A    between atoms: C_1  and  C_2
REMARK    2  A    between atoms: C_2  and  N_3
REMARK    3  A    between atoms: C_2  and  C_21
REMARK    4  A    between atoms: C_4  and  C_6
REMARK    5  A    between atoms: C_12  and  C_13
REMARK    6  A    between atoms: N_16  and  C_17
REMARK                            x       y       z     vdW  Elec       q    Type
REMARK                         _______ _______ _______ _____ _____    ______ ____
ROOT
ATOM      1  C   UNL     1       1.964   5.504  19.821  0.00  0.00    +0.000 A 
ATOM      2  C   UNL     1       1.104   4.633  20.470  0.00  0.00    +0.000 A 
ATOM      3  N   UNL     1       1.301   3.333  20.104  0.00  0.00    +0.000 NA
ATOM      4  C   UNL     1       2.273   3.372  19.223  0.00  0.00    +0.000 A 
ATOM      5  C   UNL     1       2.905   2.322  18.508  0.00  0.00    +0.000 A 
ATOM      6  C   UNL     1       3.905   2.599  17.654  0.00  0.00    +0.000 A 
ATOM      7  C   UNL     1       4.382   3.968  17.419  0.00  0.00    +0.000 A 
ATOM      8  C   UNL     1       3.765   4.956  18.108  0.00  0.00    +0.000 A 
ATOM      9  N   UNL     1       2.726   4.672  19.001  0.00  0.00    +0.000 N 
ENDROOT
BRANCH   7  10
ATOM     10  C   UNL     1       5.461   4.213  16.507  0.00  0.00    +0.000 A 
ATOM     11  C   UNL     1       6.807   4.545  16.783  0.00  0.00    +0.000 A 
ATOM     12  N   UNL     1       7.533   4.712  15.673  0.00  0.00    +0.000 NA
ATOM     13  N   UNL     1       6.651   4.481  14.683  0.00  0.00    +0.000 N 
ATOM     14  C   UNL     1       7.071   4.548  13.305  0.00  0.00    +0.000 C 
ATOM     15  C   UNL     1       5.395   4.186  15.130  0.00  0.00    +0.000 A 
ENDBRANCH   7  10
BRANCH   1  17
ATOM     16  N   UNL     1       1.207   7.550  20.807  0.00  0.00    +0.000 N 
ATOM     17  C   UNL     1       2.088   6.942  19.931  0.00  0.00    +0.000 C 
ATOM     18  O   UNL     1       2.920   7.597  19.312  0.00  0.00    +0.000 OA
ATOM     19  H   UNL     1       0.609   6.986  21.393  0.00  0.00    +0.000 HD
BRANCH  16  21
ATOM     20  C   UNL     1       1.063   9.201  22.614  0.00  0.00    +0.000 C 
ATOM     21  C   UNL     1       1.289   8.969  21.117  0.00  0.00    +0.000 C 
BRANCH  21  22
ATOM     22  C   UNL     1       0.323   9.781  20.266  0.00  0.00    +0.000 A 
ATOM     23  C   UNL     1      -0.517  10.723  20.883  0.00  0.00    +0.000 A 
ATOM     24  C   UNL     1      -1.451  11.450  20.139  0.00  0.00    +0.000 A 
ATOM     25  C   UNL     1      -1.556  11.252  18.765  0.00  0.00    +0.000 A 
ATOM     26  C   UNL     1      -0.719  10.335  18.134  0.00  0.00    +0.000 A 
ATOM     27  C   UNL     1       0.216   9.607  18.876  0.00  0.00    +0.000 A 
ENDBRANCH  21  22
ENDBRANCH  16  21
ENDBRANCH   1  17
TORSDOF 4
ENDMDL
MODEL 5
REMARK VINA RESULT:      -7.4      3.544      6.367
REMARK  Name = 
REMARK  6 active torsions:
REMARK  status: ('A' for Active; 'I' for Inactive)
REMARK    1  A    between atoms: C_1  and  C_2
REMARK    2  A    between atoms: C_2  and  N_3
REMARK    3  A    between atoms: C_2  and  C_21
REMARK    4  A    between atoms: C_4  and  C_6
REMARK    5  A    between atoms: C_12  and  C_13
REMARK    6  A    between atoms: N_16  and  C_17
REMARK                            x       y       z     vdW  Elec       q    Type
REMARK                         _______ _______ _______ _____ _____    ______ ____
ROOT
ATOM      1  C   UNL     1       1.428   9.231  19.508  0.00  0.00    +0.000 A 
ATOM      2  C   UNL     1       1.794   9.566  20.802  0.00  0.00    +0.000 A 
ATOM      3  N   UNL     1       0.898  10.402  21.400  0.00  0.00    +0.000 NA
ATOM      4  C   UNL     1      -0.031  10.608  20.496  0.00  0.00    +0.000 A 
ATOM      5  C   UNL     1      -1.215  11.386  20.559  0.00  0.00    +0.000 A 
ATOM      6  C   UNL     1      -2.040  11.440  19.498  0.00  0.00    +0.000 A 
ATOM      7  C   UNL     1      -1.764  10.717  18.250  0.00  0.00    +0.000 A 
ATOM      8  C   UNL     1      -0.628   9.983  18.208  0.00  0.00    +0.000 A 
ATOM      9  N   UNL     1       0.232   9.921  19.312  0.00  0.00    +0.000 N 
ENDROOT
BRANCH   7  10
ATOM     10  C   UNL     1      -2.679  10.796  17.149  0.00  0.00    +0.000 A 
ATOM     11  C   UNL     1      -3.914  11.479  17.061  0.00  0.00    +0.000 A 
ATOM     12  N   UNL     1      -4.505  11.319  15.873  0.00  0.00    +0.000 NA
ATOM     13  N   UNL     1      -3.645  10.537  15.197  0.00  0.00    +0.000 N 
ATOM     14  C   UNL     1      -3.928  10.152  13.835  0.00  0.00    +0.000 C 
ATOM     15  C   UNL     1      -2.539  10.190  15.920  0.00  0.00    +0.000 A 
ENDBRANCH   7  10
BRANCH   1  17
ATOM     16  N   UNL     1       2.395   7.101  18.996  0.00  0.00    +0.000 N 
ATOM     17  C   UNL     1       2.088   8.374  18.547  0.00  0.00    +0.000 C 
ATOM     18  O   UNL     1       2.354   8.723  17.402  0.00  0.00    +0.000 OA
ATOM     19  H   UNL     1       2.066   6.793  19.900  0.00  0.00    +0.000 HD
BRANCH  16  21
ATOM     20  C   UNL     1       2.330   4.719  18.420  0.00  0.00    +0.000 C 
ATOM     21  C   UNL     1       2.946   6.087  18.112  0.00  0.00    +0.000 C 
BRANCH  21  22
ATOM     22  C   UNL     1       4.466   6.053  18.184  0.00  0.00    +0.000 A 
ATOM     23  C   UNL     1       5.219   6.687  17.182  0.00  0.00    +0.000 A 
ATOM     24  C   UNL     1       6.617   6.633  17.189  0.00  0.00    +0.000 A 
ATOM     25  C   UNL     1       7.283   5.951  18.203  0.00  0.00    +0.000 A 
ATOM     26  C   UNL     1       6.554   5.332  19.215  0.00  0.00    +0.000 A 
ATOM     27  C   UNL     1       5.156   5.384  19.209  0.00  0.00    +0.000 A 
ENDBRANCH  21  22
ENDBRANCH  16  21
ENDBRANCH   1  17
TORSDOF 4
ENDMDL
MODEL 6
REMARK VINA RESULT:      -7.3      3.945      7.072
REMARK  Name = 
REMARK  6 active torsions:
REMARK  status: ('A' for Active; 'I' for Inactive)
REMARK    1  A    between atoms: C_1  and  C_2
REMARK    2  A    between atoms: C_2  and  N_3
REMARK    3  A    between atoms: C_2  and  C_21
REMARK    4  A    between atoms: C_4  and  C_6
REMARK    5  A    between atoms: C_12  and  C_13
REMARK    6  A    between atoms: N_16  and  C_17
REMARK                            x       y       z     vdW  Elec       q    Type
REMARK                         _______ _______ _______ _____ _____    ______ ____
ROOT
ATOM      1  C   UNL     1       1.116   9.319  20.251  0.00  0.00    +0.000 A 
ATOM      2  C   UNL     1       1.389   9.741  21.542  0.00  0.00    +0.000 A 
ATOM      3  N   UNL     1       0.493  10.668  21.991  0.00  0.00    +0.000 NA
ATOM      4  C   UNL     1      -0.342  10.843  20.993  0.00  0.00    +0.000 A 
ATOM      5  C   UNL     1      -1.482  11.681  20.888  0.00  0.00    +0.000 A 
ATOM      6  C   UNL     1      -2.208  11.688  19.756  0.00  0.00    +0.000 A 
ATOM      7  C   UNL     1      -1.867  10.851  18.599  0.00  0.00    +0.000 A 
ATOM      8  C   UNL     1      -0.775  10.061  18.717  0.00  0.00    +0.000 A 
ATOM      9  N   UNL     1      -0.018  10.048  19.895  0.00  0.00    +0.000 N 
ENDROOT
BRANCH   7  10
ATOM     10  C   UNL     1      -2.679  10.883  17.417  0.00  0.00    +0.000 A 
ATOM     11  C   UNL     1      -3.922  11.522  17.204  0.00  0.00    +0.000 A 
ATOM     12  N   UNL     1      -4.395  11.326  15.970  0.00  0.00    +0.000 NA
ATOM     13  N   UNL     1      -3.451  10.564  15.389  0.00  0.00    +0.000 N 
ATOM     14  C   UNL     1      -3.594  10.151  14.014  0.00  0.00    +0.000 C 
ATOM     15  C   UNL     1      -2.406  10.265  16.216  0.00  0.00    +0.000 A 
ENDBRANCH   7  10
BRANCH   1  17
ATOM     16  N   UNL     1       2.504   7.373  20.108  0.00  0.00    +0.000 N 
ATOM     17  C   UNL     1       1.807   8.354  19.424  0.00  0.00    +0.000 C 
ATOM     18  O   UNL     1       1.780   8.374  18.198  0.00  0.00    +0.000 OA
ATOM     19  H   UNL     1       2.421   7.304  21.112  0.00  0.00    +0.000 HD
BRANCH  16  21
ATOM     20  C   UNL     1       3.544   6.677  18.000  0.00  0.00    +0.000 C 
ATOM     21  C   UNL     1       3.145   6.264  19.419  0.00  0.00    +0.000 C 
BRANCH  21  22
ATOM     22  C   UNL     1       2.262   5.024  19.421  0.00  0.00    +0.000 A 
ATOM     23  C   UNL     1       1.776   4.525  20.642  0.00  0.00    +0.000 A 
ATOM     24  C   UNL     1       1.004   3.360  20.686  0.00  0.00    +0.000 A 
ATOM     25  C   UNL     1       0.701   2.679  19.511  0.00  0.00    +0.000 A 
ATOM     26  C   UNL     1       1.159   3.168  18.290  0.00  0.00    +0.000 A 
ATOM     27  C   UNL     1       1.931   4.334  18.244  0.00  0.00    +0.000 A 
ENDBRANCH  21  22
ENDBRANCH  16  21
ENDBRANCH   1  17
TORSDOF 4
ENDMDL
MODEL 7
REMARK VINA RESULT:      -7.2      3.111      8.260
REMARK  Name = 
REMARK  6 active torsions:
REMARK  status: ('A' for Active; 'I' for Inactive)
REMARK    1  A    between atoms: C_1  and  C_2
REMARK    2  A    between atoms: C_2  and  N_3
REMARK    3  A    between atoms: C_2  and  C_21
REMARK    4  A    between atoms: C_4  and  C_6
REMARK    5  A    between atoms: C_12  and  C_13
REMARK    6  A    between atoms: N_16  and  C_17
REMARK                            x       y       z     vdW  Elec       q    Type
REMARK                         _______ _______ _______ _____ _____    ______ ____
ROOT
ATOM      1  C   UNL     1       1.537   8.148  19.650  0.00  0.00    +0.000 A 
ATOM      2  C   UNL     1       1.102   7.731  20.897  0.00  0.00    +0.000 A 
ATOM      3  N   UNL     1       1.614   6.517  21.252  0.00  0.00    +0.000 NA
ATOM      4  C   UNL     1       2.366   6.157  20.238  0.00  0.00    +0.000 A 
ATOM      5  C   UNL     1       3.153   4.992  20.049  0.00  0.00    +0.000 A 
ATOM      6  C   UNL     1       3.864   4.838  18.919  0.00  0.00    +0.000 A 
ATOM      7  C   UNL     1       3.861   5.841  17.846  0.00  0.00    +0.000 A 
ATOM      8  C   UNL     1       3.102   6.944  18.044  0.00  0.00    +0.000 A 
ATOM      9  N   UNL     1       2.363   7.110  19.221  0.00  0.00    +0.000 N 
ENDROOT
BRANCH   7  10
ATOM     10  C   UNL     1       4.645   5.639  16.663  0.00  0.00    +0.000 A 
ATOM     11  C   UNL     1       5.278   6.596  15.836  0.00  0.00    +0.000 A 
ATOM     12  N   UNL     1       5.919   6.039  14.804  0.00  0.00    +0.000 NA
ATOM     13  N   UNL     1       5.702   4.722  14.973  0.00  0.00    +0.000 N 
ATOM     14  C   UNL     1       6.265   3.767  14.049  0.00  0.00    +0.000 C 
ATOM     15  C   UNL     1       4.938   4.431  16.067  0.00  0.00    +0.000 A 
ENDBRANCH   7  10
BRANCH   1  17
ATOM     16  N   UNL     1      -0.031   9.874  19.107  0.00  0.00    +0.000 N 
ATOM     17  C   UNL     1       1.241   9.362  18.920  0.00  0.00    +0.000 C 
ATOM     18  O   UNL     1       2.050   9.926  18.191  0.00  0.00    +0.000 OA
ATOM     19  H   UNL     1      -0.643   9.463  19.797  0.00  0.00    +0.000 HD
BRANCH  16  21
ATOM     20  C   UNL     1      -0.344  12.256  19.596  0.00  0.00    +0.000 C 
ATOM     21  C   UNL     1      -0.436  11.150  18.540  0.00  0.00    +0.000 C 
BRANCH  21  22
ATOM     22  C   UNL     1      -1.826  11.069  17.925  0.00  0.00    +0.000 A 
ATOM     23  C   UNL     1      -2.014  10.342  16.737  0.00  0.00    +0.000 A 
ATOM     24  C   UNL     1      -3.266  10.287  16.117  0.00  0.00    +0.000 A 
ATOM     25  C   UNL     1      -4.352  10.952  16.679  0.00  0.00    +0.000 A 
ATOM     26  C   UNL     1      -4.190  11.662  17.866  0.00  0.00    +0.000 A 
ATOM     27  C   UNL     1      -2.938  11.718  18.487  0.00  0.00    +0.000 A 
ENDBRANCH  21  22
ENDBRANCH  16  21
ENDBRANCH   1  17
TORSDOF 4
ENDMDL
MODEL 8
REMARK VINA RESULT:      -7.1      2.398      8.352
REMARK  Name = 
REMARK  6 active torsions:
REMARK  status: ('A' for Active; 'I' for Inactive)
REMARK    1  A    between atoms: C_1  and  C_2
REMARK    2  A    between atoms: C_2  and  N_3
REMARK    3  A    between atoms: C_2  and  C_21
REMARK    4  A    between atoms: C_4  and  C_6
REMARK    5  A    between atoms: C_12  and  C_13
REMARK    6  A    between atoms: N_16  and  C_17
REMARK                            x       y       z     vdW  Elec       q    Type
REMARK                         _______ _______ _______ _____ _____    ______ ____
ROOT
ATOM      1  C   UNL     1       2.293   7.175  19.176  0.00  0.00    +0.000 A 
ATOM      2  C   UNL     1       1.840   6.683  20.389  0.00  0.00    +0.000 A 
ATOM      3  N   UNL     1       2.420   5.494  20.722  0.00  0.00    +0.000 NA
ATOM      4  C   UNL     1       3.232   5.222  19.727  0.00  0.00    +0.000 A 
ATOM      5  C   UNL     1       4.103   4.120  19.529  0.00  0.00    +0.000 A 
ATOM      6  C   UNL     1       4.864   4.057  18.423  0.00  0.00    +0.000 A 
ATOM      7  C   UNL     1       4.834   5.097  17.387  0.00  0.00    +0.000 A 
ATOM      8  C   UNL     1       3.995   6.139  17.592  0.00  0.00    +0.000 A 
ATOM      9  N   UNL     1       3.203   6.211  18.744  0.00  0.00    +0.000 N 
ENDROOT
BRANCH   7  10
ATOM     10  C   UNL     1       5.674   4.992  16.229  0.00  0.00    +0.000 A 
ATOM     11  C   UNL     1       6.960   5.534  16.007  0.00  0.00    +0.000 A 
ATOM     12  N   UNL     1       7.440   5.237  14.795  0.00  0.00    +0.000 NA
ATOM     13  N   UNL     1       6.461   4.499  14.242  0.00  0.00    +0.000 N 
ATOM     14  C   UNL     1       6.618   3.961  12.912  0.00  0.00    +0.000 C 
ATOM     15  C   UNL     1       5.379   4.329  15.057  0.00  0.00    +0.000 A 
ENDBRANCH   7  10
BRANCH   1  17
ATOM     16  N   UNL     1       1.129   9.267  19.176  0.00  0.00    +0.000 N 
ATOM     17  C   UNL     1       1.942   8.393  18.477  0.00  0.00    +0.000 C 
ATOM     18  O   UNL     1       2.339   8.662  17.348  0.00  0.00    +0.000 OA
ATOM     19  H   UNL     1       0.907   9.084  20.144  0.00  0.00    +0.000 HD
BRANCH  16  21
ATOM     20  C   UNL     1       2.058  11.426  18.477  0.00  0.00    +0.000 C 
ATOM     21  C   UNL     1       0.792  10.584  18.658  0.00  0.00    +0.000 C 
BRANCH  21  22
ATOM     22  C   UNL     1      -0.232  11.283  19.541  0.00  0.00    +0.000 A 
ATOM     23  C   UNL     1      -0.222  11.051  20.927  0.00  0.00    +0.000 A 
ATOM     24  C   UNL     1      -1.179  11.637  21.761  0.00  0.00    +0.000 A 
ATOM     25  C   UNL     1      -2.158  12.468  21.224  0.00  0.00    +0.000 A 
ATOM     26  C   UNL     1      -2.173  12.723  19.855  0.00  0.00    +0.000 A 
ATOM     27  C   UNL     1      -1.216  12.139  19.019  0.00  0.00    +0.000 A 
ENDBRANCH  21  22
ENDBRANCH  16  21
ENDBRANCH   1  17
TORSDOF 4
ENDMDL
MODEL 9
REMARK VINA RESULT:      -7.1      2.115      7.712
REMARK  Name = 
REMARK  6 active torsions:
REMARK  status: ('A' for Active; 'I' for Inactive)
REMARK    1  A    between atoms: C_1  and  C_2
REMARK    2  A    between atoms: C_2  and  N_3
REMARK    3  A    between atoms: C_2  and  C_21
REMARK    4  A    between atoms: C_4  and  C_6
REMARK    5  A    between atoms: C_12  and  C_13
REMARK    6  A    between atoms: N_16  and  C_17
REMARK                            x       y       z     vdW  Elec       q    Type
REMARK                         _______ _______ _______ _____ _____    ______ ____
ROOT
ATOM      1  C   UNL     1       2.016   5.650  19.819  0.00  0.00    +0.000 A 
ATOM      2  C   UNL     1       1.278   4.732  20.548  0.00  0.00    +0.000 A 
ATOM      3  N   UNL     1       1.493   3.447  20.143  0.00  0.00    +0.000 NA
ATOM      4  C   UNL     1       2.356   3.541  19.158  0.00  0.00    +0.000 A 
ATOM      5  C   UNL     1       2.951   2.530  18.361  0.00  0.00    +0.000 A 
ATOM      6  C   UNL     1       3.833   2.864  17.403  0.00  0.00    +0.000 A 
ATOM      7  C   UNL     1       4.214   4.256  17.136  0.00  0.00    +0.000 A 
ATOM      8  C   UNL     1       3.633   5.207  17.904  0.00  0.00    +0.000 A 
ATOM      9  N   UNL     1       2.718   4.864  18.906  0.00  0.00    +0.000 N 
ENDROOT
BRANCH   7  10
ATOM     10  C   UNL     1       5.169   4.562  16.110  0.00  0.00    +0.000 A 
ATOM     11  C   UNL     1       6.116   5.611  16.055  0.00  0.00    +0.000 A 
ATOM     12  N   UNL     1       6.838   5.592  14.931  0.00  0.00    +0.000 NA
ATOM     13  N   UNL     1       6.357   4.525  14.266  0.00  0.00    +0.000 N 
ATOM     14  C   UNL     1       6.911   4.154  12.987  0.00  0.00    +0.000 C 
ATOM     15  C   UNL     1       5.351   3.879  14.927  0.00  0.00    +0.000 A 
ENDBRANCH   7  10
BRANCH   1  17
ATOM     16  N   UNL     1       1.170   7.662  20.804  0.00  0.00    +0.000 N 
ATOM     17  C   UNL     1       2.083   7.091  19.934  0.00  0.00    +0.000 C 
ATOM     18  O   UNL     1       2.894   7.780  19.326  0.00  0.00    +0.000 OA
ATOM     19  H   UNL     1       0.588   7.072  21.381  0.00  0.00    +0.000 HD
BRANCH  16  21
ATOM     20  C   UNL     1       0.998   9.296  22.623  0.00  0.00    +0.000 C 
ATOM     21  C   UNL     1       1.193   9.081  21.120  0.00  0.00    +0.000 C 
BRANCH  21  22
ATOM     22  C   UNL     1       0.168   9.850  20.299  0.00  0.00    +0.000 A 
ATOM     23  C   UNL     1       0.039   9.581  18.926  0.00  0.00    +0.000 A 
ATOM     24  C   UNL     1      -0.857  10.303  18.132  0.00  0.00    +0.000 A 
ATOM     25  C   UNL     1      -1.644  11.301  18.699  0.00  0.00    +0.000 A 
ATOM     26  C   UNL     1      -1.543  11.570  20.062  0.00  0.00    +0.000 A 
ATOM     27  C   UNL     1      -0.647  10.849  20.858  0.00  0.00    +0.000 A 
ENDBRANCH  21  22
ENDBRANCH  16  21
ENDBRANCH   1  17
TORSDOF 4
ENDMDL
