MODEL 1
REMARK VINA RESULT:      -8.0      0.000      0.000
REMARK  Name = 
REMARK  10 active torsions:
REMARK  status: ('A' for Active; 'I' for Inactive)
REMARK    1  A    between atoms: S_2  and  N_4
REMARK    2  A    between atoms: S_2  and  C_26
REMARK    3  A    between atoms: N_4  and  C_5
REMARK    4  A    between atoms: C_5  and  C_6
REMARK    5  A    between atoms: C_6  and  C_7
REMARK    6  A    between atoms: C_10  and  S_11
REMARK    7  A    between atoms: S_11  and  N_14
REMARK    8  A    between atoms: N_14  and  C_15
REMARK    9  A    between atoms: C_15  and  N_17
REMARK   10  A    between atoms: N_17  and  C_18
REMARK                            x       y       z     vdW  Elec       q    Type
REMARK                         _______ _______ _______ _____ _____    ______ ____
ROOT
ATOM      1  C   UNL     1       2.237   7.099  18.684  0.00  0.00    +0.000 A 
ATOM      2  C   UNL     1       1.956   6.198  17.644  0.00  0.00    +0.000 A 
ATOM      3  C   UNL     1       1.665   4.860  17.920  0.00  0.00    +0.000 A 
ATOM      4  C   UNL     1       1.670   4.409  19.242  0.00  0.00    +0.000 A 
ATOM      5  C   UNL     1       1.969   5.278  20.288  0.00  0.00    +0.000 A 
ATOM      6  C   UNL     1       2.269   6.610  20.004  0.00  0.00    +0.000 A 
ENDROOT
BRANCH   4   7
ATOM      7  S   UNL     1       1.232   2.737  19.600  0.00  0.00    +0.000 S 
ATOM      8  O   UNL     1       1.257   2.587  21.040  0.00  0.00    +0.000 OA
ATOM      9  O   UNL     1       0.054   2.380  18.839  0.00  0.00    +0.000 OA
BRANCH   7  10
ATOM     10  N   UNL     1       2.501   1.818  19.034  0.00  0.00    +0.000 N 
ATOM     11  H   UNL     1       2.202   1.258  18.238  0.00  0.00    +0.000 HD
BRANCH  10  12
ATOM     12  C   UNL     1       3.875   2.060  19.161  0.00  0.00    +0.000 C 
ATOM     13  S   UNL     1       4.807   1.686  20.492  0.00  0.00    +0.000 S 
BRANCH  12  14
ATOM     14  N   UNL     1       4.503   2.456  18.007  0.00  0.00    +0.000 N 
ATOM     15  H   UNL     1       4.981   1.721  17.497  0.00  0.00    +0.000 HD
BRANCH  14  16
ATOM     16  C   UNL     1       4.865   3.777  17.665  0.00  0.00    +0.000 A 
ATOM     17  C   UNL     1       5.348   4.689  18.609  0.00  0.00    +0.000 A 
ATOM     18  C   UNL     1       5.756   5.965  18.215  0.00  0.00    +0.000 A 
ATOM     19  C   UNL     1       5.676   6.338  16.877  0.00  0.00    +0.000 A 
ATOM     20  C   UNL     1       5.207   5.430  15.929  0.00  0.00    +0.000 A 
ATOM     21  C   UNL     1       4.820   4.145  16.318  0.00  0.00    +0.000 A 
ENDBRANCH  14  16
ENDBRANCH  12  14
ENDBRANCH  10  12
ENDBRANCH   7  10
ENDBRANCH   4   7
BRANCH   1  22
ATOM     22  C   UNL     1       2.516   8.553  18.350  0.00  0.00    +0.000 C 
BRANCH  22  23
ATOM     23  C   UNL     1       1.322   9.257  17.700  0.00  0.00    +0.000 C 
BRANCH  23  24
ATOM     24  N   UNL     1       1.098  10.600  18.258  0.00  0.00    +0.000 NA
ATOM     25  H   UNL     1       1.924  11.112  18.567  0.00  0.00    +0.000 HD
BRANCH  24  27
ATOM     26  O   UNL     1      -0.156   9.461  20.143  0.00  0.00    +0.000 OA
ATOM     27  S   UNL     1      -0.152  10.706  19.410  0.00  0.00    +0.000 S 
ATOM     28  O   UNL     1      -0.041  11.990  20.065  0.00  0.00    +0.000 OA
BRANCH  27  29
ATOM     29  C   UNL     1      -1.599  10.724  18.379  0.00  0.00    +0.000 A 
ATOM     30  C   UNL     1      -1.652   9.867  17.274  0.00  0.00    +0.000 A 
ATOM     31  C   UNL     1      -2.758   9.905  16.428  0.00  0.00    +0.000 A 
ATOM     32  C   UNL     1      -3.808  10.788  16.693  0.00  0.00    +0.000 A 
ATOM     33  C   UNL     1      -3.760  11.627  17.807  0.00  0.00    +0.000 A 
ATOM     34  C   UNL     1      -2.655  11.597  18.658  0.00  0.00    +0.000 A 
ENDBRANCH  27  29
ENDBRANCH  24  27
ENDBRANCH  23  24
ENDBRANCH  22  23
ENDBRANCH   1  22
TORSDOF 10
ENDMDL
MODEL 2
REMARK VINA RESULT:      -7.9      2.695      3.887
REMARK  Name = 
REMARK  10 active torsions:
REMARK  status: ('A' for Active; 'I' for Inactive)
REMARK    1  A    between atoms: S_2  and  N_4
REMARK    2  A    between atoms: S_2  and  C_26
REMARK    3  A    between atoms: N_4  and  C_5
REMARK    4  A    between atoms: C_5  and  C_6
REMARK    5  A    between atoms: C_6  and  C_7
REMARK    6  A    between atoms: C_10  and  S_11
REMARK    7  A    between atoms: S_11  and  N_14
REMARK    8  A    between atoms: N_14  and  C_15
REMARK    9  A    between atoms: C_15  and  N_17
REMARK   10  A    between atoms: N_17  and  C_18
REMARK                            x       y       z     vdW  Elec       q    Type
REMARK                         _______ _______ _______ _____ _____    ______ ____
ROOT
ATOM      1  C   UNL     1       2.885   7.279  18.469  0.00  0.00    +0.000 A 
ATOM      2  C   UNL     1       3.356   6.373  19.433  0.00  0.00    +0.000 A 
ATOM      3  C   UNL     1       4.606   5.769  19.291  0.00  0.00    +0.000 A 
ATOM      4  C   UNL     1       5.390   6.053  18.170  0.00  0.00    +0.000 A 
ATOM      5  C   UNL     1       4.935   6.929  17.189  0.00  0.00    +0.000 A 
ATOM      6  C   UNL     1       3.680   7.521  17.332  0.00  0.00    +0.000 A 
ENDROOT
BRANCH   4   7
ATOM      7  S   UNL     1       7.001   5.346  18.024  0.00  0.00    +0.000 S 
ATOM      8  O   UNL     1       7.797   6.258  17.230  0.00  0.00    +0.000 OA
ATOM      9  O   UNL     1       7.452   4.914  19.329  0.00  0.00    +0.000 OA
BRANCH   7  10
ATOM     10  N   UNL     1       6.802   3.989  17.078  0.00  0.00    +0.000 N 
ATOM     11  H   UNL     1       7.317   3.206  17.477  0.00  0.00    +0.000 HD
BRANCH  10  12
ATOM     12  C   UNL     1       5.750   3.682  16.206  0.00  0.00    +0.000 C 
ATOM     13  S   UNL     1       5.610   4.209  14.631  0.00  0.00    +0.000 S 
BRANCH  12  14
ATOM     14  N   UNL     1       4.889   2.713  16.657  0.00  0.00    +0.000 N 
ATOM     15  H   UNL     1       4.950   1.820  16.180  0.00  0.00    +0.000 HD
BRANCH  14  16
ATOM     16  C   UNL     1       3.717   2.924  17.415  0.00  0.00    +0.000 A 
ATOM     17  C   UNL     1       2.670   3.735  16.964  0.00  0.00    +0.000 A 
ATOM     18  C   UNL     1       1.501   3.865  17.718  0.00  0.00    +0.000 A 
ATOM     19  C   UNL     1       1.377   3.191  18.930  0.00  0.00    +0.000 A 
ATOM     20  C   UNL     1       2.413   2.373  19.380  0.00  0.00    +0.000 A 
ATOM     21  C   UNL     1       3.573   2.224  18.615  0.00  0.00    +0.000 A 
ENDBRANCH  14  16
ENDBRANCH  12  14
ENDBRANCH  10  12
ENDBRANCH   7  10
ENDBRANCH   4   7
BRANCH   1  22
ATOM     22  C   UNL     1       1.535   7.944  18.671  0.00  0.00    +0.000 C 
BRANCH  22  23
ATOM     23  C   UNL     1       1.546   9.435  18.324  0.00  0.00    +0.000 C 
BRANCH  23  24
ATOM     24  N   UNL     1       0.256   9.888  17.780  0.00  0.00    +0.000 NA
ATOM     25  H   UNL     1       0.247  10.178  16.802  0.00  0.00    +0.000 HD
BRANCH  24  27
ATOM     26  O   UNL     1      -0.821  10.350  20.026  0.00  0.00    +0.000 OA
ATOM     27  S   UNL     1      -0.592  10.997  18.755  0.00  0.00    +0.000 S 
ATOM     28  O   UNL     1       0.071  12.277  18.646  0.00  0.00    +0.000 OA
BRANCH  27  29
ATOM     29  C   UNL     1      -2.156  11.099  17.918  0.00  0.00    +0.000 A 
ATOM     30  C   UNL     1      -3.243  11.677  18.584  0.00  0.00    +0.000 A 
ATOM     31  C   UNL     1      -4.487  11.718  17.959  0.00  0.00    +0.000 A 
ATOM     32  C   UNL     1      -4.639  11.195  16.672  0.00  0.00    +0.000 A 
ATOM     33  C   UNL     1      -3.548  10.638  16.004  0.00  0.00    +0.000 A 
ATOM     34  C   UNL     1      -2.299  10.589  16.624  0.00  0.00    +0.000 A 
ENDBRANCH  27  29
ENDBRANCH  24  27
ENDBRANCH  23  24
ENDBRANCH  22  23
ENDBRANCH   1  22
TORSDOF 10
ENDMDL
MODEL 3
REMARK VINA RESULT:      -7.9      2.679      3.707
REMARK  Name = 
REMARK  10 active torsions:
REMARK  status: ('A' for Active; 'I' for Inactive)
REMARK    1  A    between atoms: S_2  and  N_4
REMARK    2  A    between atoms: S_2  and  C_26
REMARK    3  A    between atoms: N_4  and  C_5
REMARK    4  A    between atoms: C_5  and  C_6
REMARK    5  A    between atoms: C_6  and  C_7
REMARK    6  A    between atoms: C_10  and  S_11
REMARK    7  A    between atoms: S_11  and  N_14
REMARK    8  A    between atoms: N_14  and  C_15
REMARK    9  A    between atoms: C_15  and  N_17
REMARK   10  A    between atoms: N_17  and  C_18
REMARK                            x       y       z     vdW  Elec       q    Type
REMARK                         _______ _______ _______ _____ _____    ______ ____
ROOT
ATOM      1  C   UNL     1       2.818   7.317  18.451  0.00  0.00    +0.000 A 
ATOM      2  C   UNL     1       3.270   6.418  19.430  0.00  0.00    +0.000 A 
ATOM      3  C   UNL     1       4.521   5.809  19.314  0.00  0.00    +0.000 A 
ATOM      4  C   UNL     1       5.324   6.083  18.204  0.00  0.00    +0.000 A 
ATOM      5  C   UNL     1       4.888   6.952  17.208  0.00  0.00    +0.000 A 
ATOM      6  C   UNL     1       3.632   7.548  17.326  0.00  0.00    +0.000 A 
ENDROOT
BRANCH   4   7
ATOM      7  S   UNL     1       6.936   5.371  18.091  0.00  0.00    +0.000 S 
ATOM      8  O   UNL     1       7.747   6.272  17.299  0.00  0.00    +0.000 OA
ATOM      9  O   UNL     1       7.366   4.953  19.408  0.00  0.00    +0.000 OA
BRANCH   7  10
ATOM     10  N   UNL     1       6.749   4.004  17.158  0.00  0.00    +0.000 N 
ATOM     11  H   UNL     1       7.249   3.222  17.578  0.00  0.00    +0.000 HD
BRANCH  10  12
ATOM     12  C   UNL     1       5.714   3.692  16.267  0.00  0.00    +0.000 C 
ATOM     13  S   UNL     1       5.573   4.262  14.707  0.00  0.00    +0.000 S 
BRANCH  12  14
ATOM     14  N   UNL     1       4.878   2.685  16.680  0.00  0.00    +0.000 N 
ATOM     15  H   UNL     1       4.945   1.820  16.155  0.00  0.00    +0.000 HD
BRANCH  14  16
ATOM     16  C   UNL     1       3.717   2.835  17.470  0.00  0.00    +0.000 A 
ATOM     17  C   UNL     1       3.598   2.263  18.741  0.00  0.00    +0.000 A 
ATOM     18  C   UNL     1       2.457   2.490  19.515  0.00  0.00    +0.000 A 
ATOM     19  C   UNL     1       1.428   3.284  19.018  0.00  0.00    +0.000 A 
ATOM     20  C   UNL     1       1.545   3.867  17.757  0.00  0.00    +0.000 A 
ATOM     21  C   UNL     1       2.695   3.659  16.992  0.00  0.00    +0.000 A 
ENDBRANCH  14  16
ENDBRANCH  12  14
ENDBRANCH  10  12
ENDBRANCH   7  10
ENDBRANCH   4   7
BRANCH   1  22
ATOM     22  C   UNL     1       1.467   7.986  18.625  0.00  0.00    +0.000 C 
BRANCH  22  23
ATOM     23  C   UNL     1       1.471   9.458  18.205  0.00  0.00    +0.000 C 
BRANCH  23  24
ATOM     24  N   UNL     1       0.151   9.905  17.731  0.00  0.00    +0.000 NA
ATOM     25  H   UNL     1       0.085  10.179  16.751  0.00  0.00    +0.000 HD
BRANCH  24  27
ATOM     26  O   UNL     1      -0.798  10.404  20.026  0.00  0.00    +0.000 OA
ATOM     27  S   UNL     1      -0.636  11.032  18.736  0.00  0.00    +0.000 S 
ATOM     28  O   UNL     1       0.026  12.307  18.573  0.00  0.00    +0.000 OA
BRANCH  27  29
ATOM     29  C   UNL     1      -2.243  11.132  17.984  0.00  0.00    +0.000 A 
ATOM     30  C   UNL     1      -2.414  10.638  16.686  0.00  0.00    +0.000 A 
ATOM     31  C   UNL     1      -3.656  10.755  16.065  0.00  0.00    +0.000 A 
ATOM     32  C   UNL     1      -4.721  11.351  16.744  0.00  0.00    +0.000 A 
ATOM     33  C   UNL     1      -4.552  11.824  18.046  0.00  0.00    +0.000 A 
ATOM     34  C   UNL     1      -3.311  11.714  18.674  0.00  0.00    +0.000 A 
ENDBRANCH  27  29
ENDBRANCH  24  27
ENDBRANCH  23  24
ENDBRANCH  22  23
ENDBRANCH   1  22
TORSDOF 10
ENDMDL
MODEL 4
REMARK VINA RESULT:      -7.9      2.261      2.780
REMARK  Name = 
REMARK  10 active torsions:
REMARK  status: ('A' for Active; 'I' for Inactive)
REMARK    1  A    between atoms: S_2  and  N_4
REMARK    2  A    between atoms: S_2  and  C_26
REMARK    3  A    between atoms: N_4  and  C_5
REMARK    4  A    between atoms: C_5  and  C_6
REMARK    5  A    between atoms: C_6  and  C_7
REMARK    6  A    between atoms: C_10  and  S_11
REMARK    7  A    between atoms: S_11  and  N_14
REMARK    8  A    between atoms: N_14  and  C_15
REMARK    9  A    between atoms: C_15  and  N_17
REMARK   10  A    between atoms: N_17  and  C_18
REMARK                            x       y       z     vdW  Elec       q    Type
REMARK                         _______ _______ _______ _____ _____    ______ ____
ROOT
ATOM      1  C   UNL     1       1.687   6.662  20.476  0.00  0.00    +0.000 A 
ATOM      2  C   UNL     1       2.646   7.004  19.508  0.00  0.00    +0.000 A 
ATOM      3  C   UNL     1       3.171   6.034  18.652  0.00  0.00    +0.000 A 
ATOM      4  C   UNL     1       2.751   4.707  18.770  0.00  0.00    +0.000 A 
ATOM      5  C   UNL     1       1.820   4.339  19.737  0.00  0.00    +0.000 A 
ATOM      6  C   UNL     1       1.308   5.311  20.596  0.00  0.00    +0.000 A 
ENDROOT
BRANCH   4   7
ATOM      7  S   UNL     1       3.358   3.492  17.641  0.00  0.00    +0.000 S 
ATOM      8  O   UNL     1       4.400   2.755  18.326  0.00  0.00    +0.000 OA
ATOM      9  O   UNL     1       2.239   2.803  17.035  0.00  0.00    +0.000 OA
BRANCH   7  10
ATOM     10  N   UNL     1       4.135   4.352  16.445  0.00  0.00    +0.000 N 
ATOM     11  H   UNL     1       3.843   5.327  16.468  0.00  0.00    +0.000 HD
BRANCH  10  12
ATOM     12  C   UNL     1       5.357   4.068  15.822  0.00  0.00    +0.000 C 
ATOM     13  S   UNL     1       5.620   4.020  14.177  0.00  0.00    +0.000 S 
BRANCH  12  14
ATOM     14  N   UNL     1       6.440   4.025  16.664  0.00  0.00    +0.000 N 
ATOM     15  H   UNL     1       6.689   3.104  17.008  0.00  0.00    +0.000 HD
BRANCH  14  16
ATOM     16  C   UNL     1       6.988   5.113  17.377  0.00  0.00    +0.000 A 
ATOM     17  C   UNL     1       7.571   4.964  18.639  0.00  0.00    +0.000 A 
ATOM     18  C   UNL     1       8.159   6.056  19.281  0.00  0.00    +0.000 A 
ATOM     19  C   UNL     1       8.159   7.306  18.667  0.00  0.00    +0.000 A 
ATOM     20  C   UNL     1       7.589   7.459  17.403  0.00  0.00    +0.000 A 
ATOM     21  C   UNL     1       7.021   6.362  16.751  0.00  0.00    +0.000 A 
ENDBRANCH  14  16
ENDBRANCH  12  14
ENDBRANCH  10  12
ENDBRANCH   7  10
ENDBRANCH   4   7
BRANCH   1  22
ATOM     22  C   UNL     1       1.113   7.747  21.368  0.00  0.00    +0.000 C 
BRANCH  22  23
ATOM     23  C   UNL     1       1.294   9.153  20.790  0.00  0.00    +0.000 C 
BRANCH  23  24
ATOM     24  N   UNL     1       0.058   9.666  20.178  0.00  0.00    +0.000 NA
ATOM     25  H   UNL     1      -0.752   9.047  20.195  0.00  0.00    +0.000 HD
BRANCH  24  27
ATOM     26  O   UNL     1       0.778  11.706  18.859  0.00  0.00    +0.000 OA
ATOM     27  S   UNL     1       0.252  10.378  18.643  0.00  0.00    +0.000 S 
ATOM     28  O   UNL     1       0.908   9.414  17.788  0.00  0.00    +0.000 OA
BRANCH  27  29
ATOM     29  C   UNL     1      -1.433  10.552  18.106  0.00  0.00    +0.000 A 
ATOM     30  C   UNL     1      -1.863   9.833  16.985  0.00  0.00    +0.000 A 
ATOM     31  C   UNL     1      -3.167   9.998  16.523  0.00  0.00    +0.000 A 
ATOM     32  C   UNL     1      -4.037  10.868  17.185  0.00  0.00    +0.000 A 
ATOM     33  C   UNL     1      -3.610  11.568  18.314  0.00  0.00    +0.000 A 
ATOM     34  C   UNL     1      -2.305  11.411  18.783  0.00  0.00    +0.000 A 
ENDBRANCH  27  29
ENDBRANCH  24  27
ENDBRANCH  23  24
ENDBRANCH  22  23
ENDBRANCH   1  22
TORSDOF 10
ENDMDL
MODEL 5
REMARK VINA RESULT:      -7.8      3.117      4.275
REMARK  Name = 
REMARK  10 active torsions:
REMARK  status: ('A' for Active; 'I' for Inactive)
REMARK    1  A    between atoms: S_2  and  N_4
REMARK    2  A    between atoms: S_2  and  C_26
REMARK    3  A    between atoms: N_4  and  C_5
REMARK    4  A    between atoms: C_5  and  C_6
REMARK    5  A    between atoms: C_6  and  C_7
REMARK    6  A    between atoms: C_10  and  S_11
REMARK    7  A    between atoms: S_11  and  N_14
REMARK    8  A    between atoms: N_14  and  C_15
REMARK    9  A    between atoms: C_15  and  N_17
REMARK   10  A    between atoms: N_17  and  C_18
REMARK                            x       y       z     vdW  Elec       q    Type
REMARK                         _______ _______ _______ _____ _____    ______ ____
ROOT
ATOM      1  C   UNL     1       2.923   6.957  18.932  0.00  0.00    +0.000 A 
ATOM      2  C   UNL     1       3.625   6.033  19.724  0.00  0.00    +0.000 A 
ATOM      3  C   UNL     1       4.881   5.569  19.331  0.00  0.00    +0.000 A 
ATOM      4  C   UNL     1       5.440   6.016  18.131  0.00  0.00    +0.000 A 
ATOM      5  C   UNL     1       4.754   6.913  17.318  0.00  0.00    +0.000 A 
ATOM      6  C   UNL     1       3.494   7.364  17.711  0.00  0.00    +0.000 A 
ENDROOT
BRANCH   4   7
ATOM      7  S   UNL     1       7.061   5.488  17.668  0.00  0.00    +0.000 S 
ATOM      8  O   UNL     1       7.546   6.420  16.672  0.00  0.00    +0.000 OA
ATOM      9  O   UNL     1       7.831   5.213  18.862  0.00  0.00    +0.000 OA
BRANCH   7  10
ATOM     10  N   UNL     1       6.840   4.047  16.861  0.00  0.00    +0.000 N 
ATOM     11  H   UNL     1       7.330   3.296  17.344  0.00  0.00    +0.000 HD
BRANCH  10  12
ATOM     12  C   UNL     1       5.792   3.678  16.008  0.00  0.00    +0.000 C 
ATOM     13  S   UNL     1       5.623   4.149  14.418  0.00  0.00    +0.000 S 
BRANCH  12  14
ATOM     14  N   UNL     1       4.966   2.697  16.497  0.00  0.00    +0.000 N 
ATOM     15  H   UNL     1       5.041   1.796  16.038  0.00  0.00    +0.000 HD
BRANCH  14  16
ATOM     16  C   UNL     1       3.805   2.895  17.276  0.00  0.00    +0.000 A 
ATOM     17  C   UNL     1       2.778   3.759  16.883  0.00  0.00    +0.000 A 
ATOM     18  C   UNL     1       1.618   3.875  17.652  0.00  0.00    +0.000 A 
ATOM     19  C   UNL     1       1.483   3.134  18.822  0.00  0.00    +0.000 A 
ATOM     20  C   UNL     1       2.498   2.262  19.214  0.00  0.00    +0.000 A 
ATOM     21  C   UNL     1       3.649   2.128  18.433  0.00  0.00    +0.000 A 
ENDBRANCH  14  16
ENDBRANCH  12  14
ENDBRANCH  10  12
ENDBRANCH   7  10
ENDBRANCH   4   7
BRANCH   1  22
ATOM     22  C   UNL     1       1.573   7.465  19.405  0.00  0.00    +0.000 C 
BRANCH  22  23
ATOM     23  C   UNL     1       1.568   7.860  20.884  0.00  0.00    +0.000 C 
BRANCH  23  24
ATOM     24  N   UNL     1       0.238   8.293  21.340  0.00  0.00    +0.000 NA
ATOM     25  H   UNL     1      -0.546   8.099  20.716  0.00  0.00    +0.000 HD
BRANCH  24  27
ATOM     26  O   UNL     1      -0.680   9.849  23.116  0.00  0.00    +0.000 OA
ATOM     27  S   UNL     1       0.160   9.885  21.942  0.00  0.00    +0.000 S 
ATOM     28  O   UNL     1       1.506  10.413  21.967  0.00  0.00    +0.000 OA
BRANCH  27  29
ATOM     29  C   UNL     1      -0.747  10.716  20.660  0.00  0.00    +0.000 A 
ATOM     30  C   UNL     1      -1.473  11.867  20.984  0.00  0.00    +0.000 A 
ATOM     31  C   UNL     1      -2.230  12.501  20.001  0.00  0.00    +0.000 A 
ATOM     32  C   UNL     1      -2.250  11.992  18.700  0.00  0.00    +0.000 A 
ATOM     33  C   UNL     1      -1.508  10.855  18.376  0.00  0.00    +0.000 A 
ATOM     34  C   UNL     1      -0.750  10.212  19.356  0.00  0.00    +0.000 A 
ENDBRANCH  27  29
ENDBRANCH  24  27
ENDBRANCH  23  24
ENDBRANCH  22  23
ENDBRANCH   1  22
TORSDOF 10
ENDMDL
MODEL 6
REMARK VINA RESULT:      -7.8      3.291      4.497
REMARK  Name = 
REMARK  10 active torsions:
REMARK  status: ('A' for Active; 'I' for Inactive)
REMARK    1  A    between atoms: S_2  and  N_4
REMARK    2  A    between atoms: S_2  and  C_26
REMARK    3  A    between atoms: N_4  and  C_5
REMARK    4  A    between atoms: C_5  and  C_6
REMARK    5  A    between atoms: C_6  and  C_7
REMARK    6  A    between atoms: C_10  and  S_11
REMARK    7  A    between atoms: S_11  and  N_14
REMARK    8  A    between atoms: N_14  and  C_15
REMARK    9  A    between atoms: C_15  and  N_17
REMARK   10  A    between atoms: N_17  and  C_18
REMARK                            x       y       z     vdW  Elec       q    Type
REMARK                         _______ _______ _______ _____ _____    ______ ____
ROOT
ATOM      1  C   UNL     1       3.054   6.929  18.874  0.00  0.00    +0.000 A 
ATOM      2  C   UNL     1       3.656   7.414  17.702  0.00  0.00    +0.000 A 
ATOM      3  C   UNL     1       4.923   6.973  17.317  0.00  0.00    +0.000 A 
ATOM      4  C   UNL     1       5.608   6.053  18.114  0.00  0.00    +0.000 A 
ATOM      5  C   UNL     1       5.043   5.575  19.293  0.00  0.00    +0.000 A 
ATOM      6  C   UNL     1       3.780   6.029  19.677  0.00  0.00    +0.000 A 
ENDROOT
BRANCH   4   7
ATOM      7  S   UNL     1       7.178   5.438  17.592  0.00  0.00    +0.000 S 
ATOM      8  O   UNL     1       7.672   6.338  16.572  0.00  0.00    +0.000 OA
ATOM      9  O   UNL     1       7.980   5.128  18.757  0.00  0.00    +0.000 OA
BRANCH   7  10
ATOM     10  N   UNL     1       6.851   4.007  16.804  0.00  0.00    +0.000 N 
ATOM     11  H   UNL     1       7.343   3.238  17.254  0.00  0.00    +0.000 HD
BRANCH  10  12
ATOM     12  C   UNL     1       5.735   3.679  16.024  0.00  0.00    +0.000 C 
ATOM     13  S   UNL     1       5.460   4.189  14.461  0.00  0.00    +0.000 S 
BRANCH  12  14
ATOM     14  N   UNL     1       4.927   2.703  16.551  0.00  0.00    +0.000 N 
ATOM     15  H   UNL     1       4.992   1.795  16.105  0.00  0.00    +0.000 HD
BRANCH  14  16
ATOM     16  C   UNL     1       3.788   2.909  17.359  0.00  0.00    +0.000 A 
ATOM     17  C   UNL     1       2.722   3.721  16.957  0.00  0.00    +0.000 A 
ATOM     18  C   UNL     1       1.586   3.846  17.760  0.00  0.00    +0.000 A 
ATOM     19  C   UNL     1       1.514   3.166  18.973  0.00  0.00    +0.000 A 
ATOM     20  C   UNL     1       2.568   2.347  19.374  0.00  0.00    +0.000 A 
ATOM     21  C   UNL     1       3.695   2.203  18.561  0.00  0.00    +0.000 A 
ENDBRANCH  14  16
ENDBRANCH  12  14
ENDBRANCH  10  12
ENDBRANCH   7  10
ENDBRANCH   4   7
BRANCH   1  22
ATOM     22  C   UNL     1       1.662   7.405  19.246  0.00  0.00    +0.000 C 
BRANCH  22  23
ATOM     23  C   UNL     1       1.485   7.616  20.752  0.00  0.00    +0.000 C 
BRANCH  23  24
ATOM     24  N   UNL     1       1.274   9.031  21.094  0.00  0.00    +0.000 NA
ATOM     25  H   UNL     1       2.110   9.593  21.254  0.00  0.00    +0.000 HD
BRANCH  24  27
ATOM     26  O   UNL     1      -0.852   8.240  22.222  0.00  0.00    +0.000 OA
ATOM     27  S   UNL     1       0.104   9.320  22.298  0.00  0.00    +0.000 S 
ATOM     28  O   UNL     1       0.801   9.653  23.520  0.00  0.00    +0.000 OA
BRANCH  27  29
ATOM     29  C   UNL     1      -0.694  10.785  21.688  0.00  0.00    +0.000 A 
ATOM     30  C   UNL     1      -1.346  11.627  22.595  0.00  0.00    +0.000 A 
ATOM     31  C   UNL     1      -2.020  12.753  22.125  0.00  0.00    +0.000 A 
ATOM     32  C   UNL     1      -2.030  13.039  20.758  0.00  0.00    +0.000 A 
ATOM     33  C   UNL     1      -1.361  12.207  19.859  0.00  0.00    +0.000 A 
ATOM     34  C   UNL     1      -0.687  11.076  20.320  0.00  0.00    +0.000 A 
ENDBRANCH  27  29
ENDBRANCH  24  27
ENDBRANCH  23  24
ENDBRANCH  22  23
ENDBRANCH   1  22
TORSDOF 10
ENDMDL
MODEL 7
REMARK VINA RESULT:      -7.7      3.062      9.245
REMARK  Name = 
REMARK  10 active torsions:
REMARK  status: ('A' for Active; 'I' for Inactive)
REMARK    1  A    between atoms: S_2  and  N_4
REMARK    2  A    between atoms: S_2  and  C_26
REMARK    3  A    between atoms: N_4  and  C_5
REMARK    4  A    between atoms: C_5  and  C_6
REMARK    5  A    between atoms: C_6  and  C_7
REMARK    6  A    between atoms: C_10  and  S_11
REMARK    7  A    between atoms: S_11  and  N_14
REMARK    8  A    between atoms: N_14  and  C_15
REMARK    9  A    between atoms: C_15  and  N_17
REMARK   10  A    between atoms: N_17  and  C_18
REMARK                            x       y       z     vdW  Elec       q    Type
REMARK                         _______ _______ _______ _____ _____    ______ ____
ROOT
ATOM      1  C   UNL     1       2.721   6.602  18.414  0.00  0.00    +0.000 A 
ATOM      2  C   UNL     1       2.414   6.378  19.766  0.00  0.00    +0.000 A 
ATOM      3  C   UNL     1       1.836   7.385  20.541  0.00  0.00    +0.000 A 
ATOM      4  C   UNL     1       1.574   8.634  19.971  0.00  0.00    +0.000 A 
ATOM      5  C   UNL     1       1.891   8.888  18.640  0.00  0.00    +0.000 A 
ATOM      6  C   UNL     1       2.479   7.880  17.875  0.00  0.00    +0.000 A 
ENDROOT
BRANCH   4   7
ATOM      7  S   UNL     1       0.776   9.885  20.928  0.00  0.00    +0.000 S 
ATOM      8  O   UNL     1      -0.651   9.705  20.761  0.00  0.00    +0.000 OA
ATOM      9  O   UNL     1       1.367   9.925  22.248  0.00  0.00    +0.000 OA
BRANCH   7  10
ATOM     10  N   UNL     1       1.137  11.321  20.164  0.00  0.00    +0.000 N 
ATOM     11  H   UNL     1       2.106  11.317  19.851  0.00  0.00    +0.000 HD
BRANCH  10  12
ATOM     12  C   UNL     1       0.264  12.210  19.524  0.00  0.00    +0.000 C 
ATOM     13  S   UNL     1       0.032  13.808  19.938  0.00  0.00    +0.000 S 
BRANCH  12  14
ATOM     14  N   UNL     1      -0.277  11.747  18.351  0.00  0.00    +0.000 N 
ATOM     15  H   UNL     1       0.232  11.993  17.509  0.00  0.00    +0.000 HD
BRANCH  14  16
ATOM     16  C   UNL     1      -1.606  11.312  18.159  0.00  0.00    +0.000 A 
ATOM     17  C   UNL     1      -2.702  11.996  18.694  0.00  0.00    +0.000 A 
ATOM     18  C   UNL     1      -4.004  11.568  18.425  0.00  0.00    +0.000 A 
ATOM     19  C   UNL     1      -4.216  10.447  17.627  0.00  0.00    +0.000 A 
ATOM     20  C   UNL     1      -3.128   9.767  17.081  0.00  0.00    +0.000 A 
ATOM     21  C   UNL     1      -1.826  10.208  17.331  0.00  0.00    +0.000 A 
ENDBRANCH  14  16
ENDBRANCH  12  14
ENDBRANCH  10  12
ENDBRANCH   7  10
ENDBRANCH   4   7
BRANCH   1  22
ATOM     22  C   UNL     1       3.319   5.475  17.592  0.00  0.00    +0.000 C 
BRANCH  22  23
ATOM     23  C   UNL     1       4.739   5.105  18.030  0.00  0.00    +0.000 C 
BRANCH  23  24
ATOM     24  N   UNL     1       5.468   4.370  16.985  0.00  0.00    +0.000 NA
ATOM     25  H   UNL     1       5.632   3.377  17.152  0.00  0.00    +0.000 HD
BRANCH  24  27
ATOM     26  O   UNL     1       6.672   6.556  16.547  0.00  0.00    +0.000 OA
ATOM     27  S   UNL     1       6.880   5.133  16.413  0.00  0.00    +0.000 S 
ATOM     28  O   UNL     1       8.016   4.457  16.999  0.00  0.00    +0.000 OA
BRANCH  27  29
ATOM     29  C   UNL     1       6.827   4.746  14.679  0.00  0.00    +0.000 A 
ATOM     30  C   UNL     1       5.886   3.817  14.222  0.00  0.00    +0.000 A 
ATOM     31  C   UNL     1       5.866   3.467  12.874  0.00  0.00    +0.000 A 
ATOM     32  C   UNL     1       6.774   4.051  11.988  0.00  0.00    +0.000 A 
ATOM     33  C   UNL     1       7.698   4.992  12.445  0.00  0.00    +0.000 A 
ATOM     34  C   UNL     1       7.727   5.347  13.794  0.00  0.00    +0.000 A 
ENDBRANCH  27  29
ENDBRANCH  24  27
ENDBRANCH  23  24
ENDBRANCH  22  23
ENDBRANCH   1  22
TORSDOF 10
ENDMDL
MODEL 8
REMARK VINA RESULT:      -7.7      1.894      2.546
REMARK  Name = 
REMARK  10 active torsions:
REMARK  status: ('A' for Active; 'I' for Inactive)
REMARK    1  A    between atoms: S_2  and  N_4
REMARK    2  A    between atoms: S_2  and  C_26
REMARK    3  A    between atoms: N_4  and  C_5
REMARK    4  A    between atoms: C_5  and  C_6
REMARK    5  A    between atoms: C_6  and  C_7
REMARK    6  A    between atoms: C_10  and  S_11
REMARK    7  A    between atoms: S_11  and  N_14
REMARK    8  A    between atoms: N_14  and  C_15
REMARK    9  A    between atoms: C_15  and  N_17
REMARK   10  A    between atoms: N_17  and  C_18
REMARK                            x       y       z     vdW  Elec       q    Type
REMARK                         _______ _______ _______ _____ _____    ______ ____
ROOT
ATOM      1  C   UNL     1       2.308   7.068  18.600  0.00  0.00    +0.000 A 
ATOM      2  C   UNL     1       1.959   6.166  17.582  0.00  0.00    +0.000 A 
ATOM      3  C   UNL     1       1.640   4.841  17.884  0.00  0.00    +0.000 A 
ATOM      4  C   UNL     1       1.684   4.403  19.210  0.00  0.00    +0.000 A 
ATOM      5  C   UNL     1       2.049   5.272  20.234  0.00  0.00    +0.000 A 
ATOM      6  C   UNL     1       2.377   6.592  19.923  0.00  0.00    +0.000 A 
ENDROOT
BRANCH   4   7
ATOM      7  S   UNL     1       1.210   2.748  19.602  0.00  0.00    +0.000 S 
ATOM      8  O   UNL     1       1.204   2.636  21.046  0.00  0.00    +0.000 OA
ATOM      9  O   UNL     1       0.041   2.390  18.827  0.00  0.00    +0.000 OA
BRANCH   7  10
ATOM     10  N   UNL     1       2.474   1.794  19.087  0.00  0.00    +0.000 N 
ATOM     11  H   UNL     1       2.166   1.179  18.336  0.00  0.00    +0.000 HD
BRANCH  10  12
ATOM     12  C   UNL     1       3.849   2.046  19.179  0.00  0.00    +0.000 C 
ATOM     13  S   UNL     1       4.814   1.694  20.492  0.00  0.00    +0.000 S 
BRANCH  12  14
ATOM     14  N   UNL     1       4.448   2.432  18.006  0.00  0.00    +0.000 N 
ATOM     15  H   UNL     1       4.871   1.685  17.466  0.00  0.00    +0.000 HD
BRANCH  14  16
ATOM     16  C   UNL     1       4.856   3.740  17.669  0.00  0.00    +0.000 A 
ATOM     17  C   UNL     1       5.358   4.636  18.618  0.00  0.00    +0.000 A 
ATOM     18  C   UNL     1       5.811   5.899  18.230  0.00  0.00    +0.000 A 
ATOM     19  C   UNL     1       5.756   6.275  16.891  0.00  0.00    +0.000 A 
ATOM     20  C   UNL     1       5.268   5.383  15.937  0.00  0.00    +0.000 A 
ATOM     21  C   UNL     1       4.836   4.111  16.322  0.00  0.00    +0.000 A 
ENDBRANCH  14  16
ENDBRANCH  12  14
ENDBRANCH  10  12
ENDBRANCH   7  10
ENDBRANCH   4   7
BRANCH   1  22
ATOM     22  C   UNL     1       2.617   8.510  18.240  0.00  0.00    +0.000 C 
BRANCH  22  23
ATOM     23  C   UNL     1       1.359   9.359  18.040  0.00  0.00    +0.000 C 
BRANCH  23  24
ATOM     24  N   UNL     1       1.147  10.308  19.145  0.00  0.00    +0.000 NA
ATOM     25  H   UNL     1       1.943  10.482  19.758  0.00  0.00    +0.000 HD
BRANCH  24  27
ATOM     26  O   UNL     1      -1.377  10.091  19.109  0.00  0.00    +0.000 OA
ATOM     27  S   UNL     1      -0.277  10.065  20.046  0.00  0.00    +0.000 S 
ATOM     28  O   UNL     1      -0.049   8.953  20.942  0.00  0.00    +0.000 OA
BRANCH  27  29
ATOM     29  C   UNL     1      -0.360  11.556  21.009  0.00  0.00    +0.000 A 
ATOM     30  C   UNL     1       0.429  12.648  20.631  0.00  0.00    +0.000 A 
ATOM     31  C   UNL     1       0.412  13.806  21.406  0.00  0.00    +0.000 A 
ATOM     32  C   UNL     1      -0.396  13.874  22.543  0.00  0.00    +0.000 A 
ATOM     33  C   UNL     1      -1.196  12.789  22.904  0.00  0.00    +0.000 A 
ATOM     34  C   UNL     1      -1.184  11.624  22.136  0.00  0.00    +0.000 A 
ENDBRANCH  27  29
ENDBRANCH  24  27
ENDBRANCH  23  24
ENDBRANCH  22  23
ENDBRANCH   1  22
TORSDOF 10
ENDMDL
MODEL 9
REMARK VINA RESULT:      -7.6      2.806      4.004
REMARK  Name = 
REMARK  10 active torsions:
REMARK  status: ('A' for Active; 'I' for Inactive)
REMARK    1  A    between atoms: S_2  and  N_4
REMARK    2  A    between atoms: S_2  and  C_26
REMARK    3  A    between atoms: N_4  and  C_5
REMARK    4  A    between atoms: C_5  and  C_6
REMARK    5  A    between atoms: C_6  and  C_7
REMARK    6  A    between atoms: C_10  and  S_11
REMARK    7  A    between atoms: S_11  and  N_14
REMARK    8  A    between atoms: N_14  and  C_15
REMARK    9  A    between atoms: C_15  and  N_17
REMARK   10  A    between atoms: N_17  and  C_18
REMARK                            x       y       z     vdW  Elec       q    Type
REMARK                         _______ _______ _______ _____ _____    ______ ____
ROOT
ATOM      1  C   UNL     1       2.602   7.716  18.190  0.00  0.00    +0.000 A 
ATOM      2  C   UNL     1       3.729   7.665  17.354  0.00  0.00    +0.000 A 
ATOM      3  C   UNL     1       4.770   6.772  17.617  0.00  0.00    +0.000 A 
ATOM      4  C   UNL     1       4.697   5.932  18.731  0.00  0.00    +0.000 A 
ATOM      5  C   UNL     1       3.601   5.981  19.587  0.00  0.00    +0.000 A 
ATOM      6  C   UNL     1       2.570   6.883  19.325  0.00  0.00    +0.000 A 
ENDROOT
BRANCH   4   7
ATOM      7  S   UNL     1       5.977   4.752  19.024  0.00  0.00    +0.000 S 
ATOM      8  O   UNL     1       7.138   5.484  19.482  0.00  0.00    +0.000 OA
ATOM      9  O   UNL     1       5.443   3.652  19.798  0.00  0.00    +0.000 OA
BRANCH   7  10
ATOM     10  N   UNL     1       6.386   4.164  17.519  0.00  0.00    +0.000 N 
ATOM     11  H   UNL     1       7.327   3.775  17.539  0.00  0.00    +0.000 HD
BRANCH  10  12
ATOM     12  C   UNL     1       5.537   3.724  16.496  0.00  0.00    +0.000 C 
ATOM     13  S   UNL     1       5.588   4.230  14.909  0.00  0.00    +0.000 S 
BRANCH  12  14
ATOM     14  N   UNL     1       4.745   2.652  16.821  0.00  0.00    +0.000 N 
ATOM     15  H   UNL     1       4.962   1.787  16.337  0.00  0.00    +0.000 HD
BRANCH  14  16
ATOM     16  C   UNL     1       3.477   2.707  17.440  0.00  0.00    +0.000 A 
ATOM     17  C   UNL     1       3.109   1.836  18.470  0.00  0.00    +0.000 A 
ATOM     18  C   UNL     1       1.869   1.968  19.099  0.00  0.00    +0.000 A 
ATOM     19  C   UNL     1       0.987   2.965  18.693  0.00  0.00    +0.000 A 
ATOM     20  C   UNL     1       1.352   3.844  17.674  0.00  0.00    +0.000 A 
ATOM     21  C   UNL     1       2.602   3.728  17.061  0.00  0.00    +0.000 A 
ENDBRANCH  14  16
ENDBRANCH  12  14
ENDBRANCH  10  12
ENDBRANCH   7  10
ENDBRANCH   4   7
BRANCH   1  22
ATOM     22  C   UNL     1       1.474   8.676  17.857  0.00  0.00    +0.000 C 
BRANCH  22  23
ATOM     23  C   UNL     1       1.083   9.571  19.036  0.00  0.00    +0.000 C 
BRANCH  23  24
ATOM     24  N   UNL     1      -0.249  10.171  18.861  0.00  0.00    +0.000 NA
ATOM     25  H   UNL     1      -0.759   9.916  18.015  0.00  0.00    +0.000 HD
BRANCH  24  27
ATOM     26  O   UNL     1       1.025  12.308  19.339  0.00  0.00    +0.000 OA
ATOM     27  S   UNL     1      -0.330  11.849  19.143  0.00  0.00    +0.000 S 
ATOM     28  O   UNL     1      -1.206  12.422  18.145  0.00  0.00    +0.000 OA
BRANCH  27  29
ATOM     29  C   UNL     1      -1.150  11.916  20.718  0.00  0.00    +0.000 A 
ATOM     30  C   UNL     1      -0.612  11.198  21.791  0.00  0.00    +0.000 A 
ATOM     31  C   UNL     1      -1.272  11.200  23.018  0.00  0.00    +0.000 A 
ATOM     32  C   UNL     1      -2.456  11.926  23.172  0.00  0.00    +0.000 A 
ATOM     33  C   UNL     1      -2.979  12.657  22.104  0.00  0.00    +0.000 A 
ATOM     34  C   UNL     1      -2.326  12.657  20.870  0.00  0.00    +0.000 A 
ENDBRANCH  27  29
ENDBRANCH  24  27
ENDBRANCH  23  24
ENDBRANCH  22  23
ENDBRANCH   1  22
TORSDOF 10
ENDMDL
