MODEL 1
REMARK VINA RESULT:      -8.9      0.000      0.000
REMARK  Name = 
REMARK  11 active torsions:
REMARK  status: ('A' for Active; 'I' for Inactive)
REMARK    1  A    between atoms: C_1  and  C_2
REMARK    2  A    between atoms: C_2  and  N_3
REMARK    3  A    between atoms: N_3  and  C_4
REMARK    4  A    between atoms: N_3  and  S_6
REMARK    5  A    between atoms: C_4  and  C_5
REMARK    6  A    between atoms: S_6  and  C_9
REMARK    7  A    between atoms: C_14  and  N_15
REMARK    8  A    between atoms: C_16  and  C_18
REMARK    9  A    between atoms: C_18  and  O_19
REMARK   10  A    between atoms: O_19  and  C_20
REMARK   11  A    between atoms: C_24  and  C_25
REMARK                            x       y       z     vdW  Elec       q    Type
REMARK                         _______ _______ _______ _____ _____    ______ ____
ROOT
ATOM      1  N   UNL     1       6.483   7.401  16.956  0.00  0.00    +0.000 N 
ATOM      2  C   UNL     1       7.566   7.649  17.798  0.00  0.00    +0.000 C 
ATOM      3  O   UNL     1       8.054   6.864  18.605  0.00  0.00    +0.000 OA
ATOM      4  H   UNL     1       6.421   8.022  16.156  0.00  0.00    +0.000 HD
ENDROOT
BRANCH   1  10
ATOM      5  C   UNL     1       3.703   5.047  17.723  0.00  0.00    +0.000 A 
ATOM      6  C   UNL     1       3.888   4.017  16.804  0.00  0.00    +0.000 A 
ATOM      7  C   UNL     1       4.992   4.048  15.964  0.00  0.00    +0.000 A 
ATOM      8  C   UNL     1       5.915   5.110  16.011  0.00  0.00    +0.000 A 
ATOM      9 CL   UNL     1       7.370   4.807  15.125  0.00  0.00    +0.000 Cl
ATOM     10  C   UNL     1       5.699   6.209  16.872  0.00  0.00    +0.000 A 
ATOM     11  C   UNL     1       4.603   6.129  17.768  0.00  0.00    +0.000 A 
BRANCH   5  12
ATOM     12  S   UNL     1       2.411   4.869  18.944  0.00  0.00    +0.000 S 
ATOM     13  O   UNL     1       1.337   4.137  18.301  0.00  0.00    +0.000 OA
ATOM     14  O   UNL     1       2.179   6.174  19.528  0.00  0.00    +0.000 OA
BRANCH  12  15
ATOM     15  N   UNL     1       3.079   3.871  20.179  0.00  0.00    +0.000 NA
BRANCH  15  17
ATOM     16  C   UNL     1       1.316   2.748  21.596  0.00  0.00    +0.000 C 
ATOM     17  C   UNL     1       2.307   3.895  21.461  0.00  0.00    +0.000 C 
ENDBRANCH  15  17
BRANCH  15  18
ATOM     18  C   UNL     1       3.430   2.494  19.686  0.00  0.00    +0.000 C 
ATOM     19  C   UNL     1       4.689   1.909  20.311  0.00  0.00    +0.000 C 
ENDBRANCH  15  18
ENDBRANCH  12  15
ENDBRANCH   5  12
ENDBRANCH   1  10
BRANCH   2  20
ATOM     20  C   UNL     1       8.258   8.991  17.552  0.00  0.00    +0.000 C 
BRANCH  20  21
ATOM     21  O   UNL     1       8.870   9.303  18.802  0.00  0.00    +0.000 OA
BRANCH  21  22
ATOM     22  C   UNL     1       9.264  10.584  19.045  0.00  0.00    +0.000 A 
ATOM     23  C   UNL     1       9.213  10.947  20.394  0.00  0.00    +0.000 A 
ATOM     24  C   UNL     1       9.622  12.216  20.824  0.00  0.00    +0.000 A 
ATOM     25  C   UNL     1      10.093  13.163  19.909  0.00  0.00    +0.000 A 
ATOM     26  C   UNL     1      10.562  14.509  20.271  0.00  0.00    +0.000 A 
ATOM     27  C   UNL     1      10.589  15.007  21.689  0.00  0.00    +0.000 C 
ATOM     28  C   UNL     1      10.988  15.320  19.289  0.00  0.00    +0.000 A 
ATOM     29  C   UNL     1      11.010  14.938  17.870  0.00  0.00    +0.000 A 
ATOM     30  O   UNL     1      11.410  15.724  17.012  0.00  0.00    +0.000 OA
ATOM     31  O   UNL     1      10.563  13.666  17.557  0.00  0.00    +0.000 OA
ATOM     32  C   UNL     1      10.114  12.782  18.563  0.00  0.00    +0.000 A 
ATOM     33  C   UNL     1       9.709  11.514  18.117  0.00  0.00    +0.000 A 
ENDBRANCH  21  22
ENDBRANCH  20  21
ENDBRANCH   2  20
TORSDOF 8
ENDMDL
MODEL 2
REMARK VINA RESULT:      -8.6      1.343      1.890
REMARK  Name = 
REMARK  11 active torsions:
REMARK  status: ('A' for Active; 'I' for Inactive)
REMARK    1  A    between atoms: C_1  and  C_2
REMARK    2  A    between atoms: C_2  and  N_3
REMARK    3  A    between atoms: N_3  and  C_4
REMARK    4  A    between atoms: N_3  and  S_6
REMARK    5  A    between atoms: C_4  and  C_5
REMARK    6  A    between atoms: S_6  and  C_9
REMARK    7  A    between atoms: C_14  and  N_15
REMARK    8  A    between atoms: C_16  and  C_18
REMARK    9  A    between atoms: C_18  and  O_19
REMARK   10  A    between atoms: O_19  and  C_20
REMARK   11  A    between atoms: C_24  and  C_25
REMARK                            x       y       z     vdW  Elec       q    Type
REMARK                         _______ _______ _______ _____ _____    ______ ____
ROOT
ATOM      1  N   UNL     1       6.523   7.395  17.035  0.00  0.00    +0.000 N 
ATOM      2  C   UNL     1       7.595   7.598  17.902  0.00  0.00    +0.000 C 
ATOM      3  O   UNL     1       8.071   6.773  18.676  0.00  0.00    +0.000 OA
ATOM      4  H   UNL     1       6.472   8.055  16.267  0.00  0.00    +0.000 HD
ENDROOT
BRANCH   1  10
ATOM      5  C   UNL     1       3.722   5.018  17.642  0.00  0.00    +0.000 A 
ATOM      6  C   UNL     1       3.923   4.030  16.681  0.00  0.00    +0.000 A 
ATOM      7  C   UNL     1       5.044   4.095  15.865  0.00  0.00    +0.000 A 
ATOM      8  C   UNL     1       5.968   5.150  15.979  0.00  0.00    +0.000 A 
ATOM      9 CL   UNL     1       7.440   4.882  15.108  0.00  0.00    +0.000 Cl
ATOM     10  C   UNL     1       5.737   6.210  16.883  0.00  0.00    +0.000 A 
ATOM     11  C   UNL     1       4.624   6.094  17.753  0.00  0.00    +0.000 A 
BRANCH   5  12
ATOM     12  S   UNL     1       2.407   4.790  18.829  0.00  0.00    +0.000 S 
ATOM     13  O   UNL     1       1.391   3.993  18.167  0.00  0.00    +0.000 OA
ATOM     14  O   UNL     1       2.089   6.089  19.384  0.00  0.00    +0.000 OA
BRANCH  12  15
ATOM     15  N   UNL     1       3.090   3.847  20.098  0.00  0.00    +0.000 NA
BRANCH  15  17
ATOM     16  C   UNL     1       1.333   2.825  21.597  0.00  0.00    +0.000 C 
ATOM     17  C   UNL     1       2.344   3.944  21.393  0.00  0.00    +0.000 C 
ENDBRANCH  15  17
BRANCH  15  18
ATOM     18  C   UNL     1       3.417   2.444  19.667  0.00  0.00    +0.000 C 
ATOM     19  C   UNL     1       4.624   1.840  20.371  0.00  0.00    +0.000 C 
ENDBRANCH  15  18
ENDBRANCH  12  15
ENDBRANCH   5  12
ENDBRANCH   1  10
BRANCH   2  20
ATOM     20  C   UNL     1       8.293   8.949  17.732  0.00  0.00    +0.000 C 
BRANCH  20  21
ATOM     21  O   UNL     1       8.931   9.174  18.987  0.00  0.00    +0.000 OA
BRANCH  21  22
ATOM     22  C   UNL     1       9.399  10.420  19.278  0.00  0.00    +0.000 A 
ATOM     23  C   UNL     1      10.146  10.999  18.249  0.00  0.00    +0.000 A 
ATOM     24  C   UNL     1      10.668  12.294  18.367  0.00  0.00    +0.000 A 
ATOM     25  C   UNL     1      10.458  13.047  19.527  0.00  0.00    +0.000 A 
ATOM     26  C   UNL     1      10.949  14.418  19.729  0.00  0.00    +0.000 A 
ATOM     27  C   UNL     1      11.734  15.164  18.687  0.00  0.00    +0.000 C 
ATOM     28  C   UNL     1      10.676  15.026  20.896  0.00  0.00    +0.000 A 
ATOM     29  C   UNL     1       9.913  14.396  21.983  0.00  0.00    +0.000 A 
ATOM     30  O   UNL     1       9.693  15.001  23.032  0.00  0.00    +0.000 OA
ATOM     31  O   UNL     1       9.464  13.105  21.765  0.00  0.00    +0.000 OA
ATOM     32  C   UNL     1       9.725  12.436  20.550  0.00  0.00    +0.000 A 
ATOM     33  C   UNL     1       9.194  11.140  20.446  0.00  0.00    +0.000 A 
ENDBRANCH  21  22
ENDBRANCH  20  21
ENDBRANCH   2  20
TORSDOF 8
ENDMDL
MODEL 3
REMARK VINA RESULT:      -8.6      0.521      1.227
REMARK  Name = 
REMARK  11 active torsions:
REMARK  status: ('A' for Active; 'I' for Inactive)
REMARK    1  A    between atoms: C_1  and  C_2
REMARK    2  A    between atoms: C_2  and  N_3
REMARK    3  A    between atoms: N_3  and  C_4
REMARK    4  A    between atoms: N_3  and  S_6
REMARK    5  A    between atoms: C_4  and  C_5
REMARK    6  A    between atoms: S_6  and  C_9
REMARK    7  A    between atoms: C_14  and  N_15
REMARK    8  A    between atoms: C_16  and  C_18
REMARK    9  A    between atoms: C_18  and  O_19
REMARK   10  A    between atoms: O_19  and  C_20
REMARK   11  A    between atoms: C_24  and  C_25
REMARK                            x       y       z     vdW  Elec       q    Type
REMARK                         _______ _______ _______ _____ _____    ______ ____
ROOT
ATOM      1  N   UNL     1       6.492   7.390  16.936  0.00  0.00    +0.000 N 
ATOM      2  C   UNL     1       7.572   7.640  17.781  0.00  0.00    +0.000 C 
ATOM      3  O   UNL     1       8.069   6.852  18.579  0.00  0.00    +0.000 OA
ATOM      4  H   UNL     1       6.423   8.020  16.144  0.00  0.00    +0.000 HD
ENDROOT
BRANCH   1  10
ATOM      5  C   UNL     1       3.733   4.999  17.661  0.00  0.00    +0.000 A 
ATOM      6  C   UNL     1       3.939   3.977  16.737  0.00  0.00    +0.000 A 
ATOM      7  C   UNL     1       5.050   4.027  15.908  0.00  0.00    +0.000 A 
ATOM      8  C   UNL     1       5.961   5.099  15.971  0.00  0.00    +0.000 A 
ATOM      9 CL   UNL     1       7.427   4.819  15.096  0.00  0.00    +0.000 Cl
ATOM     10  C   UNL     1       5.723   6.189  16.837  0.00  0.00    +0.000 A 
ATOM     11  C   UNL     1       4.620   6.091  17.722  0.00  0.00    +0.000 A 
BRANCH   5  12
ATOM     12  S   UNL     1       2.432   4.798  18.869  0.00  0.00    +0.000 S 
ATOM     13  O   UNL     1       1.259   4.357  18.139  0.00  0.00    +0.000 OA
ATOM     14  O   UNL     1       2.398   5.997  19.679  0.00  0.00    +0.000 OA
BRANCH  12  15
ATOM     15  N   UNL     1       2.947   3.509  19.890  0.00  0.00    +0.000 NA
BRANCH  15  17
ATOM     16  C   UNL     1       4.794   1.848  20.343  0.00  0.00    +0.000 C 
ATOM     17  C   UNL     1       4.414   3.221  19.808  0.00  0.00    +0.000 C 
ENDBRANCH  15  17
BRANCH  15  18
ATOM     18  C   UNL     1       2.408   3.627  21.290  0.00  0.00    +0.000 C 
ATOM     19  C   UNL     1       1.248   2.690  21.593  0.00  0.00    +0.000 C 
ENDBRANCH  15  18
ENDBRANCH  12  15
ENDBRANCH   5  12
ENDBRANCH   1  10
BRANCH   2  20
ATOM     20  C   UNL     1       8.247   8.994  17.552  0.00  0.00    +0.000 C 
BRANCH  20  21
ATOM     21  O   UNL     1       8.822   9.316  18.818  0.00  0.00    +0.000 OA
BRANCH  21  22
ATOM     22  C   UNL     1       9.093  10.619  19.109  0.00  0.00    +0.000 A 
ATOM     23  C   UNL     1       9.320  10.861  20.467  0.00  0.00    +0.000 A 
ATOM     24  C   UNL     1       9.652  12.139  20.934  0.00  0.00    +0.000 A 
ATOM     25  C   UNL     1       9.762  13.217  20.050  0.00  0.00    +0.000 A 
ATOM     26  C   UNL     1      10.126  14.586  20.447  0.00  0.00    +0.000 A 
ATOM     27  C   UNL     1      10.428  14.967  21.869  0.00  0.00    +0.000 C 
ATOM     28  C   UNL     1      10.195  15.529  19.492  0.00  0.00    +0.000 A 
ATOM     29  C   UNL     1       9.926  15.269  18.072  0.00  0.00    +0.000 A 
ATOM     30  O   UNL     1      10.003  16.172  17.240  0.00  0.00    +0.000 OA
ATOM     31  O   UNL     1       9.585  13.972  17.726  0.00  0.00    +0.000 OA
ATOM     32  C   UNL     1       9.510  12.953  18.700  0.00  0.00    +0.000 A 
ATOM     33  C   UNL     1       9.177  11.677  18.216  0.00  0.00    +0.000 A 
ENDBRANCH  21  22
ENDBRANCH  20  21
ENDBRANCH   2  20
TORSDOF 8
ENDMDL
MODEL 4
REMARK VINA RESULT:      -8.4      1.354      2.165
REMARK  Name = 
REMARK  11 active torsions:
REMARK  status: ('A' for Active; 'I' for Inactive)
REMARK    1  A    between atoms: C_1  and  C_2
REMARK    2  A    between atoms: C_2  and  N_3
REMARK    3  A    between atoms: N_3  and  C_4
REMARK    4  A    between atoms: N_3  and  S_6
REMARK    5  A    between atoms: C_4  and  C_5
REMARK    6  A    between atoms: S_6  and  C_9
REMARK    7  A    between atoms: C_14  and  N_15
REMARK    8  A    between atoms: C_16  and  C_18
REMARK    9  A    between atoms: C_18  and  O_19
REMARK   10  A    between atoms: O_19  and  C_20
REMARK   11  A    between atoms: C_24  and  C_25
REMARK                            x       y       z     vdW  Elec       q    Type
REMARK                         _______ _______ _______ _____ _____    ______ ____
ROOT
ATOM      1  N   UNL     1       6.543   7.419  17.012  0.00  0.00    +0.000 N 
ATOM      2  C   UNL     1       7.609   7.661  17.877  0.00  0.00    +0.000 C 
ATOM      3  O   UNL     1       8.104   6.858  18.663  0.00  0.00    +0.000 OA
ATOM      4  H   UNL     1       6.476   8.067  16.235  0.00  0.00    +0.000 HD
ENDROOT
BRANCH   1  10
ATOM      5  C   UNL     1       3.850   4.944  17.708  0.00  0.00    +0.000 A 
ATOM      6  C   UNL     1       4.033   3.981  16.720  0.00  0.00    +0.000 A 
ATOM      7  C   UNL     1       5.109   4.096  15.851  0.00  0.00    +0.000 A 
ATOM      8  C   UNL     1       6.006   5.178  15.940  0.00  0.00    +0.000 A 
ATOM      9 CL   UNL     1       7.440   4.972  14.993  0.00  0.00    +0.000 Cl
ATOM     10  C   UNL     1       5.787   6.213  16.875  0.00  0.00    +0.000 A 
ATOM     11  C   UNL     1       4.723   6.046  17.797  0.00  0.00    +0.000 A 
BRANCH   5  12
ATOM     12  S   UNL     1       2.602   4.654  18.953  0.00  0.00    +0.000 S 
ATOM     13  O   UNL     1       1.320   4.772  18.284  0.00  0.00    +0.000 OA
ATOM     14  O   UNL     1       2.923   5.481  20.097  0.00  0.00    +0.000 OA
BRANCH  12  15
ATOM     15  N   UNL     1       2.807   3.013  19.437  0.00  0.00    +0.000 NA
BRANCH  15  17
ATOM     16  C   UNL     1       4.784   1.489  19.816  0.00  0.00    +0.000 C 
ATOM     17  C   UNL     1       4.060   2.765  20.218  0.00  0.00    +0.000 C 
ENDBRANCH  15  17
BRANCH  15  18
ATOM     18  C   UNL     1       1.563   2.428  20.046  0.00  0.00    +0.000 C 
ATOM     19  C   UNL     1       1.351   2.796  21.508  0.00  0.00    +0.000 C 
ENDBRANCH  15  18
ENDBRANCH  12  15
ENDBRANCH   5  12
ENDBRANCH   1  10
BRANCH   2  20
ATOM     20  C   UNL     1       8.272   9.027  17.689  0.00  0.00    +0.000 C 
BRANCH  20  21
ATOM     21  O   UNL     1       8.825   9.326  18.970  0.00  0.00    +0.000 OA
BRANCH  21  22
ATOM     22  C   UNL     1       9.363  10.558  19.187  0.00  0.00    +0.000 A 
ATOM     23  C   UNL     1      10.060  11.074  18.091  0.00  0.00    +0.000 A 
ATOM     24  C   UNL     1      10.642  12.348  18.131  0.00  0.00    +0.000 A 
ATOM     25  C   UNL     1      10.542  13.144  19.277  0.00  0.00    +0.000 A 
ATOM     26  C   UNL     1      11.102  14.498  19.400  0.00  0.00    +0.000 A 
ATOM     27  C   UNL     1      11.843  15.177  18.284  0.00  0.00    +0.000 C 
ATOM     28  C   UNL     1      10.934  15.153  20.562  0.00  0.00    +0.000 A 
ATOM     29  C   UNL     1      10.223  14.589  21.718  0.00  0.00    +0.000 A 
ATOM     30  O   UNL     1      10.100  15.234  22.758  0.00  0.00    +0.000 OA
ATOM     31  O   UNL     1       9.707  13.312  21.574  0.00  0.00    +0.000 OA
ATOM     32  C   UNL     1       9.857  12.596  20.367  0.00  0.00    +0.000 A 
ATOM     33  C   UNL     1       9.268  11.322  20.341  0.00  0.00    +0.000 A 
ENDBRANCH  21  22
ENDBRANCH  20  21
ENDBRANCH   2  20
TORSDOF 8
ENDMDL
MODEL 5
REMARK VINA RESULT:      -8.2      5.479      8.861
REMARK  Name = 
REMARK  11 active torsions:
REMARK  status: ('A' for Active; 'I' for Inactive)
REMARK    1  A    between atoms: C_1  and  C_2
REMARK    2  A    between atoms: C_2  and  N_3
REMARK    3  A    between atoms: N_3  and  C_4
REMARK    4  A    between atoms: N_3  and  S_6
REMARK    5  A    between atoms: C_4  and  C_5
REMARK    6  A    between atoms: S_6  and  C_9
REMARK    7  A    between atoms: C_14  and  N_15
REMARK    8  A    between atoms: C_16  and  C_18
REMARK    9  A    between atoms: C_18  and  O_19
REMARK   10  A    between atoms: O_19  and  C_20
REMARK   11  A    between atoms: C_24  and  C_25
REMARK                            x       y       z     vdW  Elec       q    Type
REMARK                         _______ _______ _______ _____ _____    ______ ____
ROOT
ATOM      1  N   UNL     1       2.268   5.994  20.804  0.00  0.00    +0.000 N 
ATOM      2  C   UNL     1       1.625   4.758  20.748  0.00  0.00    +0.000 C 
ATOM      3  O   UNL     1       0.711   4.448  19.990  0.00  0.00    +0.000 OA
ATOM      4  H   UNL     1       3.180   5.974  21.248  0.00  0.00    +0.000 HD
ENDROOT
BRANCH   1  10
ATOM      5  C   UNL     1       1.137   9.468  20.089  0.00  0.00    +0.000 A 
ATOM      6  C   UNL     1       1.468   9.646  18.749  0.00  0.00    +0.000 A 
ATOM      7  C   UNL     1       2.002   8.583  18.034  0.00  0.00    +0.000 A 
ATOM      8  C   UNL     1       2.231   7.336  18.645  0.00  0.00    +0.000 A 
ATOM      9 CL   UNL     1       2.593   6.068  17.525  0.00  0.00    +0.000 Cl
ATOM     10  C   UNL     1       1.987   7.159  20.025  0.00  0.00    +0.000 A 
ATOM     11  C   UNL     1       1.381   8.234  20.723  0.00  0.00    +0.000 A 
BRANCH   5  12
ATOM     12  S   UNL     1       0.241  10.771  20.921  0.00  0.00    +0.000 S 
ATOM     13  O   UNL     1       1.240  11.633  21.525  0.00  0.00    +0.000 OA
ATOM     14  O   UNL     1      -0.791  10.150  21.724  0.00  0.00    +0.000 OA
BRANCH  12  15
ATOM     15  N   UNL     1      -0.549  11.656  19.672  0.00  0.00    +0.000 NA
BRANCH  15  17
ATOM     16  C   UNL     1      -1.935  10.464  17.929  0.00  0.00    +0.000 C 
ATOM     17  C   UNL     1      -1.895  11.114  19.305  0.00  0.00    +0.000 C 
ENDBRANCH  15  17
BRANCH  15  18
ATOM     18  C   UNL     1      -0.514  13.142  19.902  0.00  0.00    +0.000 C 
ATOM     19  C   UNL     1      -1.604  13.656  20.832  0.00  0.00    +0.000 C 
ENDBRANCH  15  18
ENDBRANCH  12  15
ENDBRANCH   5  12
ENDBRANCH   1  10
BRANCH   2  20
ATOM     20  C   UNL     1       2.250   3.684  21.641  0.00  0.00    +0.000 C 
BRANCH  20  21
ATOM     21  O   UNL     1       2.825   2.757  20.722  0.00  0.00    +0.000 OA
BRANCH  21  22
ATOM     22  C   UNL     1       3.696   3.213  19.779  0.00  0.00    +0.000 A 
ATOM     23  C   UNL     1       3.515   2.643  18.516  0.00  0.00    +0.000 A 
ATOM     24  C   UNL     1       4.300   3.029  17.422  0.00  0.00    +0.000 A 
ATOM     25  C   UNL     1       5.295   4.001  17.564  0.00  0.00    +0.000 A 
ATOM     26  C   UNL     1       6.150   4.483  16.469  0.00  0.00    +0.000 A 
ATOM     27  C   UNL     1       6.032   3.974  15.060  0.00  0.00    +0.000 C 
ATOM     28  C   UNL     1       7.070   5.423  16.746  0.00  0.00    +0.000 A 
ATOM     29  C   UNL     1       7.271   5.995  18.084  0.00  0.00    +0.000 A 
ATOM     30  O   UNL     1       8.131   6.853  18.280  0.00  0.00    +0.000 OA
ATOM     31  O   UNL     1       6.453   5.523  19.096  0.00  0.00    +0.000 OA
ATOM     32  C   UNL     1       5.470   4.542  18.842  0.00  0.00    +0.000 A 
ATOM     33  C   UNL     1       4.691   4.165  19.948  0.00  0.00    +0.000 A 
ENDBRANCH  21  22
ENDBRANCH  20  21
ENDBRANCH   2  20
TORSDOF 8
ENDMDL
MODEL 6
REMARK VINA RESULT:      -8.2      1.521      1.807
REMARK  Name = 
REMARK  11 active torsions:
REMARK  status: ('A' for Active; 'I' for Inactive)
REMARK    1  A    between atoms: C_1  and  C_2
REMARK    2  A    between atoms: C_2  and  N_3
REMARK    3  A    between atoms: N_3  and  C_4
REMARK    4  A    between atoms: N_3  and  S_6
REMARK    5  A    between atoms: C_4  and  C_5
REMARK    6  A    between atoms: S_6  and  C_9
REMARK    7  A    between atoms: C_14  and  N_15
REMARK    8  A    between atoms: C_16  and  C_18
REMARK    9  A    between atoms: C_18  and  O_19
REMARK   10  A    between atoms: O_19  and  C_20
REMARK   11  A    between atoms: C_24  and  C_25
REMARK                            x       y       z     vdW  Elec       q    Type
REMARK                         _______ _______ _______ _____ _____    ______ ____
ROOT
ATOM      1  N   UNL     1       6.721   7.178  16.897  0.00  0.00    +0.000 N 
ATOM      2  C   UNL     1       7.674   7.611  17.818  0.00  0.00    +0.000 C 
ATOM      3  O   UNL     1       8.239   6.920  18.659  0.00  0.00    +0.000 OA
ATOM      4  H   UNL     1       6.603   7.788  16.096  0.00  0.00    +0.000 HD
ENDROOT
BRANCH   1  10
ATOM      5  C   UNL     1       4.924   4.067  17.872  0.00  0.00    +0.000 A 
ATOM      6  C   UNL     1       4.897   3.326  16.693  0.00  0.00    +0.000 A 
ATOM      7  C   UNL     1       5.549   3.814  15.570  0.00  0.00    +0.000 A 
ATOM      8  C   UNL     1       6.220   5.052  15.596  0.00  0.00    +0.000 A 
ATOM      9 CL   UNL     1       7.226   5.327  14.215  0.00  0.00    +0.000 Cl
ATOM     10  C   UNL     1       6.184   5.861  16.753  0.00  0.00    +0.000 A 
ATOM     11  C   UNL     1       5.570   5.318  17.910  0.00  0.00    +0.000 A 
BRANCH   5  12
ATOM     12  S   UNL     1       4.281   3.315  19.360  0.00  0.00    +0.000 S 
ATOM     13  O   UNL     1       5.168   3.713  20.436  0.00  0.00    +0.000 OA
ATOM     14  O   UNL     1       4.035   1.917  19.074  0.00  0.00    +0.000 OA
BRANCH  12  15
ATOM     15  N   UNL     1       2.748   4.057  19.624  0.00  0.00    +0.000 NA
BRANCH  15  17
ATOM     16  C   UNL     1       1.785   6.161  20.635  0.00  0.00    +0.000 C 
ATOM     17  C   UNL     1       2.801   5.552  19.680  0.00  0.00    +0.000 C 
ENDBRANCH  15  17
BRANCH  15  18
ATOM     18  C   UNL     1       1.672   3.500  18.733  0.00  0.00    +0.000 C 
ATOM     19  C   UNL     1       1.398   4.335  17.490  0.00  0.00    +0.000 C 
ENDBRANCH  15  18
ENDBRANCH  12  15
ENDBRANCH   5  12
ENDBRANCH   1  10
BRANCH   2  20
ATOM     20  C   UNL     1       8.117   9.063  17.626  0.00  0.00    +0.000 C 
BRANCH  20  21
ATOM     21  O   UNL     1       8.905   9.343  18.782  0.00  0.00    +0.000 OA
BRANCH  21  22
ATOM     22  C   UNL     1       9.308  10.624  19.014  0.00  0.00    +0.000 A 
ATOM     23  C   UNL     1       9.265  10.997  20.360  0.00  0.00    +0.000 A 
ATOM     24  C   UNL     1       9.684  12.267  20.778  0.00  0.00    +0.000 A 
ATOM     25  C   UNL     1      10.157  13.204  19.854  0.00  0.00    +0.000 A 
ATOM     26  C   UNL     1      10.636  14.549  20.204  0.00  0.00    +0.000 A 
ATOM     27  C   UNL     1      10.673  15.058  21.617  0.00  0.00    +0.000 C 
ATOM     28  C   UNL     1      11.064  15.351  19.213  0.00  0.00    +0.000 A 
ATOM     29  C   UNL     1      11.077  14.957  17.798  0.00  0.00    +0.000 A 
ATOM     30  O   UNL     1      11.478  15.734  16.931  0.00  0.00    +0.000 OA
ATOM     31  O   UNL     1      10.620  13.685  17.497  0.00  0.00    +0.000 OA
ATOM     32  C   UNL     1      10.170  12.813  18.511  0.00  0.00    +0.000 A 
ATOM     33  C   UNL     1       9.755  11.543  18.077  0.00  0.00    +0.000 A 
ENDBRANCH  21  22
ENDBRANCH  20  21
ENDBRANCH   2  20
TORSDOF 8
ENDMDL
MODEL 7
REMARK VINA RESULT:      -8.2      4.013     10.257
REMARK  Name = 
REMARK  11 active torsions:
REMARK  status: ('A' for Active; 'I' for Inactive)
REMARK    1  A    between atoms: C_1  and  C_2
REMARK    2  A    between atoms: C_2  and  N_3
REMARK    3  A    between atoms: N_3  and  C_4
REMARK    4  A    between atoms: N_3  and  S_6
REMARK    5  A    between atoms: C_4  and  C_5
REMARK    6  A    between atoms: S_6  and  C_9
REMARK    7  A    between atoms: C_14  and  N_15
REMARK    8  A    between atoms: C_16  and  C_18
REMARK    9  A    between atoms: C_18  and  O_19
REMARK   10  A    between atoms: O_19  and  C_20
REMARK   11  A    between atoms: C_24  and  C_25
REMARK                            x       y       z     vdW  Elec       q    Type
REMARK                         _______ _______ _______ _____ _____    ______ ____
ROOT
ATOM      1  N   UNL     1       9.310   9.661  19.456  0.00  0.00    +0.000 N 
ATOM      2  C   UNL     1       8.461   9.334  18.400  0.00  0.00    +0.000 C 
ATOM      3  O   UNL     1       7.876  10.125  17.666  0.00  0.00    +0.000 OA
ATOM      4  H   UNL     1       9.937   8.914  19.738  0.00  0.00    +0.000 HD
ENDROOT
BRANCH   1  10
ATOM      5  C   UNL     1       9.335  12.608  21.730  0.00  0.00    +0.000 A 
ATOM      6  C   UNL     1      10.284  13.451  21.157  0.00  0.00    +0.000 A 
ATOM      7  C   UNL     1      10.876  13.088  19.955  0.00  0.00    +0.000 A 
ATOM      8  C   UNL     1      10.548  11.877  19.317  0.00  0.00    +0.000 A 
ATOM      9 CL   UNL     1      11.143  11.761  17.696  0.00  0.00    +0.000 Cl
ATOM     10  C   UNL     1       9.656  10.966  19.925  0.00  0.00    +0.000 A 
ATOM     11  C   UNL     1       9.012  11.381  21.118  0.00  0.00    +0.000 A 
BRANCH   5  12
ATOM     12  S   UNL     1       8.423  13.200  23.147  0.00  0.00    +0.000 S 
ATOM     13  O   UNL     1       9.081  14.419  23.578  0.00  0.00    +0.000 OA
ATOM     14  O   UNL     1       8.251  12.085  24.055  0.00  0.00    +0.000 OA
BRANCH  12  15
ATOM     15  N   UNL     1       6.861  13.614  22.549  0.00  0.00    +0.000 NA
BRANCH  15  17
ATOM     16  C   UNL     1       5.499  14.272  24.571  0.00  0.00    +0.000 C 
ATOM     17  C   UNL     1       5.742  13.247  23.473  0.00  0.00    +0.000 C 
ENDBRANCH  15  17
BRANCH  15  18
ATOM     18  C   UNL     1       6.797  15.019  22.015  0.00  0.00    +0.000 C 
ATOM     19  C   UNL     1       6.589  15.106  20.510  0.00  0.00    +0.000 C 
ENDBRANCH  15  18
ENDBRANCH  12  15
ENDBRANCH   5  12
ENDBRANCH   1  10
BRANCH   2  20
ATOM     20  C   UNL     1       8.396   7.838  18.085  0.00  0.00    +0.000 C 
BRANCH  20  21
ATOM     21  O   UNL     1       7.243   7.705  17.257  0.00  0.00    +0.000 OA
BRANCH  21  22
ATOM     22  C   UNL     1       6.280   6.805  17.602  0.00  0.00    +0.000 A 
ATOM     23  C   UNL     1       5.027   7.073  17.046  0.00  0.00    +0.000 A 
ATOM     24  C   UNL     1       3.935   6.225  17.267  0.00  0.00    +0.000 A 
ATOM     25  C   UNL     1       4.068   5.078  18.057  0.00  0.00    +0.000 A 
ATOM     26  C   UNL     1       2.984   4.121  18.325  0.00  0.00    +0.000 A 
ATOM     27  C   UNL     1       1.601   4.279  17.759  0.00  0.00    +0.000 C 
ATOM     28  C   UNL     1       3.250   3.060  19.105  0.00  0.00    +0.000 A 
ATOM     29  C   UNL     1       4.565   2.803  19.708  0.00  0.00    +0.000 A 
ATOM     30  O   UNL     1       4.751   1.814  20.416  0.00  0.00    +0.000 OA
ATOM     31  O   UNL     1       5.567   3.720  19.439  0.00  0.00    +0.000 OA
ATOM     32  C   UNL     1       5.327   4.843  18.619  0.00  0.00    +0.000 A 
ATOM     33  C   UNL     1       6.432   5.684  18.406  0.00  0.00    +0.000 A 
ENDBRANCH  21  22
ENDBRANCH  20  21
ENDBRANCH   2  20
TORSDOF 8
ENDMDL
MODEL 8
REMARK VINA RESULT:      -8.1      5.838      8.709
REMARK  Name = 
REMARK  11 active torsions:
REMARK  status: ('A' for Active; 'I' for Inactive)
REMARK    1  A    between atoms: C_1  and  C_2
REMARK    2  A    between atoms: C_2  and  N_3
REMARK    3  A    between atoms: N_3  and  C_4
REMARK    4  A    between atoms: N_3  and  S_6
REMARK    5  A    between atoms: C_4  and  C_5
REMARK    6  A    between atoms: S_6  and  C_9
REMARK    7  A    between atoms: C_14  and  N_15
REMARK    8  A    between atoms: C_16  and  C_18
REMARK    9  A    between atoms: C_18  and  O_19
REMARK   10  A    between atoms: O_19  and  C_20
REMARK   11  A    between atoms: C_24  and  C_25
REMARK                            x       y       z     vdW  Elec       q    Type
REMARK                         _______ _______ _______ _____ _____    ______ ____
ROOT
ATOM      1  N   UNL     1       2.693   5.863  20.281  0.00  0.00    +0.000 N 
ATOM      2  C   UNL     1       2.133   7.125  20.086  0.00  0.00    +0.000 C 
ATOM      3  O   UNL     1       2.179   7.789  19.055  0.00  0.00    +0.000 OA
ATOM      4  H   UNL     1       2.298   5.343  21.056  0.00  0.00    +0.000 HD
ENDROOT
BRANCH   1  10
ATOM      5  C   UNL     1       5.702   4.702  18.421  0.00  0.00    +0.000 A 
ATOM      6  C   UNL     1       5.228   3.620  17.683  0.00  0.00    +0.000 A 
ATOM      7  C   UNL     1       3.877   3.308  17.728  0.00  0.00    +0.000 A 
ATOM      8  C   UNL     1       2.982   4.051  18.521  0.00  0.00    +0.000 A 
ATOM      9 CL   UNL     1       1.317   3.711  18.197  0.00  0.00    +0.000 Cl
ATOM     10  C   UNL     1       3.456   5.094  19.347  0.00  0.00    +0.000 A 
ATOM     11  C   UNL     1       4.826   5.442  19.239  0.00  0.00    +0.000 A 
BRANCH   5  12
ATOM     12  S   UNL     1       7.391   5.226  18.167  0.00  0.00    +0.000 S 
ATOM     13  O   UNL     1       8.100   4.078  17.634  0.00  0.00    +0.000 OA
ATOM     14  O   UNL     1       7.834   5.878  19.381  0.00  0.00    +0.000 OA
BRANCH  12  15
ATOM     15  N   UNL     1       7.319   6.432  16.939  0.00  0.00    +0.000 NA
BRANCH  15  17
ATOM     16  C   UNL     1       7.204   5.033  14.839  0.00  0.00    +0.000 C 
ATOM     17  C   UNL     1       6.505   6.034  15.747  0.00  0.00    +0.000 C 
ENDBRANCH  15  17
BRANCH  15  18
ATOM     18  C   UNL     1       7.006   7.798  17.484  0.00  0.00    +0.000 C 
ATOM     19  C   UNL     1       8.223   8.695  17.658  0.00  0.00    +0.000 C 
ENDBRANCH  15  18
ENDBRANCH  12  15
ENDBRANCH   5  12
ENDBRANCH   1  10
BRANCH   2  20
ATOM     20  C   UNL     1       1.276   7.618  21.254  0.00  0.00    +0.000 C 
BRANCH  20  21
ATOM     21  O   UNL     1       1.657   8.984  21.413  0.00  0.00    +0.000 OA
BRANCH  21  22
ATOM     22  C   UNL     1       0.692   9.916  21.653  0.00  0.00    +0.000 A 
ATOM     23  C   UNL     1      -0.146   9.600  22.725  0.00  0.00    +0.000 A 
ATOM     24  C   UNL     1      -1.167  10.469  23.133  0.00  0.00    +0.000 A 
ATOM     25  C   UNL     1      -1.378  11.684  22.473  0.00  0.00    +0.000 A 
ATOM     26  C   UNL     1      -2.408  12.665  22.845  0.00  0.00    +0.000 A 
ATOM     27  C   UNL     1      -3.349  12.460  23.998  0.00  0.00    +0.000 C 
ATOM     28  C   UNL     1      -2.502  13.794  22.123  0.00  0.00    +0.000 A 
ATOM     29  C   UNL     1      -1.632  14.103  20.979  0.00  0.00    +0.000 A 
ATOM     30  O   UNL     1      -1.764  15.153  20.352  0.00  0.00    +0.000 OA
ATOM     31  O   UNL     1      -0.671  13.161  20.651  0.00  0.00    +0.000 OA
ATOM     32  C   UNL     1      -0.538  11.967  21.391  0.00  0.00    +0.000 A 
ATOM     33  C   UNL     1       0.490  11.106  20.971  0.00  0.00    +0.000 A 
ENDBRANCH  21  22
ENDBRANCH  20  21
ENDBRANCH   2  20
TORSDOF 8
ENDMDL
MODEL 9
REMARK VINA RESULT:      -8.0      6.197      9.206
REMARK  Name = 
REMARK  11 active torsions:
REMARK  status: ('A' for Active; 'I' for Inactive)
REMARK    1  A    between atoms: C_1  and  C_2
REMARK    2  A    between atoms: C_2  and  N_3
REMARK    3  A    between atoms: N_3  and  C_4
REMARK    4  A    between atoms: N_3  and  S_6
REMARK    5  A    between atoms: C_4  and  C_5
REMARK    6  A    between atoms: S_6  and  C_9
REMARK    7  A    between atoms: C_14  and  N_15
REMARK    8  A    between atoms: C_16  and  C_18
REMARK    9  A    between atoms: C_18  and  O_19
REMARK   10  A    between atoms: O_19  and  C_20
REMARK   11  A    between atoms: C_24  and  C_25
REMARK                            x       y       z     vdW  Elec       q    Type
REMARK                         _______ _______ _______ _____ _____    ______ ____
ROOT
ATOM      1  N   UNL     1       2.022   5.956  20.814  0.00  0.00    +0.000 N 
ATOM      2  C   UNL     1       1.736   7.283  20.498  0.00  0.00    +0.000 C 
ATOM      3  O   UNL     1       2.089   7.882  19.486  0.00  0.00    +0.000 OA
ATOM      4  H   UNL     1       1.405   5.547  21.507  0.00  0.00    +0.000 HD
ENDROOT
BRANCH   1  10
ATOM      5  C   UNL     1       5.006   4.591  19.056  0.00  0.00    +0.000 A 
ATOM      6  C   UNL     1       4.607   3.309  18.689  0.00  0.00    +0.000 A 
ATOM      7  C   UNL     1       3.306   2.903  18.950  0.00  0.00    +0.000 A 
ATOM      8  C   UNL     1       2.391   3.757  19.594  0.00  0.00    +0.000 A 
ATOM      9 CL   UNL     1       0.755   3.193  19.539  0.00  0.00    +0.000 Cl
ATOM     10  C   UNL     1       2.800   5.027  20.055  0.00  0.00    +0.000 A 
ATOM     11  C   UNL     1       4.111   5.451  19.722  0.00  0.00    +0.000 A 
BRANCH   5  12
ATOM     12  S   UNL     1       6.604   5.171  18.505  0.00  0.00    +0.000 S 
ATOM     13  O   UNL     1       7.059   4.226  17.503  0.00  0.00    +0.000 OA
ATOM     14  O   UNL     1       7.399   5.449  19.683  0.00  0.00    +0.000 OA
BRANCH  12  15
ATOM     15  N   UNL     1       6.304   6.678  17.726  0.00  0.00    +0.000 NA
BRANCH  15  17
ATOM     16  C   UNL     1       7.945   8.597  17.780  0.00  0.00    +0.000 C 
ATOM     17  C   UNL     1       7.522   7.296  17.114  0.00  0.00    +0.000 C 
ENDBRANCH  15  17
BRANCH  15  18
ATOM     18  C   UNL     1       5.101   6.636  16.824  0.00  0.00    +0.000 C 
ATOM     19  C   UNL     1       5.394   6.130  15.418  0.00  0.00    +0.000 C 
ENDBRANCH  15  18
ENDBRANCH  12  15
ENDBRANCH   5  12
ENDBRANCH   1  10
BRANCH   2  20
ATOM     20  C   UNL     1       0.776   7.968  21.473  0.00  0.00    +0.000 C 
BRANCH  20  21
ATOM     21  O   UNL     1       1.278   9.299  21.580  0.00  0.00    +0.000 OA
BRANCH  21  22
ATOM     22  C   UNL     1       0.399  10.327  21.747  0.00  0.00    +0.000 A 
ATOM     23  C   UNL     1       0.597  11.392  20.865  0.00  0.00    +0.000 A 
ATOM     24  C   UNL     1      -0.244  12.512  20.873  0.00  0.00    +0.000 A 
ATOM     25  C   UNL     1      -1.311  12.598  21.773  0.00  0.00    +0.000 A 
ATOM     26  C   UNL     1      -2.255  13.723  21.839  0.00  0.00    +0.000 A 
ATOM     27  C   UNL     1      -2.170  14.912  20.924  0.00  0.00    +0.000 C 
ATOM     28  C   UNL     1      -3.237  13.678  22.755  0.00  0.00    +0.000 A 
ATOM     29  C   UNL     1      -3.419  12.565  23.698  0.00  0.00    +0.000 A 
ATOM     30  O   UNL     1      -4.336  12.577  24.518  0.00  0.00    +0.000 OA
ATOM     31  O   UNL     1      -2.515  11.519  23.614  0.00  0.00    +0.000 OA
ATOM     32  C   UNL     1      -1.475  11.528  22.659  0.00  0.00    +0.000 A 
ATOM     33  C   UNL     1      -0.641  10.398  22.662  0.00  0.00    +0.000 A 
ENDBRANCH  21  22
ENDBRANCH  20  21
ENDBRANCH   2  20
TORSDOF 8
ENDMDL
