MODEL 1
REMARK VINA RESULT:      -8.2      0.000      0.000
REMARK  Name = 
REMARK  10 active torsions:
REMARK  status: ('A' for Active; 'I' for Inactive)
REMARK    1  A    between atoms: C_1  and  O_2
REMARK    2  A    between atoms: O_2  and  C_3
REMARK    3  A    between atoms: C_3  and  C_5
REMARK    4  A    between atoms: C_5  and  C_6
REMARK    5  A    between atoms: C_6  and  C_7
REMARK    6  A    between atoms: C_10  and  S_11
REMARK    7  A    between atoms: S_11  and  N_14
REMARK    8  A    between atoms: N_14  and  C_15
REMARK    9  A    between atoms: C_21  and  C_22
REMARK   10  A    between atoms: C_22  and  C_24
REMARK                            x       y       z     vdW  Elec       q    Type
REMARK                         _______ _______ _______ _____ _____    ______ ____
ROOT
ATOM      1  N   UNL     1       2.598   7.176  18.792  0.00  0.00    +0.000 N 
ATOM      2  H   UNL     1       1.891   6.641  19.301  0.00  0.00    +0.000 HD
ENDROOT
BRANCH   1   3
ATOM      3  C   UNL     1       3.438   6.435  17.901  0.00  0.00    +0.000 A 
ATOM      4  C   UNL     1       4.467   7.156  17.274  0.00  0.00    +0.000 A 
ATOM      5  C   UNL     1       5.318   6.542  16.353  0.00  0.00    +0.000 A 
ATOM      6  C   UNL     1       5.149   5.197  16.054  0.00  0.00    +0.000 A 
ATOM      7 CL   UNL     1       6.173   4.430  14.906  0.00  0.00    +0.000 Cl
ATOM      8  C   UNL     1       4.141   4.462  16.672  0.00  0.00    +0.000 A 
ATOM      9  C   UNL     1       3.291   5.062  17.621  0.00  0.00    +0.000 A 
BRANCH   9  10
ATOM     10  C   UNL     1       2.185   4.222  18.164  0.00  0.00    +0.000 C 
ATOM     11  O   UNL     1       1.204   3.988  17.466  0.00  0.00    +0.000 OA
BRANCH  10  12
ATOM     12  C   UNL     1       2.290   3.571  19.506  0.00  0.00    +0.000 A 
ATOM     13  C   UNL     1       1.186   3.606  20.360  0.00  0.00    +0.000 A 
ATOM     14  C   UNL     1       1.298   2.996  21.598  0.00  0.00    +0.000 A 
ATOM     15  N   UNL     1       2.415   2.365  22.024  0.00  0.00    +0.000 NA
ATOM     16  C   UNL     1       3.469   2.354  21.184  0.00  0.00    +0.000 A 
ATOM     17  C   UNL     1       3.461   2.941  19.931  0.00  0.00    +0.000 A 
ENDBRANCH  10  12
ENDBRANCH   9  10
ENDBRANCH   1   3
BRANCH   1  18
ATOM     18  S   UNL     1       1.937   8.646  18.300  0.00  0.00    +0.000 S 
ATOM     19  O   UNL     1       0.968   8.332  17.274  0.00  0.00    +0.000 OA
ATOM     20  O   UNL     1       3.024   9.578  18.041  0.00  0.00    +0.000 OA
BRANCH  18  24
ATOM     21  C   UNL     1      -0.367  10.110  21.968  0.00  0.00    +0.000 A 
ATOM     22  C   UNL     1       0.538   9.041  22.072  0.00  0.00    +0.000 A 
ATOM     23  C   UNL     1       1.250   8.596  20.957  0.00  0.00    +0.000 A 
ATOM     24  C   UNL     1       1.040   9.205  19.721  0.00  0.00    +0.000 A 
ATOM     25  C   UNL     1       0.133  10.257  19.592  0.00  0.00    +0.000 A 
ATOM     26  C   UNL     1      -0.581  10.696  20.711  0.00  0.00    +0.000 A 
BRANCH  21  27
ATOM     27  C   UNL     1      -1.073  10.638  23.199  0.00  0.00    +0.000 C 
BRANCH  27  28
ATOM     28  C   UNL     1      -1.474  12.104  23.024  0.00  0.00    +0.000 C 
BRANCH  28  29
ATOM     29  C   UNL     1      -2.966  12.291  22.907  0.00  0.00    +0.000 C 
ATOM     30  O   UNL     1      -3.551  12.800  21.964  0.00  0.00    +0.000 OA
BRANCH  29  32
ATOM     31  C   UNL     1      -4.608  12.605  24.564  0.00  0.00    +0.000 C 
ATOM     32  O   UNL     1      -3.561  11.792  24.030  0.00  0.00    +0.000 OA
ENDBRANCH  29  32
ENDBRANCH  28  29
ENDBRANCH  27  28
ENDBRANCH  21  27
ENDBRANCH  18  24
ENDBRANCH   1  18
TORSDOF 9
ENDMDL
MODEL 2
REMARK VINA RESULT:      -8.1      4.555      7.906
REMARK  Name = 
REMARK  10 active torsions:
REMARK  status: ('A' for Active; 'I' for Inactive)
REMARK    1  A    between atoms: C_1  and  O_2
REMARK    2  A    between atoms: O_2  and  C_3
REMARK    3  A    between atoms: C_3  and  C_5
REMARK    4  A    between atoms: C_5  and  C_6
REMARK    5  A    between atoms: C_6  and  C_7
REMARK    6  A    between atoms: C_10  and  S_11
REMARK    7  A    between atoms: S_11  and  N_14
REMARK    8  A    between atoms: N_14  and  C_15
REMARK    9  A    between atoms: C_21  and  C_22
REMARK   10  A    between atoms: C_22  and  C_24
REMARK                            x       y       z     vdW  Elec       q    Type
REMARK                         _______ _______ _______ _____ _____    ______ ____
ROOT
ATOM      1  N   UNL     1       5.608   5.012  16.950  0.00  0.00    +0.000 N 
ATOM      2  H   UNL     1       5.876   4.761  15.996  0.00  0.00    +0.000 HD
ENDROOT
BRANCH   1   3
ATOM      3  C   UNL     1       4.355   4.501  17.416  0.00  0.00    +0.000 A 
ATOM      4  C   UNL     1       4.235   3.103  17.464  0.00  0.00    +0.000 A 
ATOM      5  C   UNL     1       3.041   2.497  17.861  0.00  0.00    +0.000 A 
ATOM      6  C   UNL     1       1.957   3.286  18.218  0.00  0.00    +0.000 A 
ATOM      7 CL   UNL     1       0.473   2.557  18.688  0.00  0.00    +0.000 Cl
ATOM      8  C   UNL     1       2.059   4.674  18.186  0.00  0.00    +0.000 A 
ATOM      9  C   UNL     1       3.264   5.299  17.811  0.00  0.00    +0.000 A 
BRANCH   9  10
ATOM     10  C   UNL     1       3.253   6.788  17.721  0.00  0.00    +0.000 C 
ATOM     11  O   UNL     1       3.868   7.343  16.816  0.00  0.00    +0.000 OA
BRANCH  10  12
ATOM     12  C   UNL     1       2.424   7.617  18.648  0.00  0.00    +0.000 A 
ATOM     13  C   UNL     1       1.844   8.792  18.166  0.00  0.00    +0.000 A 
ATOM     14  C   UNL     1       1.076   9.547  19.035  0.00  0.00    +0.000 A 
ATOM     15  N   UNL     1       0.853   9.208  20.324  0.00  0.00    +0.000 NA
ATOM     16  C   UNL     1       1.432   8.074  20.768  0.00  0.00    +0.000 A 
ATOM     17  C   UNL     1       2.222   7.255  19.981  0.00  0.00    +0.000 A 
ENDBRANCH  10  12
ENDBRANCH   9  10
ENDBRANCH   1   3
BRANCH   1  18
ATOM     18  S   UNL     1       6.967   4.949  17.945  0.00  0.00    +0.000 S 
ATOM     19  O   UNL     1       7.976   4.223  17.207  0.00  0.00    +0.000 OA
ATOM     20  O   UNL     1       6.550   4.513  19.269  0.00  0.00    +0.000 OA
BRANCH  18  24
ATOM     21  C   UNL     1       8.347   9.302  18.186  0.00  0.00    +0.000 A 
ATOM     22  C   UNL     1       8.835   8.345  19.093  0.00  0.00    +0.000 A 
ATOM     23  C   UNL     1       8.423   7.014  19.018  0.00  0.00    +0.000 A 
ATOM     24  C   UNL     1       7.497   6.635  18.047  0.00  0.00    +0.000 A 
ATOM     25  C   UNL     1       6.987   7.573  17.148  0.00  0.00    +0.000 A 
ATOM     26  C   UNL     1       7.399   8.906  17.231  0.00  0.00    +0.000 A 
BRANCH  21  27
ATOM     27  C   UNL     1       8.862  10.725  18.225  0.00  0.00    +0.000 C 
BRANCH  27  28
ATOM     28  C   UNL     1       9.985  10.881  19.251  0.00  0.00    +0.000 C 
BRANCH  28  29
ATOM     29  C   UNL     1       9.889  12.168  20.033  0.00  0.00    +0.000 C 
ATOM     30  O   UNL     1       9.814  13.290  19.556  0.00  0.00    +0.000 OA
BRANCH  29  32
ATOM     31  C   UNL     1       8.828  12.467  22.112  0.00  0.00    +0.000 C 
ATOM     32  O   UNL     1       9.893  11.875  21.366  0.00  0.00    +0.000 OA
ENDBRANCH  29  32
ENDBRANCH  28  29
ENDBRANCH  27  28
ENDBRANCH  21  27
ENDBRANCH  18  24
ENDBRANCH   1  18
TORSDOF 9
ENDMDL
MODEL 3
REMARK VINA RESULT:      -8.1      0.664      1.156
REMARK  Name = 
REMARK  10 active torsions:
REMARK  status: ('A' for Active; 'I' for Inactive)
REMARK    1  A    between atoms: C_1  and  O_2
REMARK    2  A    between atoms: O_2  and  C_3
REMARK    3  A    between atoms: C_3  and  C_5
REMARK    4  A    between atoms: C_5  and  C_6
REMARK    5  A    between atoms: C_6  and  C_7
REMARK    6  A    between atoms: C_10  and  S_11
REMARK    7  A    between atoms: S_11  and  N_14
REMARK    8  A    between atoms: N_14  and  C_15
REMARK    9  A    between atoms: C_21  and  C_22
REMARK   10  A    between atoms: C_22  and  C_24
REMARK                            x       y       z     vdW  Elec       q    Type
REMARK                         _______ _______ _______ _____ _____    ______ ____
ROOT
ATOM      1  N   UNL     1       3.039   7.188  18.740  0.00  0.00    +0.000 N 
ATOM      2  H   UNL     1       2.562   6.740  19.526  0.00  0.00    +0.000 HD
ENDROOT
BRANCH   1   3
ATOM      3  C   UNL     1       3.762   6.322  17.858  0.00  0.00    +0.000 A 
ATOM      4  C   UNL     1       4.888   6.878  17.229  0.00  0.00    +0.000 A 
ATOM      5  C   UNL     1       5.640   6.137  16.315  0.00  0.00    +0.000 A 
ATOM      6  C   UNL     1       5.274   4.829  16.027  0.00  0.00    +0.000 A 
ATOM      7 CL   UNL     1       6.176   3.910  14.888  0.00  0.00    +0.000 Cl
ATOM      8  C   UNL     1       4.167   4.257  16.647  0.00  0.00    +0.000 A 
ATOM      9  C   UNL     1       3.414   4.984  17.589  0.00  0.00    +0.000 A 
BRANCH   9  10
ATOM     10  C   UNL     1       2.194   4.322  18.136  0.00  0.00    +0.000 C 
ATOM     11  O   UNL     1       1.176   4.271  17.454  0.00  0.00    +0.000 OA
BRANCH  10  12
ATOM     12  C   UNL     1       2.215   3.625  19.458  0.00  0.00    +0.000 A 
ATOM     13  C   UNL     1       1.051   3.606  20.229  0.00  0.00    +0.000 A 
ATOM     14  C   UNL     1       1.085   2.954  21.449  0.00  0.00    +0.000 A 
ATOM     15  N   UNL     1       2.182   2.330  21.934  0.00  0.00    +0.000 NA
ATOM     16  C   UNL     1       3.295   2.371  21.176  0.00  0.00    +0.000 A 
ATOM     17  C   UNL     1       3.365   3.003  19.947  0.00  0.00    +0.000 A 
ENDBRANCH  10  12
ENDBRANCH   9  10
ENDBRANCH   1   3
BRANCH   1  18
ATOM     18  S   UNL     1       2.056   8.403  18.111  0.00  0.00    +0.000 S 
ATOM     19  O   UNL     1       1.044   7.738  17.322  0.00  0.00    +0.000 OA
ATOM     20  O   UNL     1       2.907   9.428  17.526  0.00  0.00    +0.000 OA
BRANCH  18  24
ATOM     21  C   UNL     1      -0.031  10.136  21.792  0.00  0.00    +0.000 A 
ATOM     22  C   UNL     1       0.029  10.867  20.594  0.00  0.00    +0.000 A 
ATOM     23  C   UNL     1       0.657  10.339  19.465  0.00  0.00    +0.000 A 
ATOM     24  C   UNL     1       1.254   9.081  19.537  0.00  0.00    +0.000 A 
ATOM     25  C   UNL     1       1.222   8.346  20.723  0.00  0.00    +0.000 A 
ATOM     26  C   UNL     1       0.595   8.882  21.852  0.00  0.00    +0.000 A 
BRANCH  21  27
ATOM     27  C   UNL     1      -0.785  10.684  22.985  0.00  0.00    +0.000 C 
BRANCH  27  28
ATOM     28  C   UNL     1      -1.193  12.141  22.762  0.00  0.00    +0.000 C 
BRANCH  28  29
ATOM     29  C   UNL     1      -2.496  12.493  23.439  0.00  0.00    +0.000 C 
ATOM     30  O   UNL     1      -3.354  11.701  23.794  0.00  0.00    +0.000 OA
BRANCH  29  32
ATOM     31  C   UNL     1      -3.355  14.287  24.697  0.00  0.00    +0.000 C 
ATOM     32  O   UNL     1      -2.558  13.848  23.595  0.00  0.00    +0.000 OA
ENDBRANCH  29  32
ENDBRANCH  28  29
ENDBRANCH  27  28
ENDBRANCH  21  27
ENDBRANCH  18  24
ENDBRANCH   1  18
TORSDOF 9
ENDMDL
MODEL 4
REMARK VINA RESULT:      -8.0      0.461      1.259
REMARK  Name = 
REMARK  10 active torsions:
REMARK  status: ('A' for Active; 'I' for Inactive)
REMARK    1  A    between atoms: C_1  and  O_2
REMARK    2  A    between atoms: O_2  and  C_3
REMARK    3  A    between atoms: C_3  and  C_5
REMARK    4  A    between atoms: C_5  and  C_6
REMARK    5  A    between atoms: C_6  and  C_7
REMARK    6  A    between atoms: C_10  and  S_11
REMARK    7  A    between atoms: S_11  and  N_14
REMARK    8  A    between atoms: N_14  and  C_15
REMARK    9  A    between atoms: C_21  and  C_22
REMARK   10  A    between atoms: C_22  and  C_24
REMARK                            x       y       z     vdW  Elec       q    Type
REMARK                         _______ _______ _______ _____ _____    ______ ____
ROOT
ATOM      1  N   UNL     1       2.980   7.311  18.789  0.00  0.00    +0.000 N 
ATOM      2  H   UNL     1       2.513   6.847  19.570  0.00  0.00    +0.000 HD
ENDROOT
BRANCH   1   3
ATOM      3  C   UNL     1       3.718   6.468  17.897  0.00  0.00    +0.000 A 
ATOM      4  C   UNL     1       4.840   7.046  17.283  0.00  0.00    +0.000 A 
ATOM      5  C   UNL     1       5.606   6.328  16.362  0.00  0.00    +0.000 A 
ATOM      6  C   UNL     1       5.256   5.020  16.051  0.00  0.00    +0.000 A 
ATOM      7 CL   UNL     1       6.174   4.129  14.902  0.00  0.00    +0.000 Cl
ATOM      8  C   UNL     1       4.153   4.426  16.656  0.00  0.00    +0.000 A 
ATOM      9  C   UNL     1       3.386   5.130  17.605  0.00  0.00    +0.000 A 
BRANCH   9  10
ATOM     10  C   UNL     1       2.171   4.445  18.134  0.00  0.00    +0.000 C 
ATOM     11  O   UNL     1       1.161   4.383  17.440  0.00  0.00    +0.000 OA
BRANCH  10  12
ATOM     12  C   UNL     1       2.189   3.742  19.453  0.00  0.00    +0.000 A 
ATOM     13  C   UNL     1       3.372   3.133  19.876  0.00  0.00    +0.000 A 
ATOM     14  C   UNL     1       3.373   2.488  21.101  0.00  0.00    +0.000 A 
ATOM     15  N   UNL     1       2.294   2.419  21.913  0.00  0.00    +0.000 NA
ATOM     16  C   UNL     1       1.162   3.006  21.476  0.00  0.00    +0.000 A 
ATOM     17  C   UNL     1       1.056   3.668  20.266  0.00  0.00    +0.000 A 
ENDBRANCH  10  12
ENDBRANCH   9  10
ENDBRANCH   1   3
BRANCH   1  18
ATOM     18  S   UNL     1       1.975   8.515  18.173  0.00  0.00    +0.000 S 
ATOM     19  O   UNL     1       0.972   7.839  17.380  0.00  0.00    +0.000 OA
ATOM     20  O   UNL     1       2.806   9.560  17.595  0.00  0.00    +0.000 OA
BRANCH  18  24
ATOM     21  C   UNL     1      -0.136  10.181  21.871  0.00  0.00    +0.000 A 
ATOM     22  C   UNL     1       0.177  11.019  20.787  0.00  0.00    +0.000 A 
ATOM     23  C   UNL     1       0.813  10.514  19.653  0.00  0.00    +0.000 A 
ATOM     24  C   UNL     1       1.165   9.166  19.607  0.00  0.00    +0.000 A 
ATOM     25  C   UNL     1       0.879   8.319  20.679  0.00  0.00    +0.000 A 
ATOM     26  C   UNL     1       0.246   8.833  21.815  0.00  0.00    +0.000 A 
BRANCH  21  27
ATOM     27  C   UNL     1      -0.899  10.723  23.061  0.00  0.00    +0.000 C 
BRANCH  27  28
ATOM     28  C   UNL     1      -1.158  12.224  22.918  0.00  0.00    +0.000 C 
BRANCH  28  29
ATOM     29  C   UNL     1      -2.618  12.548  22.718  0.00  0.00    +0.000 C 
ATOM     30  O   UNL     1      -3.273  12.306  21.716  0.00  0.00    +0.000 OA
BRANCH  29  32
ATOM     31  C   UNL     1      -4.135  12.439  24.514  0.00  0.00    +0.000 C 
ATOM     32  O   UNL     1      -3.093  13.153  23.845  0.00  0.00    +0.000 OA
ENDBRANCH  29  32
ENDBRANCH  28  29
ENDBRANCH  27  28
ENDBRANCH  21  27
ENDBRANCH  18  24
ENDBRANCH   1  18
TORSDOF 9
ENDMDL
MODEL 5
REMARK VINA RESULT:      -8.0      4.030      9.456
REMARK  Name = 
REMARK  10 active torsions:
REMARK  status: ('A' for Active; 'I' for Inactive)
REMARK    1  A    between atoms: C_1  and  O_2
REMARK    2  A    between atoms: O_2  and  C_3
REMARK    3  A    between atoms: C_3  and  C_5
REMARK    4  A    between atoms: C_5  and  C_6
REMARK    5  A    between atoms: C_6  and  C_7
REMARK    6  A    between atoms: C_10  and  S_11
REMARK    7  A    between atoms: S_11  and  N_14
REMARK    8  A    between atoms: N_14  and  C_15
REMARK    9  A    between atoms: C_21  and  C_22
REMARK   10  A    between atoms: C_22  and  C_24
REMARK                            x       y       z     vdW  Elec       q    Type
REMARK                         _______ _______ _______ _____ _____    ______ ____
ROOT
ATOM      1  N   UNL     1       0.793  10.311  20.241  0.00  0.00    +0.000 N 
ATOM      2  H   UNL     1       1.581  10.309  19.589  0.00  0.00    +0.000 HD
ENDROOT
BRANCH   1   3
ATOM      3  C   UNL     1      -0.473  10.714  19.708  0.00  0.00    +0.000 A 
ATOM      4  C   UNL     1      -0.837  10.145  18.476  0.00  0.00    +0.000 A 
ATOM      5  C   UNL     1      -2.030  10.501  17.845  0.00  0.00    +0.000 A 
ATOM      6  C   UNL     1      -2.873  11.428  18.443  0.00  0.00    +0.000 A 
ATOM      7 CL   UNL     1      -4.335  11.894  17.669  0.00  0.00    +0.000 Cl
ATOM      8  C   UNL     1      -2.535  11.996  19.668  0.00  0.00    +0.000 A 
ATOM      9  C   UNL     1      -1.346  11.628  20.329  0.00  0.00    +0.000 A 
BRANCH   9  10
ATOM     10  C   UNL     1      -1.023  12.353  21.591  0.00  0.00    +0.000 C 
ATOM     11  O   UNL     1       0.146  12.613  21.857  0.00  0.00    +0.000 OA
BRANCH  10  12
ATOM     12  C   UNL     1      -2.101  12.862  22.493  0.00  0.00    +0.000 A 
ATOM     13  C   UNL     1      -2.416  14.223  22.466  0.00  0.00    +0.000 A 
ATOM     14  C   UNL     1      -3.419  14.678  23.304  0.00  0.00    +0.000 A 
ATOM     15  N   UNL     1      -4.114  13.879  24.143  0.00  0.00    +0.000 NA
ATOM     16  C   UNL     1      -3.784  12.572  24.158  0.00  0.00    +0.000 A 
ATOM     17  C   UNL     1      -2.793  12.020  23.365  0.00  0.00    +0.000 A 
ENDBRANCH  10  12
ENDBRANCH   9  10
ENDBRANCH   1   3
BRANCH   1  18
ATOM     18  S   UNL     1       0.895   8.960  21.243  0.00  0.00    +0.000 S 
ATOM     19  O   UNL     1      -0.464   8.532  21.485  0.00  0.00    +0.000 OA
ATOM     20  O   UNL     1       1.789   9.271  22.348  0.00  0.00    +0.000 OA
BRANCH  18  24
ATOM     21  C   UNL     1       2.860   5.793  18.595  0.00  0.00    +0.000 A 
ATOM     22  C   UNL     1       2.355   5.453  19.861  0.00  0.00    +0.000 A 
ATOM     23  C   UNL     1       1.747   6.414  20.670  0.00  0.00    +0.000 A 
ATOM     24  C   UNL     1       1.663   7.733  20.224  0.00  0.00    +0.000 A 
ATOM     25  C   UNL     1       2.174   8.095  18.977  0.00  0.00    +0.000 A 
ATOM     26  C   UNL     1       2.786   7.128  18.173  0.00  0.00    +0.000 A 
BRANCH  21  27
ATOM     27  C   UNL     1       3.444   4.726  17.693  0.00  0.00    +0.000 C 
BRANCH  27  28
ATOM     28  C   UNL     1       4.685   4.088  18.320  0.00  0.00    +0.000 C 
BRANCH  28  29
ATOM     29  C   UNL     1       5.777   5.090  18.603  0.00  0.00    +0.000 C 
ATOM     30  O   UNL     1       6.222   5.371  19.704  0.00  0.00    +0.000 OA
BRANCH  29  32
ATOM     31  C   UNL     1       7.293   6.538  17.533  0.00  0.00    +0.000 C 
ATOM     32  O   UNL     1       6.194   5.632  17.421  0.00  0.00    +0.000 OA
ENDBRANCH  29  32
ENDBRANCH  28  29
ENDBRANCH  27  28
ENDBRANCH  21  27
ENDBRANCH  18  24
ENDBRANCH   1  18
TORSDOF 9
ENDMDL
MODEL 6
REMARK VINA RESULT:      -8.0      1.029      1.197
REMARK  Name = 
REMARK  10 active torsions:
REMARK  status: ('A' for Active; 'I' for Inactive)
REMARK    1  A    between atoms: C_1  and  O_2
REMARK    2  A    between atoms: O_2  and  C_3
REMARK    3  A    between atoms: C_3  and  C_5
REMARK    4  A    between atoms: C_5  and  C_6
REMARK    5  A    between atoms: C_6  and  C_7
REMARK    6  A    between atoms: C_10  and  S_11
REMARK    7  A    between atoms: S_11  and  N_14
REMARK    8  A    between atoms: N_14  and  C_15
REMARK    9  A    between atoms: C_21  and  C_22
REMARK   10  A    between atoms: C_22  and  C_24
REMARK                            x       y       z     vdW  Elec       q    Type
REMARK                         _______ _______ _______ _____ _____    ______ ____
ROOT
ATOM      1  N   UNL     1       3.123   7.205  18.709  0.00  0.00    +0.000 N 
ATOM      2  H   UNL     1       2.692   6.759  19.522  0.00  0.00    +0.000 HD
ENDROOT
BRANCH   1   3
ATOM      3  C   UNL     1       3.823   6.343  17.806  0.00  0.00    +0.000 A 
ATOM      4  C   UNL     1       4.920   6.908  17.134  0.00  0.00    +0.000 A 
ATOM      5  C   UNL     1       5.647   6.170  16.198  0.00  0.00    +0.000 A 
ATOM      6  C   UNL     1       5.286   4.857  15.930  0.00  0.00    +0.000 A 
ATOM      7 CL   UNL     1       6.156   3.941  14.764  0.00  0.00    +0.000 Cl
ATOM      8  C   UNL     1       4.208   4.275  16.592  0.00  0.00    +0.000 A 
ATOM      9  C   UNL     1       3.480   5.000  17.556  0.00  0.00    +0.000 A 
BRANCH   9  10
ATOM     10  C   UNL     1       2.289   4.327  18.149  0.00  0.00    +0.000 C 
ATOM     11  O   UNL     1       1.257   4.234  17.492  0.00  0.00    +0.000 OA
BRANCH  10  12
ATOM     12  C   UNL     1       2.355   3.670  19.490  0.00  0.00    +0.000 A 
ATOM     13  C   UNL     1       1.292   3.843  20.379  0.00  0.00    +0.000 A 
ATOM     14  C   UNL     1       1.366   3.226  21.616  0.00  0.00    +0.000 A 
ATOM     15  N   UNL     1       2.408   2.460  22.009  0.00  0.00    +0.000 NA
ATOM     16  C   UNL     1       3.426   2.317  21.137  0.00  0.00    +0.000 A 
ATOM     17  C   UNL     1       3.450   2.898  19.882  0.00  0.00    +0.000 A 
ENDBRANCH  10  12
ENDBRANCH   9  10
ENDBRANCH   1   3
BRANCH   1  18
ATOM     18  S   UNL     1       2.086   8.391  18.110  0.00  0.00    +0.000 S 
ATOM     19  O   UNL     1       1.100   7.701  17.309  0.00  0.00    +0.000 OA
ATOM     20  O   UNL     1       2.890   9.464  17.545  0.00  0.00    +0.000 OA
BRANCH  18  24
ATOM     21  C   UNL     1      -0.029   9.991  21.834  0.00  0.00    +0.000 A 
ATOM     22  C   UNL     1       0.792   8.854  21.912  0.00  0.00    +0.000 A 
ATOM     23  C   UNL     1       1.447   8.367  20.779  0.00  0.00    +0.000 A 
ATOM     24  C   UNL     1       1.262   9.003  19.553  0.00  0.00    +0.000 A 
ATOM     25  C   UNL     1       0.437  10.124  19.450  0.00  0.00    +0.000 A 
ATOM     26  C   UNL     1      -0.220  10.604  20.587  0.00  0.00    +0.000 A 
BRANCH  21  27
ATOM     27  C   UNL     1      -0.669  10.559  23.084  0.00  0.00    +0.000 C 
BRANCH  27  28
ATOM     28  C   UNL     1      -1.818  11.507  22.737  0.00  0.00    +0.000 C 
BRANCH  28  29
ATOM     29  C   UNL     1      -1.407  12.959  22.767  0.00  0.00    +0.000 C 
ATOM     30  O   UNL     1      -0.766  13.502  23.653  0.00  0.00    +0.000 OA
BRANCH  29  32
ATOM     31  C   UNL     1      -3.070  13.017  21.103  0.00  0.00    +0.000 C 
ATOM     32  O   UNL     1      -1.864  13.569  21.635  0.00  0.00    +0.000 OA
ENDBRANCH  29  32
ENDBRANCH  28  29
ENDBRANCH  27  28
ENDBRANCH  21  27
ENDBRANCH  18  24
ENDBRANCH   1  18
TORSDOF 9
ENDMDL
MODEL 7
REMARK VINA RESULT:      -7.9      4.732      8.432
REMARK  Name = 
REMARK  10 active torsions:
REMARK  status: ('A' for Active; 'I' for Inactive)
REMARK    1  A    between atoms: C_1  and  O_2
REMARK    2  A    between atoms: O_2  and  C_3
REMARK    3  A    between atoms: C_3  and  C_5
REMARK    4  A    between atoms: C_5  and  C_6
REMARK    5  A    between atoms: C_6  and  C_7
REMARK    6  A    between atoms: C_10  and  S_11
REMARK    7  A    between atoms: S_11  and  N_14
REMARK    8  A    between atoms: N_14  and  C_15
REMARK    9  A    between atoms: C_21  and  C_22
REMARK   10  A    between atoms: C_22  and  C_24
REMARK                            x       y       z     vdW  Elec       q    Type
REMARK                         _______ _______ _______ _____ _____    ______ ____
ROOT
ATOM      1  N   UNL     1       5.685   5.131  19.312  0.00  0.00    +0.000 N 
ATOM      2  H   UNL     1       5.666   6.038  19.783  0.00  0.00    +0.000 HD
ENDROOT
BRANCH   1   3
ATOM      3  C   UNL     1       4.422   4.483  19.126  0.00  0.00    +0.000 A 
ATOM      4  C   UNL     1       4.385   3.106  19.395  0.00  0.00    +0.000 A 
ATOM      5  C   UNL     1       3.216   2.367  19.204  0.00  0.00    +0.000 A 
ATOM      6  C   UNL     1       2.070   3.003  18.747  0.00  0.00    +0.000 A 
ATOM      7 CL   UNL     1       0.628   2.104  18.485  0.00  0.00    +0.000 Cl
ATOM      8  C   UNL     1       2.083   4.369  18.482  0.00  0.00    +0.000 A 
ATOM      9  C   UNL     1       3.248   5.132  18.693  0.00  0.00    +0.000 A 
BRANCH   9  10
ATOM     10  C   UNL     1       3.196   6.569  18.300  0.00  0.00    +0.000 C 
ATOM     11  O   UNL     1       3.801   6.946  17.301  0.00  0.00    +0.000 OA
BRANCH  10  12
ATOM     12  C   UNL     1       2.337   7.546  19.036  0.00  0.00    +0.000 A 
ATOM     13  C   UNL     1       1.869   8.676  18.362  0.00  0.00    +0.000 A 
ATOM     14  C   UNL     1       1.072   9.569  19.057  0.00  0.00    +0.000 A 
ATOM     15  N   UNL     1       0.716   9.405  20.350  0.00  0.00    +0.000 NA
ATOM     16  C   UNL     1       1.188   8.312  20.981  0.00  0.00    +0.000 A 
ATOM     17  C   UNL     1       1.997   7.365  20.378  0.00  0.00    +0.000 A 
ENDBRANCH  10  12
ENDBRANCH   9  10
ENDBRANCH   1   3
BRANCH   1  18
ATOM     18  S   UNL     1       6.802   5.181  18.051  0.00  0.00    +0.000 S 
ATOM     19  O   UNL     1       6.039   5.054  16.829  0.00  0.00    +0.000 OA
ATOM     20  O   UNL     1       7.884   4.258  18.356  0.00  0.00    +0.000 OA
BRANCH  18  24
ATOM     21  C   UNL     1       8.446   9.445  18.180  0.00  0.00    +0.000 A 
ATOM     22  C   UNL     1       8.924   8.467  19.068  0.00  0.00    +0.000 A 
ATOM     23  C   UNL     1       8.432   7.162  19.027  0.00  0.00    +0.000 A 
ATOM     24  C   UNL     1       7.435   6.833  18.110  0.00  0.00    +0.000 A 
ATOM     25  C   UNL     1       6.933   7.794  17.230  0.00  0.00    +0.000 A 
ATOM     26  C   UNL     1       7.427   9.101  17.280  0.00  0.00    +0.000 A 
BRANCH  21  27
ATOM     27  C   UNL     1       9.044  10.836  18.179  0.00  0.00    +0.000 C 
BRANCH  27  28
ATOM     28  C   UNL     1       9.911  11.068  19.419  0.00  0.00    +0.000 C 
BRANCH  28  29
ATOM     29  C   UNL     1      10.822  12.263  19.279  0.00  0.00    +0.000 C 
ATOM     30  O   UNL     1      10.695  13.330  19.857  0.00  0.00    +0.000 OA
BRANCH  29  32
ATOM     31  C   UNL     1      12.002  12.897  17.344  0.00  0.00    +0.000 C 
ATOM     32  O   UNL     1      11.821  11.953  18.402  0.00  0.00    +0.000 OA
ENDBRANCH  29  32
ENDBRANCH  28  29
ENDBRANCH  27  28
ENDBRANCH  21  27
ENDBRANCH  18  24
ENDBRANCH   1  18
TORSDOF 9
ENDMDL
MODEL 8
REMARK VINA RESULT:      -7.9      3.983      9.602
REMARK  Name = 
REMARK  10 active torsions:
REMARK  status: ('A' for Active; 'I' for Inactive)
REMARK    1  A    between atoms: C_1  and  O_2
REMARK    2  A    between atoms: O_2  and  C_3
REMARK    3  A    between atoms: C_3  and  C_5
REMARK    4  A    between atoms: C_5  and  C_6
REMARK    5  A    between atoms: C_6  and  C_7
REMARK    6  A    between atoms: C_10  and  S_11
REMARK    7  A    between atoms: S_11  and  N_14
REMARK    8  A    between atoms: N_14  and  C_15
REMARK    9  A    between atoms: C_21  and  C_22
REMARK   10  A    between atoms: C_22  and  C_24
REMARK                            x       y       z     vdW  Elec       q    Type
REMARK                         _______ _______ _______ _____ _____    ______ ____
ROOT
ATOM      1  N   UNL     1       0.887  10.252  20.138  0.00  0.00    +0.000 N 
ATOM      2  H   UNL     1       1.668  10.238  19.480  0.00  0.00    +0.000 HD
ENDROOT
BRANCH   1   3
ATOM      3  C   UNL     1      -0.381  10.658  19.612  0.00  0.00    +0.000 A 
ATOM      4  C   UNL     1      -0.743  10.109  18.371  0.00  0.00    +0.000 A 
ATOM      5  C   UNL     1      -1.937  10.470  17.746  0.00  0.00    +0.000 A 
ATOM      6  C   UNL     1      -2.785  11.382  18.360  0.00  0.00    +0.000 A 
ATOM      7 CL   UNL     1      -4.249  11.854  17.592  0.00  0.00    +0.000 Cl
ATOM      8  C   UNL     1      -2.450  11.931  19.594  0.00  0.00    +0.000 A 
ATOM      9  C   UNL     1      -1.259  11.558  20.248  0.00  0.00    +0.000 A 
BRANCH   9  10
ATOM     10  C   UNL     1      -0.940  12.263  21.523  0.00  0.00    +0.000 C 
ATOM     11  O   UNL     1       0.232  12.460  21.827  0.00  0.00    +0.000 OA
BRANCH  10  12
ATOM     12  C   UNL     1      -2.018  12.828  22.390  0.00  0.00    +0.000 A 
ATOM     13  C   UNL     1      -2.697  11.975  23.263  0.00  0.00    +0.000 A 
ATOM     14  C   UNL     1      -3.690  12.514  24.063  0.00  0.00    +0.000 A 
ATOM     15  N   UNL     1      -4.037  13.820  24.048  0.00  0.00    +0.000 NA
ATOM     16  C   UNL     1      -3.374  14.620  23.189  0.00  0.00    +0.000 A 
ATOM     17  C   UNL     1      -2.371  14.178  22.345  0.00  0.00    +0.000 A 
ENDBRANCH  10  12
ENDBRANCH   9  10
ENDBRANCH   1   3
BRANCH   1  18
ATOM     18  S   UNL     1       0.988   8.912  21.154  0.00  0.00    +0.000 S 
ATOM     19  O   UNL     1      -0.372   8.498  21.415  0.00  0.00    +0.000 OA
ATOM     20  O   UNL     1       1.896   9.227  22.246  0.00  0.00    +0.000 OA
BRANCH  18  24
ATOM     21  C   UNL     1       2.898   5.700  18.520  0.00  0.00    +0.000 A 
ATOM     22  C   UNL     1       2.344   5.365  19.766  0.00  0.00    +0.000 A 
ATOM     23  C   UNL     1       1.752   6.341  20.570  0.00  0.00    +0.000 A 
ATOM     24  C   UNL     1       1.734   7.667  20.141  0.00  0.00    +0.000 A 
ATOM     25  C   UNL     1       2.295   8.024  18.913  0.00  0.00    +0.000 A 
ATOM     26  C   UNL     1       2.891   7.043  18.114  0.00  0.00    +0.000 A 
BRANCH  21  27
ATOM     27  C   UNL     1       3.465   4.622  17.620  0.00  0.00    +0.000 C 
BRANCH  27  28
ATOM     28  C   UNL     1       4.986   4.533  17.751  0.00  0.00    +0.000 C 
BRANCH  28  29
ATOM     29  C   UNL     1       5.705   4.911  16.479  0.00  0.00    +0.000 C 
ATOM     30  O   UNL     1       5.215   5.500  15.529  0.00  0.00    +0.000 OA
BRANCH  29  32
ATOM     31  C   UNL     1       7.602   4.666  17.850  0.00  0.00    +0.000 C 
ATOM     32  O   UNL     1       7.001   4.491  16.566  0.00  0.00    +0.000 OA
ENDBRANCH  29  32
ENDBRANCH  28  29
ENDBRANCH  27  28
ENDBRANCH  21  27
ENDBRANCH  18  24
ENDBRANCH   1  18
TORSDOF 9
ENDMDL
MODEL 9
REMARK VINA RESULT:      -7.9      4.229      9.813
REMARK  Name = 
REMARK  10 active torsions:
REMARK  status: ('A' for Active; 'I' for Inactive)
REMARK    1  A    between atoms: C_1  and  O_2
REMARK    2  A    between atoms: O_2  and  C_3
REMARK    3  A    between atoms: C_3  and  C_5
REMARK    4  A    between atoms: C_5  and  C_6
REMARK    5  A    between atoms: C_6  and  C_7
REMARK    6  A    between atoms: C_10  and  S_11
REMARK    7  A    between atoms: S_11  and  N_14
REMARK    8  A    between atoms: N_14  and  C_15
REMARK    9  A    between atoms: C_21  and  C_22
REMARK   10  A    between atoms: C_22  and  C_24
REMARK                            x       y       z     vdW  Elec       q    Type
REMARK                         _______ _______ _______ _____ _____    ______ ____
ROOT
ATOM      1  N   UNL     1      -0.190  11.374  19.144  0.00  0.00    +0.000 N 
ATOM      2  H   UNL     1       0.427  11.257  18.338  0.00  0.00    +0.000 HD
ENDROOT
BRANCH   1   3
ATOM      3  C   UNL     1      -1.597  11.354  18.876  0.00  0.00    +0.000 A 
ATOM      4  C   UNL     1      -2.023  10.477  17.865  0.00  0.00    +0.000 A 
ATOM      5  C   UNL     1      -3.367  10.409  17.492  0.00  0.00    +0.000 A 
ATOM      6  C   UNL     1      -4.298  11.215  18.132  0.00  0.00    +0.000 A 
ATOM      7 CL   UNL     1      -5.953  11.160  17.670  0.00  0.00    +0.000 Cl
ATOM      8  C   UNL     1      -3.897  12.084  19.143  0.00  0.00    +0.000 A 
ATOM      9  C   UNL     1      -2.549  12.146  19.547  0.00  0.00    +0.000 A 
BRANCH   9  10
ATOM     10  C   UNL     1      -2.198  13.167  20.575  0.00  0.00    +0.000 C 
ATOM     11  O   UNL     1      -1.314  13.985  20.337  0.00  0.00    +0.000 OA
BRANCH  10  12
ATOM     12  C   UNL     1      -2.969  13.284  21.850  0.00  0.00    +0.000 A 
ATOM     13  C   UNL     1      -3.778  14.404  22.048  0.00  0.00    +0.000 A 
ATOM     14  C   UNL     1      -4.489  14.496  23.233  0.00  0.00    +0.000 A 
ATOM     15  N   UNL     1      -4.446  13.559  24.206  0.00  0.00    +0.000 NA
ATOM     16  C   UNL     1      -3.650  12.492  23.994  0.00  0.00    +0.000 A 
ATOM     17  C   UNL     1      -2.895  12.312  22.849  0.00  0.00    +0.000 A 
ENDBRANCH  10  12
ENDBRANCH   9  10
ENDBRANCH   1   3
BRANCH   1  18
ATOM     18  S   UNL     1       0.431  10.513  20.452  0.00  0.00    +0.000 S 
ATOM     19  O   UNL     1      -0.707   9.955  21.148  0.00  0.00    +0.000 OA
ATOM     20  O   UNL     1       1.391  11.358  21.147  0.00  0.00    +0.000 OA
BRANCH  18  24
ATOM     21  C   UNL     1       2.702   7.044  18.525  0.00  0.00    +0.000 A 
ATOM     22  C   UNL     1       2.376   8.188  17.778  0.00  0.00    +0.000 A 
ATOM     23  C   UNL     1       1.691   9.253  18.364  0.00  0.00    +0.000 A 
ATOM     24  C   UNL     1       1.303   9.168  19.700  0.00  0.00    +0.000 A 
ATOM     25  C   UNL     1       1.601   8.033  20.456  0.00  0.00    +0.000 A 
ATOM     26  C   UNL     1       2.284   6.967  19.862  0.00  0.00    +0.000 A 
BRANCH  21  27
ATOM     27  C   UNL     1       3.517   5.930  17.903  0.00  0.00    +0.000 C 
BRANCH  27  28
ATOM     28  C   UNL     1       4.933   6.400  17.565  0.00  0.00    +0.000 C 
BRANCH  28  29
ATOM     29  C   UNL     1       5.328   6.089  16.142  0.00  0.00    +0.000 C 
ATOM     30  O   UNL     1       5.218   6.843  15.188  0.00  0.00    +0.000 OA
BRANCH  29  32
ATOM     31  C   UNL     1       7.053   4.639  16.819  0.00  0.00    +0.000 C 
ATOM     32  O   UNL     1       5.836   4.823  16.094  0.00  0.00    +0.000 OA
ENDBRANCH  29  32
ENDBRANCH  28  29
ENDBRANCH  27  28
ENDBRANCH  21  27
ENDBRANCH  18  24
ENDBRANCH   1  18
TORSDOF 9
ENDMDL
