MODEL 1
REMARK VINA RESULT:      -8.2      0.000      0.000
REMARK  Name = 
REMARK  10 active torsions:
REMARK  status: ('A' for Active; 'I' for Inactive)
REMARK    1  A    between atoms: C_1  and  C_2
REMARK    2  A    between atoms: N_4  and  C_5
REMARK    3  A    between atoms: C_11  and  C_12
REMARK    4  A    between atoms: C_13  and  N_14
REMARK    5  A    between atoms: C_15  and  C_17
REMARK    6  A    between atoms: C_17  and  O_18
REMARK    7  A    between atoms: O_18  and  C_19
REMARK    8  A    between atoms: C_19  and  C_21
REMARK    9  A    between atoms: C_21  and  C_22
REMARK   10  A    between atoms: C_23  and  C_24
REMARK                            x       y       z     vdW  Elec       q    Type
REMARK                         _______ _______ _______ _____ _____    ______ ____
ROOT
ATOM      1  N   UNL     1       2.846   6.317  19.883  0.00  0.00    +0.000 N 
ATOM      2  C   UNL     1       2.213   5.104  20.032  0.00  0.00    +0.000 C 
ATOM      3  O   UNL     1       0.990   4.911  20.119  0.00  0.00    +0.000 OA
ATOM      4  H   UNL     1       3.817   6.355  20.194  0.00  0.00    +0.000 HD
ENDROOT
BRANCH   1  11
ATOM      5  C   UNL     1       3.086   7.895  17.147  0.00  0.00    +0.000 C 
ATOM      6  C   UNL     1       2.309   8.240  18.365  0.00  0.00    +0.000 A 
ATOM      7  N   UNL     1       1.546   9.337  18.369  0.00  0.00    +0.000 NA
ATOM      8  N   UNL     1       1.113   9.450  19.646  0.00  0.00    +0.000 N 
ATOM      9  C   UNL     1       1.394   8.306  20.384  0.00  0.00    +0.000 A 
ATOM     10  C   UNL     1       0.759   8.016  21.700  0.00  0.00    +0.000 C 
ATOM     11  C   UNL     1       2.240   7.541  19.600  0.00  0.00    +0.000 A 
BRANCH   8  12
ATOM     12  C   UNL     1       0.421  10.626  20.056  0.00  0.00    +0.000 A 
ATOM     13  C   UNL     1       1.117  11.635  20.738  0.00  0.00    +0.000 A 
ATOM     14  C   UNL     1       0.471  12.834  21.060  0.00  0.00    +0.000 A 
ATOM     15  C   UNL     1      -0.873  13.013  20.740  0.00  0.00    +0.000 A 
ATOM     16  C   UNL     1      -1.585  11.982  20.120  0.00  0.00    +0.000 A 
ATOM     17  C   UNL     1      -0.943  10.790  19.785  0.00  0.00    +0.000 A 
ENDBRANCH   8  12
ENDBRANCH   1  11
BRANCH   2  18
ATOM     18  C   UNL     1       3.157   3.910  20.123  0.00  0.00    +0.000 C 
BRANCH  18  19
ATOM     19  O   UNL     1       2.875   2.926  19.138  0.00  0.00    +0.000 OA
BRANCH  19  20
ATOM     20  C   UNL     1       3.079   3.336  17.850  0.00  0.00    +0.000 C 
ATOM     21  O   UNL     1       2.179   3.738  17.115  0.00  0.00    +0.000 OA
BRANCH  20  22
ATOM     22  C   UNL     1       4.506   3.085  17.445  0.00  0.00    +0.000 C 
BRANCH  22  23
ATOM     23  C   UNL     1       5.315   4.268  17.030  0.00  0.00    +0.000 A 
ATOM     24  C   UNL     1       5.563   4.667  15.716  0.00  0.00    +0.000 A 
ATOM     25  C   UNL     1       5.362   3.977  14.416  0.00  0.00    +0.000 C 
ATOM     26  N   UNL     1       6.152   5.904  15.754  0.00  0.00    +0.000 N 
ATOM     27  C   UNL     1       6.368   6.269  17.053  0.00  0.00    +0.000 A 
ATOM     28  C   UNL     1       7.029   7.384  17.569  0.00  0.00    +0.000 A 
ATOM     29  C   UNL     1       7.997   6.940  18.469  0.00  0.00    +0.000 A 
ATOM     30  C   UNL     1       7.741   5.805  19.223  0.00  0.00    +0.000 A 
ATOM     31  N   UNL     1       6.676   4.974  19.042  0.00  0.00    +0.000 NA
ATOM     32  C   UNL     1       6.113   5.139  17.820  0.00  0.00    +0.000 A 
ATOM     33  H   UNL     1       6.499   6.421  14.956  0.00  0.00    +0.000 HD
ENDBRANCH  22  23
ENDBRANCH  20  22
ENDBRANCH  19  20
ENDBRANCH  18  19
ENDBRANCH   2  18
TORSDOF 7
ENDMDL
MODEL 2
REMARK VINA RESULT:      -8.1      2.843      4.828
REMARK  Name = 
REMARK  10 active torsions:
REMARK  status: ('A' for Active; 'I' for Inactive)
REMARK    1  A    between atoms: C_1  and  C_2
REMARK    2  A    between atoms: N_4  and  C_5
REMARK    3  A    between atoms: C_11  and  C_12
REMARK    4  A    between atoms: C_13  and  N_14
REMARK    5  A    between atoms: C_15  and  C_17
REMARK    6  A    between atoms: C_17  and  O_18
REMARK    7  A    between atoms: O_18  and  C_19
REMARK    8  A    between atoms: C_19  and  C_21
REMARK    9  A    between atoms: C_21  and  C_22
REMARK   10  A    between atoms: C_23  and  C_24
REMARK                            x       y       z     vdW  Elec       q    Type
REMARK                         _______ _______ _______ _____ _____    ______ ____
ROOT
ATOM      1  N   UNL     1      -0.099   9.902  19.550  0.00  0.00    +0.000 N 
ATOM      2  C   UNL     1       0.934  10.206  18.693  0.00  0.00    +0.000 C 
ATOM      3  O   UNL     1       1.678  11.197  18.750  0.00  0.00    +0.000 OA
ATOM      4  H   UNL     1      -0.826   9.292  19.175  0.00  0.00    +0.000 HD
ENDROOT
BRANCH   1  11
ATOM      5  C   UNL     1       1.113   9.111  22.367  0.00  0.00    +0.000 C 
ATOM      6  C   UNL     1       0.178  10.212  22.024  0.00  0.00    +0.000 A 
ATOM      7  N   UNL     1      -0.222  11.057  22.979  0.00  0.00    +0.000 NA
ATOM      8  N   UNL     1      -1.169  11.821  22.387  0.00  0.00    +0.000 N 
ATOM      9  C   UNL     1      -1.195  11.629  21.011  0.00  0.00    +0.000 A 
ATOM     10  C   UNL     1      -1.894  12.556  20.078  0.00  0.00    +0.000 C 
ATOM     11  C   UNL     1      -0.387  10.534  20.760  0.00  0.00    +0.000 A 
BRANCH   8  12
ATOM     12  C   UNL     1      -1.953  12.712  23.177  0.00  0.00    +0.000 A 
ATOM     13  C   UNL     1      -1.403  13.934  23.592  0.00  0.00    +0.000 A 
ATOM     14  C   UNL     1      -2.196  14.857  24.283  0.00  0.00    +0.000 A 
ATOM     15  C   UNL     1      -3.518  14.550  24.596  0.00  0.00    +0.000 A 
ATOM     16  C   UNL     1      -4.047  13.305  24.241  0.00  0.00    +0.000 A 
ATOM     17  C   UNL     1      -3.266  12.387  23.539  0.00  0.00    +0.000 A 
ENDBRANCH   8  12
ENDBRANCH   1  11
BRANCH   2  18
ATOM     18  C   UNL     1       1.123   9.206  17.558  0.00  0.00    +0.000 C 
BRANCH  18  19
ATOM     19  O   UNL     1       2.483   8.831  17.393  0.00  0.00    +0.000 OA
BRANCH  19  20
ATOM     20  C   UNL     1       2.847   7.699  18.067  0.00  0.00    +0.000 C 
ATOM     21  O   UNL     1       2.338   7.348  19.130  0.00  0.00    +0.000 OA
BRANCH  20  22
ATOM     22  C   UNL     1       4.030   7.054  17.398  0.00  0.00    +0.000 C 
BRANCH  22  23
ATOM     23  C   UNL     1       4.530   5.776  17.982  0.00  0.00    +0.000 A 
ATOM     24  C   UNL     1       5.848   5.510  18.358  0.00  0.00    +0.000 A 
ATOM     25  C   UNL     1       7.119   6.227  18.087  0.00  0.00    +0.000 C 
ATOM     26  N   UNL     1       5.860   4.324  19.044  0.00  0.00    +0.000 N 
ATOM     27  C   UNL     1       4.607   3.778  19.041  0.00  0.00    +0.000 A 
ATOM     28  C   UNL     1       4.169   2.543  19.518  0.00  0.00    +0.000 A 
ATOM     29  C   UNL     1       3.482   1.897  18.492  0.00  0.00    +0.000 A 
ATOM     30  C   UNL     1       2.748   2.656  17.594  0.00  0.00    +0.000 A 
ATOM     31  N   UNL     1       2.770   4.018  17.525  0.00  0.00    +0.000 NA
ATOM     32  C   UNL     1       3.859   4.534  18.144  0.00  0.00    +0.000 A 
ATOM     33  H   UNL     1       6.682   3.847  19.390  0.00  0.00    +0.000 HD
ENDBRANCH  22  23
ENDBRANCH  20  22
ENDBRANCH  19  20
ENDBRANCH  18  19
ENDBRANCH   2  18
TORSDOF 7
ENDMDL
MODEL 3
REMARK VINA RESULT:      -8.1      0.679      1.230
REMARK  Name = 
REMARK  10 active torsions:
REMARK  status: ('A' for Active; 'I' for Inactive)
REMARK    1  A    between atoms: C_1  and  C_2
REMARK    2  A    between atoms: N_4  and  C_5
REMARK    3  A    between atoms: C_11  and  C_12
REMARK    4  A    between atoms: C_13  and  N_14
REMARK    5  A    between atoms: C_15  and  C_17
REMARK    6  A    between atoms: C_17  and  O_18
REMARK    7  A    between atoms: O_18  and  C_19
REMARK    8  A    between atoms: C_19  and  C_21
REMARK    9  A    between atoms: C_21  and  C_22
REMARK   10  A    between atoms: C_23  and  C_24
REMARK                            x       y       z     vdW  Elec       q    Type
REMARK                         _______ _______ _______ _____ _____    ______ ____
ROOT
ATOM      1  N   UNL     1       2.613   6.336  20.359  0.00  0.00    +0.000 N 
ATOM      2  C   UNL     1       1.948   5.136  20.465  0.00  0.00    +0.000 C 
ATOM      3  O   UNL     1       0.726   4.953  20.357  0.00  0.00    +0.000 OA
ATOM      4  H   UNL     1       3.519   6.388  20.825  0.00  0.00    +0.000 HD
ENDROOT
BRANCH   1  11
ATOM      5  C   UNL     1       3.094   7.613  17.501  0.00  0.00    +0.000 C 
ATOM      6  C   UNL     1       2.257   8.111  18.621  0.00  0.00    +0.000 A 
ATOM      7  N   UNL     1       1.542   9.228  18.463  0.00  0.00    +0.000 NA
ATOM      8  N   UNL     1       1.034   9.488  19.690  0.00  0.00    +0.000 N 
ATOM      9  C   UNL     1       1.218   8.418  20.557  0.00  0.00    +0.000 A 
ATOM     10  C   UNL     1       0.489   8.288  21.849  0.00  0.00    +0.000 C 
ATOM     11  C   UNL     1       2.079   7.545  19.914  0.00  0.00    +0.000 A 
BRANCH   8  12
ATOM     12  C   UNL     1       0.368  10.725  19.932  0.00  0.00    +0.000 A 
ATOM     13  C   UNL     1      -0.935  10.915  19.449  0.00  0.00    +0.000 A 
ATOM     14  C   UNL     1      -1.632  12.087  19.764  0.00  0.00    +0.000 A 
ATOM     15  C   UNL     1      -1.022  13.082  20.523  0.00  0.00    +0.000 A 
ATOM     16  C   UNL     1       0.300  12.922  20.949  0.00  0.00    +0.000 A 
ATOM     17  C   UNL     1       0.995  11.751  20.650  0.00  0.00    +0.000 A 
ENDBRANCH   8  12
ENDBRANCH   1  11
BRANCH   2  18
ATOM     18  C   UNL     1       2.847   3.945  20.776  0.00  0.00    +0.000 C 
BRANCH  18  19
ATOM     19  O   UNL     1       2.890   3.010  19.708  0.00  0.00    +0.000 OA
BRANCH  19  20
ATOM     20  C   UNL     1       4.068   2.992  19.014  0.00  0.00    +0.000 C 
ATOM     21  O   UNL     1       5.109   2.510  19.456  0.00  0.00    +0.000 OA
BRANCH  20  22
ATOM     22  C   UNL     1       3.925   3.761  17.729  0.00  0.00    +0.000 C 
BRANCH  22  23
ATOM     23  C   UNL     1       5.075   4.616  17.315  0.00  0.00    +0.000 A 
ATOM     24  C   UNL     1       5.581   4.735  16.019  0.00  0.00    +0.000 A 
ATOM     25  C   UNL     1       5.351   3.935  14.789  0.00  0.00    +0.000 C 
ATOM     26  N   UNL     1       6.482   5.767  16.010  0.00  0.00    +0.000 N 
ATOM     27  C   UNL     1       6.635   6.254  17.278  0.00  0.00    +0.000 A 
ATOM     28  C   UNL     1       7.515   7.221  17.763  0.00  0.00    +0.000 A 
ATOM     29  C   UNL     1       8.205   6.681  18.847  0.00  0.00    +0.000 A 
ATOM     30  C   UNL     1       7.555   5.778  19.673  0.00  0.00    +0.000 A 
ATOM     31  N   UNL     1       6.329   5.236  19.423  0.00  0.00    +0.000 NA
ATOM     32  C   UNL     1       5.985   5.357  18.118  0.00  0.00    +0.000 A 
ATOM     33  H   UNL     1       7.052   6.050  15.224  0.00  0.00    +0.000 HD
ENDBRANCH  22  23
ENDBRANCH  20  22
ENDBRANCH  19  20
ENDBRANCH  18  19
ENDBRANCH   2  18
TORSDOF 7
ENDMDL
MODEL 4
REMARK VINA RESULT:      -7.7      5.593      8.557
REMARK  Name = 
REMARK  10 active torsions:
REMARK  status: ('A' for Active; 'I' for Inactive)
REMARK    1  A    between atoms: C_1  and  C_2
REMARK    2  A    between atoms: N_4  and  C_5
REMARK    3  A    between atoms: C_11  and  C_12
REMARK    4  A    between atoms: C_13  and  N_14
REMARK    5  A    between atoms: C_15  and  C_17
REMARK    6  A    between atoms: C_17  and  O_18
REMARK    7  A    between atoms: O_18  and  C_19
REMARK    8  A    between atoms: C_19  and  C_21
REMARK    9  A    between atoms: C_21  and  C_22
REMARK   10  A    between atoms: C_23  and  C_24
REMARK                            x       y       z     vdW  Elec       q    Type
REMARK                         _______ _______ _______ _____ _____    ______ ____
ROOT
ATOM      1  N   UNL     1       6.319   7.188  17.164  0.00  0.00    +0.000 N 
ATOM      2  C   UNL     1       7.472   7.320  17.903  0.00  0.00    +0.000 C 
ATOM      3  O   UNL     1       7.908   6.522  18.747  0.00  0.00    +0.000 OA
ATOM      4  H   UNL     1       5.914   8.055  16.810  0.00  0.00    +0.000 HD
ENDROOT
BRANCH   1  11
ATOM      5  C   UNL     1       6.276   5.180  14.715  0.00  0.00    +0.000 C 
ATOM      6  C   UNL     1       5.518   5.120  15.991  0.00  0.00    +0.000 A 
ATOM      7  N   UNL     1       4.714   4.080  16.231  0.00  0.00    +0.000 NA
ATOM      8  N   UNL     1       4.066   4.403  17.374  0.00  0.00    +0.000 N 
ATOM      9  C   UNL     1       4.630   5.518  17.984  0.00  0.00    +0.000 A 
ATOM     10  C   UNL     1       4.342   5.901  19.394  0.00  0.00    +0.000 C 
ATOM     11  C   UNL     1       5.520   6.049  17.067  0.00  0.00    +0.000 A 
BRANCH   8  12
ATOM     12  C   UNL     1       2.982   3.595  17.825  0.00  0.00    +0.000 A 
ATOM     13  C   UNL     1       3.230   2.287  18.266  0.00  0.00    +0.000 A 
ATOM     14  C   UNL     1       2.188   1.522  18.800  0.00  0.00    +0.000 A 
ATOM     15  C   UNL     1       0.897   2.039  18.859  0.00  0.00    +0.000 A 
ATOM     16  C   UNL     1       0.635   3.318  18.357  0.00  0.00    +0.000 A 
ATOM     17  C   UNL     1       1.672   4.092  17.837  0.00  0.00    +0.000 A 
ENDBRANCH   8  12
ENDBRANCH   1  11
BRANCH   2  18
ATOM     18  C   UNL     1       8.242   8.610  17.642  0.00  0.00    +0.000 C 
BRANCH  18  19
ATOM     19  O   UNL     1       8.969   9.042  18.783  0.00  0.00    +0.000 OA
BRANCH  19  20
ATOM     20  C   UNL     1       9.019  10.398  18.946  0.00  0.00    +0.000 C 
ATOM     21  O   UNL     1       8.908  11.198  18.020  0.00  0.00    +0.000 OA
BRANCH  20  22
ATOM     22  C   UNL     1       9.367  10.736  20.371  0.00  0.00    +0.000 C 
BRANCH  22  23
ATOM     23  C   UNL     1       9.925  12.095  20.631  0.00  0.00    +0.000 A 
ATOM     24  C   UNL     1      11.153  12.575  20.172  0.00  0.00    +0.000 A 
ATOM     25  C   UNL     1      12.321  11.889  19.564  0.00  0.00    +0.000 C 
ATOM     26  N   UNL     1      11.204  13.920  20.433  0.00  0.00    +0.000 N 
ATOM     27  C   UNL     1      10.087  14.297  21.124  0.00  0.00    +0.000 A 
ATOM     28  C   UNL     1       9.759  15.529  21.688  0.00  0.00    +0.000 A 
ATOM     29  C   UNL     1       9.428  15.323  23.026  0.00  0.00    +0.000 A 
ATOM     30  C   UNL     1       8.798  14.142  23.387  0.00  0.00    +0.000 A 
ATOM     31  N   UNL     1       8.615  13.073  22.560  0.00  0.00    +0.000 NA
ATOM     32  C   UNL     1       9.444  13.120  21.489  0.00  0.00    +0.000 A 
ATOM     33  H   UNL     1      11.996  14.527  20.265  0.00  0.00    +0.000 HD
ENDBRANCH  22  23
ENDBRANCH  20  22
ENDBRANCH  19  20
ENDBRANCH  18  19
ENDBRANCH   2  18
TORSDOF 7
ENDMDL
MODEL 5
REMARK VINA RESULT:      -7.7      2.789      4.890
REMARK  Name = 
REMARK  10 active torsions:
REMARK  status: ('A' for Active; 'I' for Inactive)
REMARK    1  A    between atoms: C_1  and  C_2
REMARK    2  A    between atoms: N_4  and  C_5
REMARK    3  A    between atoms: C_11  and  C_12
REMARK    4  A    between atoms: C_13  and  N_14
REMARK    5  A    between atoms: C_15  and  C_17
REMARK    6  A    between atoms: C_17  and  O_18
REMARK    7  A    between atoms: O_18  and  C_19
REMARK    8  A    between atoms: C_19  and  C_21
REMARK    9  A    between atoms: C_21  and  C_22
REMARK   10  A    between atoms: C_23  and  C_24
REMARK                            x       y       z     vdW  Elec       q    Type
REMARK                         _______ _______ _______ _____ _____    ______ ____
ROOT
ATOM      1  N   UNL     1       0.483   9.931  19.604  0.00  0.00    +0.000 N 
ATOM      2  C   UNL     1       1.406  10.470  18.738  0.00  0.00    +0.000 C 
ATOM      3  O   UNL     1       1.858  11.625  18.759  0.00  0.00    +0.000 OA
ATOM      4  H   UNL     1      -0.050   9.135  19.251  0.00  0.00    +0.000 HD
ENDROOT
BRANCH   1  11
ATOM      5  C   UNL     1       1.241   8.964  22.523  0.00  0.00    +0.000 C 
ATOM      6  C   UNL     1       0.385  10.103  22.105  0.00  0.00    +0.000 A 
ATOM      7  N   UNL     1      -0.143  10.904  23.033  0.00  0.00    +0.000 NA
ATOM      8  N   UNL     1      -0.978  11.720  22.350  0.00  0.00    +0.000 N 
ATOM      9  C   UNL     1      -0.797  11.602  20.977  0.00  0.00    +0.000 A 
ATOM     10  C   UNL     1      -1.333  12.593  20.002  0.00  0.00    +0.000 C 
ATOM     11  C   UNL     1       0.023  10.504  20.790  0.00  0.00    +0.000 A 
BRANCH   8  12
ATOM     12  C   UNL     1      -1.860  12.586  23.060  0.00  0.00    +0.000 A 
ATOM     13  C   UNL     1      -3.183  12.184  23.297  0.00  0.00    +0.000 A 
ATOM     14  C   UNL     1      -4.026  12.984  24.076  0.00  0.00    +0.000 A 
ATOM     15  C   UNL     1      -3.569  14.198  24.583  0.00  0.00    +0.000 A 
ATOM     16  C   UNL     1      -2.273  14.631  24.291  0.00  0.00    +0.000 A 
ATOM     17  C   UNL     1      -1.422  13.832  23.527  0.00  0.00    +0.000 A 
ENDBRANCH   8  12
ENDBRANCH   1  11
BRANCH   2  18
ATOM     18  C   UNL     1       1.868   9.517  17.640  0.00  0.00    +0.000 C 
BRANCH  18  19
ATOM     19  O   UNL     1       1.531   8.167  17.923  0.00  0.00    +0.000 OA
BRANCH  19  20
ATOM     20  C   UNL     1       2.498   7.467  18.589  0.00  0.00    +0.000 C 
ATOM     21  O   UNL     1       2.513   7.322  19.809  0.00  0.00    +0.000 OA
BRANCH  20  22
ATOM     22  C   UNL     1       3.582   7.043  17.634  0.00  0.00    +0.000 C 
BRANCH  22  23
ATOM     23  C   UNL     1       3.836   5.580  17.499  0.00  0.00    +0.000 A 
ATOM     24  C   UNL     1       4.820   4.992  16.701  0.00  0.00    +0.000 A 
ATOM     25  C   UNL     1       5.680   5.542  15.623  0.00  0.00    +0.000 C 
ATOM     26  N   UNL     1       4.875   3.659  17.013  0.00  0.00    +0.000 N 
ATOM     27  C   UNL     1       3.898   3.358  17.920  0.00  0.00    +0.000 A 
ATOM     28  C   UNL     1       3.511   2.123  18.440  0.00  0.00    +0.000 A 
ATOM     29  C   UNL     1       2.137   1.981  18.253  0.00  0.00    +0.000 A 
ATOM     30  C   UNL     1       1.332   3.107  18.319  0.00  0.00    +0.000 A 
ATOM     31  N   UNL     1       1.790   4.390  18.390  0.00  0.00    +0.000 NA
ATOM     32  C   UNL     1       3.083   4.482  17.997  0.00  0.00    +0.000 A 
ATOM     33  H   UNL     1       5.454   2.966  16.556  0.00  0.00    +0.000 HD
ENDBRANCH  22  23
ENDBRANCH  20  22
ENDBRANCH  19  20
ENDBRANCH  18  19
ENDBRANCH   2  18
TORSDOF 7
ENDMDL
MODEL 6
REMARK VINA RESULT:      -7.7      2.834      5.078
REMARK  Name = 
REMARK  10 active torsions:
REMARK  status: ('A' for Active; 'I' for Inactive)
REMARK    1  A    between atoms: C_1  and  C_2
REMARK    2  A    between atoms: N_4  and  C_5
REMARK    3  A    between atoms: C_11  and  C_12
REMARK    4  A    between atoms: C_13  and  N_14
REMARK    5  A    between atoms: C_15  and  C_17
REMARK    6  A    between atoms: C_17  and  O_18
REMARK    7  A    between atoms: O_18  and  C_19
REMARK    8  A    between atoms: C_19  and  C_21
REMARK    9  A    between atoms: C_21  and  C_22
REMARK   10  A    between atoms: C_23  and  C_24
REMARK                            x       y       z     vdW  Elec       q    Type
REMARK                         _______ _______ _______ _____ _____    ______ ____
ROOT
ATOM      1  N   UNL     1       0.693  10.532  20.213  0.00  0.00    +0.000 N 
ATOM      2  C   UNL     1       0.523  10.086  18.922  0.00  0.00    +0.000 C 
ATOM      3  O   UNL     1      -0.556   9.903  18.337  0.00  0.00    +0.000 OA
ATOM      4  H   UNL     1       1.576  10.280  20.659  0.00  0.00    +0.000 HD
ENDROOT
BRANCH   1  11
ATOM      5  C   UNL     1      -0.017   9.462  23.108  0.00  0.00    +0.000 C 
ATOM      6  C   UNL     1      -0.597  10.609  22.363  0.00  0.00    +0.000 A 
ATOM      7  N   UNL     1      -1.527  11.370  22.946  0.00  0.00    +0.000 NA
ATOM      8  N   UNL     1      -1.952  12.204  21.968  0.00  0.00    +0.000 N 
ATOM      9  C   UNL     1      -1.131  12.139  20.849  0.00  0.00    +0.000 A 
ATOM     10  C   UNL     1      -1.159  13.161  19.765  0.00  0.00    +0.000 C 
ATOM     11  C   UNL     1      -0.293  11.056  21.048  0.00  0.00    +0.000 A 
BRANCH   8  12
ATOM     12  C   UNL     1      -3.088  13.034  22.192  0.00  0.00    +0.000 A 
ATOM     13  C   UNL     1      -4.317  12.699  21.604  0.00  0.00    +0.000 A 
ATOM     14  C   UNL     1      -5.459  13.453  21.896  0.00  0.00    +0.000 A 
ATOM     15  C   UNL     1      -5.372  14.560  22.737  0.00  0.00    +0.000 A 
ATOM     16  C   UNL     1      -4.135  14.934  23.270  0.00  0.00    +0.000 A 
ATOM     17  C   UNL     1      -2.996  14.178  22.995  0.00  0.00    +0.000 A 
ENDBRANCH   8  12
ENDBRANCH   1  11
BRANCH   2  18
ATOM     18  C   UNL     1       1.822   9.770  18.190  0.00  0.00    +0.000 C 
BRANCH  18  19
ATOM     19  O   UNL     1       1.844   8.444  17.681  0.00  0.00    +0.000 OA
BRANCH  19  20
ATOM     20  C   UNL     1       2.565   7.558  18.431  0.00  0.00    +0.000 C 
ATOM     21  O   UNL     1       2.352   7.347  19.624  0.00  0.00    +0.000 OA
BRANCH  20  22
ATOM     22  C   UNL     1       3.713   7.012  17.627  0.00  0.00    +0.000 C 
BRANCH  22  23
ATOM     23  C   UNL     1       4.275   5.695  18.049  0.00  0.00    +0.000 A 
ATOM     24  C   UNL     1       5.626   5.412  18.256  0.00  0.00    +0.000 A 
ATOM     25  C   UNL     1       6.860   6.160  17.906  0.00  0.00    +0.000 C 
ATOM     26  N   UNL     1       5.713   4.175  18.839  0.00  0.00    +0.000 N 
ATOM     27  C   UNL     1       4.467   3.621  18.929  0.00  0.00    +0.000 A 
ATOM     28  C   UNL     1       4.085   2.348  19.351  0.00  0.00    +0.000 A 
ATOM     29  C   UNL     1       3.289   1.779  18.357  0.00  0.00    +0.000 A 
ATOM     30  C   UNL     1       2.461   2.601  17.609  0.00  0.00    +0.000 A 
ATOM     31  N   UNL     1       2.475   3.964  17.648  0.00  0.00    +0.000 NA
ATOM     32  C   UNL     1       3.626   4.439  18.183  0.00  0.00    +0.000 A 
ATOM     33  H   UNL     1       6.569   3.680  19.054  0.00  0.00    +0.000 HD
ENDBRANCH  22  23
ENDBRANCH  20  22
ENDBRANCH  19  20
ENDBRANCH  18  19
ENDBRANCH   2  18
TORSDOF 7
ENDMDL
MODEL 7
REMARK VINA RESULT:      -7.6      6.071      7.789
REMARK  Name = 
REMARK  10 active torsions:
REMARK  status: ('A' for Active; 'I' for Inactive)
REMARK    1  A    between atoms: C_1  and  C_2
REMARK    2  A    between atoms: N_4  and  C_5
REMARK    3  A    between atoms: C_11  and  C_12
REMARK    4  A    between atoms: C_13  and  N_14
REMARK    5  A    between atoms: C_15  and  C_17
REMARK    6  A    between atoms: C_17  and  O_18
REMARK    7  A    between atoms: O_18  and  C_19
REMARK    8  A    between atoms: C_19  and  C_21
REMARK    9  A    between atoms: C_21  and  C_22
REMARK   10  A    between atoms: C_23  and  C_24
REMARK                            x       y       z     vdW  Elec       q    Type
REMARK                         _______ _______ _______ _____ _____    ______ ____
ROOT
ATOM      1  N   UNL     1       8.711  10.906  17.550  0.00  0.00    +0.000 N 
ATOM      2  C   UNL     1       8.627   9.804  18.371  0.00  0.00    +0.000 C 
ATOM      3  O   UNL     1       9.112   9.687  19.507  0.00  0.00    +0.000 OA
ATOM      4  H   UNL     1       8.601  10.728  16.552  0.00  0.00    +0.000 HD
ENDROOT
BRANCH   1  11
ATOM      5  C   UNL     1      11.721  11.626  18.226  0.00  0.00    +0.000 C 
ATOM      6  C   UNL     1      10.533  12.515  18.173  0.00  0.00    +0.000 A 
ATOM      7  N   UNL     1      10.681  13.825  18.390  0.00  0.00    +0.000 NA
ATOM      8  N   UNL     1       9.419  14.312  18.431  0.00  0.00    +0.000 N 
ATOM      9  C   UNL     1       8.493  13.369  18.000  0.00  0.00    +0.000 A 
ATOM     10  C   UNL     1       7.093  13.719  17.632  0.00  0.00    +0.000 C 
ATOM     11  C   UNL     1       9.180  12.171  17.904  0.00  0.00    +0.000 A 
BRANCH   8  12
ATOM     12  C   UNL     1       9.194  15.659  18.838  0.00  0.00    +0.000 A 
ATOM     13  C   UNL     1       9.398  16.701  17.922  0.00  0.00    +0.000 A 
ATOM     14  C   UNL     1       9.087  18.017  18.281  0.00  0.00    +0.000 A 
ATOM     15  C   UNL     1       8.613  18.301  19.559  0.00  0.00    +0.000 A 
ATOM     16  C   UNL     1       8.473  17.272  20.495  0.00  0.00    +0.000 A 
ATOM     17  C   UNL     1       8.768  15.956  20.138  0.00  0.00    +0.000 A 
ENDBRANCH   8  12
ENDBRANCH   1  11
BRANCH   2  18
ATOM     18  C   UNL     1       7.877   8.624  17.763  0.00  0.00    +0.000 C 
BRANCH  18  19
ATOM     19  O   UNL     1       8.196   7.397  18.404  0.00  0.00    +0.000 OA
BRANCH  19  20
ATOM     20  C   UNL     1       7.488   6.319  17.953  0.00  0.00    +0.000 C 
ATOM     21  O   UNL     1       7.596   5.862  16.816  0.00  0.00    +0.000 OA
BRANCH  20  22
ATOM     22  C   UNL     1       6.484   5.887  18.987  0.00  0.00    +0.000 C 
BRANCH  22  23
ATOM     23  C   UNL     1       5.248   5.211  18.496  0.00  0.00    +0.000 A 
ATOM     24  C   UNL     1       4.200   5.825  17.808  0.00  0.00    +0.000 A 
ATOM     25  C   UNL     1       3.861   7.253  17.588  0.00  0.00    +0.000 C 
ATOM     26  N   UNL     1       3.366   4.841  17.345  0.00  0.00    +0.000 N 
ATOM     27  C   UNL     1       3.799   3.624  17.792  0.00  0.00    +0.000 A 
ATOM     28  C   UNL     1       3.214   2.365  17.662  0.00  0.00    +0.000 A 
ATOM     29  C   UNL     1       3.116   1.795  18.931  0.00  0.00    +0.000 A 
ATOM     30  C   UNL     1       4.100   2.071  19.867  0.00  0.00    +0.000 A 
ATOM     31  N   UNL     1       5.088   2.997  19.709  0.00  0.00    +0.000 NA
ATOM     32  C   UNL     1       4.789   3.887  18.731  0.00  0.00    +0.000 A 
ATOM     33  H   UNL     1       2.490   4.985  16.860  0.00  0.00    +0.000 HD
ENDBRANCH  22  23
ENDBRANCH  20  22
ENDBRANCH  19  20
ENDBRANCH  18  19
ENDBRANCH   2  18
TORSDOF 7
ENDMDL
MODEL 8
REMARK VINA RESULT:      -7.6      1.136      1.383
REMARK  Name = 
REMARK  10 active torsions:
REMARK  status: ('A' for Active; 'I' for Inactive)
REMARK    1  A    between atoms: C_1  and  C_2
REMARK    2  A    between atoms: N_4  and  C_5
REMARK    3  A    between atoms: C_11  and  C_12
REMARK    4  A    between atoms: C_13  and  N_14
REMARK    5  A    between atoms: C_15  and  C_17
REMARK    6  A    between atoms: C_17  and  O_18
REMARK    7  A    between atoms: O_18  and  C_19
REMARK    8  A    between atoms: C_19  and  C_21
REMARK    9  A    between atoms: C_21  and  C_22
REMARK   10  A    between atoms: C_23  and  C_24
REMARK                            x       y       z     vdW  Elec       q    Type
REMARK                         _______ _______ _______ _____ _____    ______ ____
ROOT
ATOM      1  N   UNL     1       2.272   7.348  20.153  0.00  0.00    +0.000 N 
ATOM      2  C   UNL     1       1.863   6.045  20.320  0.00  0.00    +0.000 C 
ATOM      3  O   UNL     1       0.720   5.658  20.610  0.00  0.00    +0.000 OA
ATOM      4  H   UNL     1       3.269   7.524  20.288  0.00  0.00    +0.000 HD
ENDROOT
BRANCH   1  11
ATOM      5  C   UNL     1       1.914   9.190  17.601  0.00  0.00    +0.000 C 
ATOM      6  C   UNL     1       1.254   9.286  18.928  0.00  0.00    +0.000 A 
ATOM      7  N   UNL     1       0.336  10.234  19.139  0.00  0.00    +0.000 NA
ATOM      8  N   UNL     1       0.056  10.153  20.460  0.00  0.00    +0.000 N 
ATOM      9  C   UNL     1       0.604   9.010  21.030  0.00  0.00    +0.000 A 
ATOM     10  C   UNL     1       0.194   8.497  22.367  0.00  0.00    +0.000 C 
ATOM     11  C   UNL     1       1.452   8.474  20.078  0.00  0.00    +0.000 A 
BRANCH   8  12
ATOM     12  C   UNL     1      -0.753  11.154  21.074  0.00  0.00    +0.000 A 
ATOM     13  C   UNL     1      -0.660  11.367  22.457  0.00  0.00    +0.000 A 
ATOM     14  C   UNL     1      -1.377  12.410  23.052  0.00  0.00    +0.000 A 
ATOM     15  C   UNL     1      -2.215  13.213  22.283  0.00  0.00    +0.000 A 
ATOM     16  C   UNL     1      -2.360  12.959  20.916  0.00  0.00    +0.000 A 
ATOM     17  C   UNL     1      -1.637  11.930  20.314  0.00  0.00    +0.000 A 
ENDBRANCH   8  12
ENDBRANCH   1  11
BRANCH   2  18
ATOM     18  C   UNL     1       2.971   5.012  20.150  0.00  0.00    +0.000 C 
BRANCH  18  19
ATOM     19  O   UNL     1       3.135   4.619  18.795  0.00  0.00    +0.000 OA
BRANCH  19  20
ATOM     20  C   UNL     1       3.752   3.412  18.623  0.00  0.00    +0.000 C 
ATOM     21  O   UNL     1       3.834   2.559  19.505  0.00  0.00    +0.000 OA
BRANCH  20  22
ATOM     22  C   UNL     1       4.418   3.357  17.275  0.00  0.00    +0.000 C 
BRANCH  22  23
ATOM     23  C   UNL     1       5.348   4.470  16.929  0.00  0.00    +0.000 A 
ATOM     24  C   UNL     1       5.712   4.859  15.638  0.00  0.00    +0.000 A 
ATOM     25  C   UNL     1       5.536   4.202  14.318  0.00  0.00    +0.000 C 
ATOM     26  N   UNL     1       6.399   6.041  15.731  0.00  0.00    +0.000 N 
ATOM     27  C   UNL     1       6.563   6.375  17.046  0.00  0.00    +0.000 A 
ATOM     28  C   UNL     1       7.281   7.424  17.619  0.00  0.00    +0.000 A 
ATOM     29  C   UNL     1       8.149   6.891  18.571  0.00  0.00    +0.000 A 
ATOM     30  C   UNL     1       7.752   5.775  19.290  0.00  0.00    +0.000 A 
ATOM     31  N   UNL     1       6.634   5.039  19.031  0.00  0.00    +0.000 NA
ATOM     32  C   UNL     1       6.165   5.263  17.779  0.00  0.00    +0.000 A 
ATOM     33  H   UNL     1       6.838   6.535  14.964  0.00  0.00    +0.000 HD
ENDBRANCH  22  23
ENDBRANCH  20  22
ENDBRANCH  19  20
ENDBRANCH  18  19
ENDBRANCH   2  18
TORSDOF 7
ENDMDL
MODEL 9
REMARK VINA RESULT:      -7.6      3.181      9.163
REMARK  Name = 
REMARK  10 active torsions:
REMARK  status: ('A' for Active; 'I' for Inactive)
REMARK    1  A    between atoms: C_1  and  C_2
REMARK    2  A    between atoms: N_4  and  C_5
REMARK    3  A    between atoms: C_11  and  C_12
REMARK    4  A    between atoms: C_13  and  N_14
REMARK    5  A    between atoms: C_15  and  C_17
REMARK    6  A    between atoms: C_17  and  O_18
REMARK    7  A    between atoms: O_18  and  C_19
REMARK    8  A    between atoms: C_19  and  C_21
REMARK    9  A    between atoms: C_21  and  C_22
REMARK   10  A    between atoms: C_23  and  C_24
REMARK                            x       y       z     vdW  Elec       q    Type
REMARK                         _______ _______ _______ _____ _____    ______ ____
ROOT
ATOM      1  N   UNL     1       0.535   9.228  20.547  0.00  0.00    +0.000 N 
ATOM      2  C   UNL     1       0.842   9.637  21.825  0.00  0.00    +0.000 C 
ATOM      3  O   UNL     1       1.843   9.320  22.485  0.00  0.00    +0.000 OA
ATOM      4  H   UNL     1      -0.453   9.259  20.293  0.00  0.00    +0.000 HD
ENDROOT
BRANCH   1  11
ATOM      5  C   UNL     1       1.914  10.476  17.983  0.00  0.00    +0.000 C 
ATOM      6  C   UNL     1       2.031   9.103  18.537  0.00  0.00    +0.000 A 
ATOM      7  N   UNL     1       2.847   8.224  17.949  0.00  0.00    +0.000 NA
ATOM      8  N   UNL     1       2.605   7.053  18.583  0.00  0.00    +0.000 N 
ATOM      9  C   UNL     1       1.829   7.238  19.721  0.00  0.00    +0.000 A 
ATOM     10  C   UNL     1       1.682   6.199  20.778  0.00  0.00    +0.000 C 
ATOM     11  C   UNL     1       1.377   8.545  19.669  0.00  0.00    +0.000 A 
BRANCH   8  12
ATOM     12  C   UNL     1       3.171   5.846  18.079  0.00  0.00    +0.000 A 
ATOM     13  C   UNL     1       4.561   5.747  17.921  0.00  0.00    +0.000 A 
ATOM     14  C   UNL     1       5.134   4.535  17.520  0.00  0.00    +0.000 A 
ATOM     15  C   UNL     1       4.324   3.437  17.237  0.00  0.00    +0.000 A 
ATOM     16  C   UNL     1       2.934   3.555  17.329  0.00  0.00    +0.000 A 
ATOM     17  C   UNL     1       2.359   4.756  17.743  0.00  0.00    +0.000 A 
ENDBRANCH   8  12
ENDBRANCH   1  11
BRANCH   2  18
ATOM     18  C   UNL     1      -0.203  10.547  22.461  0.00  0.00    +0.000 C 
BRANCH  18  19
ATOM     19  O   UNL     1      -0.328  11.784  21.773  0.00  0.00    +0.000 OA
BRANCH  19  20
ATOM     20  C   UNL     1      -1.405  12.538  22.149  0.00  0.00    +0.000 C 
ATOM     21  O   UNL     1      -1.919  12.479  23.264  0.00  0.00    +0.000 OA
BRANCH  20  22
ATOM     22  C   UNL     1      -1.930  13.314  20.972  0.00  0.00    +0.000 C 
BRANCH  22  23
ATOM     23  C   UNL     1      -2.881  12.612  20.062  0.00  0.00    +0.000 A 
ATOM     24  C   UNL     1      -4.266  12.541  20.225  0.00  0.00    +0.000 A 
ATOM     25  C   UNL     1      -5.146  12.869  21.375  0.00  0.00    +0.000 C 
ATOM     26  N   UNL     1      -4.799  12.006  19.082  0.00  0.00    +0.000 N 
ATOM     27  C   UNL     1      -3.792  11.649  18.229  0.00  0.00    +0.000 A 
ATOM     28  C   UNL     1      -3.851  10.978  17.008  0.00  0.00    +0.000 A 
ATOM     29  C   UNL     1      -2.980   9.892  17.064  0.00  0.00    +0.000 A 
ATOM     30  C   UNL     1      -1.811  10.006  17.799  0.00  0.00    +0.000 A 
ATOM     31  N   UNL     1      -1.508  11.050  18.623  0.00  0.00    +0.000 NA
ATOM     32  C   UNL     1      -2.612  11.762  18.956  0.00  0.00    +0.000 A 
ATOM     33  H   UNL     1      -5.773  11.780  18.931  0.00  0.00    +0.000 HD
ENDBRANCH  22  23
ENDBRANCH  20  22
ENDBRANCH  19  20
ENDBRANCH  18  19
ENDBRANCH   2  18
TORSDOF 7
ENDMDL
