MODEL 1
REMARK VINA RESULT:      -7.5      0.000      0.000
REMARK  Name = 
REMARK  7 active torsions:
REMARK  status: ('A' for Active; 'I' for Inactive)
REMARK    1  A    between atoms: C_1  and  C_2
REMARK    2  A    between atoms: C_7  and  N_8
REMARK    3  A    between atoms: C_9  and  C_11
REMARK    4  A    between atoms: C_11  and  C_12
REMARK    5  A    between atoms: C_12  and  O_13
REMARK    6  A    between atoms: C_12  and  C_14
REMARK    7  A    between atoms: C_12  and  C_18
REMARK                            x       y       z     vdW  Elec       q    Type
REMARK                         _______ _______ _______ _____ _____    ______ ____
ROOT
ATOM      1  C   UNL     1       3.268   4.556  19.495  0.00  0.00    +0.000 C 
ENDROOT
BRANCH   1   3
ATOM      2  N   UNL     1       4.294   4.875  17.285  0.00  0.00    +0.000 N 
ATOM      3  C   UNL     1       4.445   4.379  18.559  0.00  0.00    +0.000 C 
ATOM      4  O   UNL     1       5.399   3.732  18.987  0.00  0.00    +0.000 OA
ATOM      5  H   UNL     1       3.379   5.252  17.040  0.00  0.00    +0.000 HD
BRANCH   2  12
ATOM      6  C   UNL     1       6.525   6.819  17.326  0.00  0.00    +0.000 C 
ATOM      7  C   UNL     1       6.329   5.779  16.254  0.00  0.00    +0.000 A 
ATOM      8  C   UNL     1       7.278   5.732  15.215  0.00  0.00    +0.000 A 
ATOM      9  C   UNL     1       7.192   4.798  14.190  0.00  0.00    +0.000 A 
ATOM     10  C   UNL     1       6.159   3.868  14.203  0.00  0.00    +0.000 A 
ATOM     11  C   UNL     1       5.217   3.894  15.227  0.00  0.00    +0.000 A 
ATOM     12  C   UNL     1       5.271   4.847  16.255  0.00  0.00    +0.000 A 
ENDBRANCH   2  12
ENDBRANCH   1   3
BRANCH   1  13
ATOM     13  C   UNL     1       2.362   3.330  19.716  0.00  0.00    +0.000 C 
BRANCH  13  14
ATOM     14  C   UNL     1       1.477   3.616  20.944  0.00  0.00    +0.000 C 
ATOM     15  F   UNL     1       0.497   4.511  20.685  0.00  0.00    +0.000 F 
ATOM     16  F   UNL     1       0.906   2.554  21.529  0.00  0.00    +0.000 F 
ATOM     17  F   UNL     1       2.261   4.199  21.896  0.00  0.00    +0.000 F 
ENDBRANCH  13  14
BRANCH  13  18
ATOM     18  C   UNL     1       1.506   3.043  18.477  0.00  0.00    +0.000 C 
ATOM     19  F   UNL     1       1.155   4.173  17.826  0.00  0.00    +0.000 F 
ATOM     20  F   UNL     1       2.206   2.291  17.590  0.00  0.00    +0.000 F 
ATOM     21  F   UNL     1       0.370   2.364  18.715  0.00  0.00    +0.000 F 
ENDBRANCH  13  18
BRANCH  13  22
ATOM     22  O   UNL     1       3.304   2.232  20.012  0.00  0.00    +0.000 OA
ATOM     23  H   UNL     1       4.069   2.331  19.404  0.00  0.00    +0.000 HD
ENDBRANCH  13  22
ENDBRANCH   1  13
TORSDOF 6
ENDMDL
MODEL 2
REMARK VINA RESULT:      -7.5      0.752      1.427
REMARK  Name = 
REMARK  7 active torsions:
REMARK  status: ('A' for Active; 'I' for Inactive)
REMARK    1  A    between atoms: C_1  and  C_2
REMARK    2  A    between atoms: C_7  and  N_8
REMARK    3  A    between atoms: C_9  and  C_11
REMARK    4  A    between atoms: C_11  and  C_12
REMARK    5  A    between atoms: C_12  and  O_13
REMARK    6  A    between atoms: C_12  and  C_14
REMARK    7  A    between atoms: C_12  and  C_18
REMARK                            x       y       z     vdW  Elec       q    Type
REMARK                         _______ _______ _______ _____ _____    ______ ____
ROOT
ATOM      1  C   UNL     1       3.421   4.466  19.818  0.00  0.00    +0.000 C 
ENDROOT
BRANCH   1   3
ATOM      2  N   UNL     1       4.295   4.766  17.541  0.00  0.00    +0.000 N 
ATOM      3  C   UNL     1       4.559   4.351  18.826  0.00  0.00    +0.000 C 
ATOM      4  O   UNL     1       5.591   3.818  19.227  0.00  0.00    +0.000 OA
ATOM      5  H   UNL     1       3.336   5.045  17.332  0.00  0.00    +0.000 HD
BRANCH   2  12
ATOM      6  C   UNL     1       6.326   6.911  17.363  0.00  0.00    +0.000 C 
ATOM      7  C   UNL     1       6.175   5.803  16.354  0.00  0.00    +0.000 A 
ATOM      8  C   UNL     1       7.069   5.791  15.266  0.00  0.00    +0.000 A 
ATOM      9  C   UNL     1       7.020   4.801  14.292  0.00  0.00    +0.000 A 
ATOM     10  C   UNL     1       6.085   3.780  14.409  0.00  0.00    +0.000 A 
ATOM     11  C   UNL     1       5.200   3.771  15.482  0.00  0.00    +0.000 A 
ATOM     12  C   UNL     1       5.215   4.776  16.459  0.00  0.00    +0.000 A 
ENDBRANCH   2  12
ENDBRANCH   1   3
BRANCH   1  13
ATOM     13  C   UNL     1       2.483   3.251  19.947  0.00  0.00    +0.000 C 
BRANCH  13  14
ATOM     14  C   UNL     1       2.425   2.859  21.436  0.00  0.00    +0.000 C 
ATOM     15  F   UNL     1       3.452   2.061  21.807  0.00  0.00    +0.000 F 
ATOM     16  F   UNL     1       2.360   3.866  22.317  0.00  0.00    +0.000 F 
ATOM     17  F   UNL     1       1.298   2.113  21.627  0.00  0.00    +0.000 F 
ENDBRANCH  13  14
BRANCH  13  18
ATOM     18  C   UNL     1       1.083   3.571  19.410  0.00  0.00    +0.000 C 
ATOM     19  F   UNL     1       0.362   4.315  20.277  0.00  0.00    +0.000 F 
ATOM     20  F   UNL     1       1.178   4.298  18.267  0.00  0.00    +0.000 F 
ATOM     21  F   UNL     1       0.333   2.499  19.101  0.00  0.00    +0.000 F 
ENDBRANCH  13  18
BRANCH  13  22
ATOM     22  O   UNL     1       3.153   2.192  19.167  0.00  0.00    +0.000 OA
ATOM     23  H   UNL     1       4.114   2.245  19.365  0.00  0.00    +0.000 HD
ENDBRANCH  13  22
ENDBRANCH   1  13
TORSDOF 6
ENDMDL
MODEL 3
REMARK VINA RESULT:      -7.4      0.123      1.154
REMARK  Name = 
REMARK  7 active torsions:
REMARK  status: ('A' for Active; 'I' for Inactive)
REMARK    1  A    between atoms: C_1  and  C_2
REMARK    2  A    between atoms: C_7  and  N_8
REMARK    3  A    between atoms: C_9  and  C_11
REMARK    4  A    between atoms: C_11  and  C_12
REMARK    5  A    between atoms: C_12  and  O_13
REMARK    6  A    between atoms: C_12  and  C_14
REMARK    7  A    between atoms: C_12  and  C_18
REMARK                            x       y       z     vdW  Elec       q    Type
REMARK                         _______ _______ _______ _____ _____    ______ ____
ROOT
ATOM      1  C   UNL     1       3.340   4.566  19.452  0.00  0.00    +0.000 C 
ENDROOT
BRANCH   1   3
ATOM      2  N   UNL     1       4.352   4.898  17.237  0.00  0.00    +0.000 N 
ATOM      3  C   UNL     1       4.496   4.362  18.496  0.00  0.00    +0.000 C 
ATOM      4  O   UNL     1       5.426   3.662  18.893  0.00  0.00    +0.000 OA
ATOM      5  H   UNL     1       3.452   5.322  17.014  0.00  0.00    +0.000 HD
BRANCH   2  12
ATOM      6  C   UNL     1       6.715   6.677  17.344  0.00  0.00    +0.000 C 
ATOM      7  C   UNL     1       6.435   5.709  16.225  0.00  0.00    +0.000 A 
ATOM      8  C   UNL     1       7.368   5.648  15.172  0.00  0.00    +0.000 A 
ATOM      9  C   UNL     1       7.206   4.775  14.103  0.00  0.00    +0.000 A 
ATOM     10  C   UNL     1       6.111   3.920  14.084  0.00  0.00    +0.000 A 
ATOM     11  C   UNL     1       5.184   3.960  15.121  0.00  0.00    +0.000 A 
ATOM     12  C   UNL     1       5.315   4.853  16.194  0.00  0.00    +0.000 A 
ENDBRANCH   2  12
ENDBRANCH   1   3
BRANCH   1  13
ATOM     13  C   UNL     1       2.382   3.377  19.651  0.00  0.00    +0.000 C 
BRANCH  13  14
ATOM     14  C   UNL     1       1.479   3.698  20.857  0.00  0.00    +0.000 C 
ATOM     15  F   UNL     1       2.164   4.226  21.897  0.00  0.00    +0.000 F 
ATOM     16  F   UNL     1       0.428   4.495  20.622  0.00  0.00    +0.000 F 
ATOM     17  F   UNL     1       0.967   2.520  21.320  0.00  0.00    +0.000 F 
ENDBRANCH  13  14
BRANCH  13  18
ATOM     18  C   UNL     1       1.545   3.122  18.392  0.00  0.00    +0.000 C 
ATOM     19  F   UNL     1       2.212   2.386  17.476  0.00  0.00    +0.000 F 
ATOM     20  F   UNL     1       0.428   2.418  18.710  0.00  0.00    +0.000 F 
ATOM     21  F   UNL     1       1.113   4.228  17.761  0.00  0.00    +0.000 F 
ENDBRANCH  13  18
BRANCH  13  22
ATOM     22  O   UNL     1       3.273   2.243  19.969  0.00  0.00    +0.000 OA
ATOM     23  H   UNL     1       3.197   1.596  19.235  0.00  0.00    +0.000 HD
ENDBRANCH  13  22
ENDBRANCH   1  13
TORSDOF 6
ENDMDL
MODEL 4
REMARK VINA RESULT:      -7.4      1.851      2.456
REMARK  Name = 
REMARK  7 active torsions:
REMARK  status: ('A' for Active; 'I' for Inactive)
REMARK    1  A    between atoms: C_1  and  C_2
REMARK    2  A    between atoms: C_7  and  N_8
REMARK    3  A    between atoms: C_9  and  C_11
REMARK    4  A    between atoms: C_11  and  C_12
REMARK    5  A    between atoms: C_12  and  O_13
REMARK    6  A    between atoms: C_12  and  C_14
REMARK    7  A    between atoms: C_12  and  C_18
REMARK                            x       y       z     vdW  Elec       q    Type
REMARK                         _______ _______ _______ _____ _____    ______ ____
ROOT
ATOM      1  C   UNL     1       2.156   4.528  18.630  0.00  0.00    +0.000 C 
ENDROOT
BRANCH   1   3
ATOM      2  N   UNL     1       4.523   5.047  18.217  0.00  0.00    +0.000 N 
ATOM      3  C   UNL     1       3.343   5.453  18.797  0.00  0.00    +0.000 C 
ATOM      4  O   UNL     1       3.177   6.443  19.506  0.00  0.00    +0.000 OA
ATOM      5  H   UNL     1       4.534   4.121  17.789  0.00  0.00    +0.000 HD
BRANCH   2  12
ATOM      6  C   UNL     1       5.025   7.102  16.147  0.00  0.00    +0.000 C 
ATOM      7  C   UNL     1       6.006   6.734  17.229  0.00  0.00    +0.000 A 
ATOM      8  C   UNL     1       7.233   7.424  17.254  0.00  0.00    +0.000 A 
ATOM      9  C   UNL     1       8.196   7.167  18.223  0.00  0.00    +0.000 A 
ATOM     10  C   UNL     1       7.931   6.225  19.209  0.00  0.00    +0.000 A 
ATOM     11  C   UNL     1       6.720   5.540  19.206  0.00  0.00    +0.000 A 
ATOM     12  C   UNL     1       5.748   5.765  18.221  0.00  0.00    +0.000 A 
ENDBRANCH   2  12
ENDBRANCH   1   3
BRANCH   1  13
ATOM     13  C   UNL     1       2.111   3.283  19.536  0.00  0.00    +0.000 C 
BRANCH  13  14
ATOM     14  C   UNL     1       1.304   3.649  20.797  0.00  0.00    +0.000 C 
ATOM     15  F   UNL     1       0.310   4.530  20.544  0.00  0.00    +0.000 F 
ATOM     16  F   UNL     1       0.773   2.629  21.483  0.00  0.00    +0.000 F 
ATOM     17  F   UNL     1       2.147   4.289  21.659  0.00  0.00    +0.000 F 
ENDBRANCH  13  14
BRANCH  13  18
ATOM     18  C   UNL     1       1.480   2.090  18.809  0.00  0.00    +0.000 C 
ATOM     19  F   UNL     1       2.002   1.910  17.576  0.00  0.00    +0.000 F 
ATOM     20  F   UNL     1       1.719   0.945  19.498  0.00  0.00    +0.000 F 
ATOM     21  F   UNL     1       0.145   2.155  18.658  0.00  0.00    +0.000 F 
ENDBRANCH  13  18
BRANCH  13  22
ATOM     22  O   UNL     1       3.524   3.040  19.889  0.00  0.00    +0.000 OA
ATOM     23  H   UNL     1       3.545   2.741  20.824  0.00  0.00    +0.000 HD
ENDBRANCH  13  22
ENDBRANCH   1  13
TORSDOF 6
ENDMDL
MODEL 5
REMARK VINA RESULT:      -7.3      1.233      1.558
REMARK  Name = 
REMARK  7 active torsions:
REMARK  status: ('A' for Active; 'I' for Inactive)
REMARK    1  A    between atoms: C_1  and  C_2
REMARK    2  A    between atoms: C_7  and  N_8
REMARK    3  A    between atoms: C_9  and  C_11
REMARK    4  A    between atoms: C_11  and  C_12
REMARK    5  A    between atoms: C_12  and  O_13
REMARK    6  A    between atoms: C_12  and  C_14
REMARK    7  A    between atoms: C_12  and  C_18
REMARK                            x       y       z     vdW  Elec       q    Type
REMARK                         _______ _______ _______ _____ _____    ______ ____
ROOT
ATOM      1  C   UNL     1       3.271   4.596  19.980  0.00  0.00    +0.000 C 
ENDROOT
BRANCH   1   3
ATOM      2  N   UNL     1       4.908   4.246  18.181  0.00  0.00    +0.000 N 
ATOM      3  C   UNL     1       3.842   4.988  18.634  0.00  0.00    +0.000 C 
ATOM      4  O   UNL     1       3.364   5.987  18.100  0.00  0.00    +0.000 OA
ATOM      5  H   UNL     1       5.285   3.542  18.815  0.00  0.00    +0.000 HD
BRANCH   2  12
ATOM      6  C   UNL     1       7.648   5.365  18.139  0.00  0.00    +0.000 C 
ATOM      7  C   UNL     1       6.878   4.964  16.907  0.00  0.00    +0.000 A 
ATOM      8  C   UNL     1       7.516   5.129  15.662  0.00  0.00    +0.000 A 
ATOM      9  C   UNL     1       6.894   4.773  14.471  0.00  0.00    +0.000 A 
ATOM     10  C   UNL     1       5.622   4.216  14.510  0.00  0.00    +0.000 A 
ATOM     11  C   UNL     1       4.981   4.037  15.732  0.00  0.00    +0.000 A 
ATOM     12  C   UNL     1       5.580   4.416  16.942  0.00  0.00    +0.000 A 
ENDBRANCH   2  12
ENDBRANCH   1   3
BRANCH   1  13
ATOM     13  C   UNL     1       2.410   3.319  20.027  0.00  0.00    +0.000 C 
BRANCH  13  14
ATOM     14  C   UNL     1       2.377   2.828  21.486  0.00  0.00    +0.000 C 
ATOM     15  F   UNL     1       1.225   2.193  21.799  0.00  0.00    +0.000 F 
ATOM     16  F   UNL     1       3.389   2.041  21.875  0.00  0.00    +0.000 F 
ATOM     17  F   UNL     1       2.417   3.927  22.296  0.00  0.00    +0.000 F 
ENDBRANCH  13  14
BRANCH  13  18
ATOM     18  C   UNL     1       0.992   3.587  19.506  0.00  0.00    +0.000 C 
ATOM     19  F   UNL     1       0.323   4.470  20.279  0.00  0.00    +0.000 F 
ATOM     20  F   UNL     1       1.047   4.129  18.263  0.00  0.00    +0.000 F 
ATOM     21  F   UNL     1       0.211   2.498  19.396  0.00  0.00    +0.000 F 
ENDBRANCH  13  18
BRANCH  13  22
ATOM     22  O   UNL     1       3.143   2.356  19.182  0.00  0.00    +0.000 OA
ATOM     23  H   UNL     1       4.024   2.217  19.593  0.00  0.00    +0.000 HD
ENDBRANCH  13  22
ENDBRANCH   1  13
TORSDOF 6
ENDMDL
MODEL 6
REMARK VINA RESULT:      -7.3      3.195      6.186
REMARK  Name = 
REMARK  7 active torsions:
REMARK  status: ('A' for Active; 'I' for Inactive)
REMARK    1  A    between atoms: C_1  and  C_2
REMARK    2  A    between atoms: C_7  and  N_8
REMARK    3  A    between atoms: C_9  and  C_11
REMARK    4  A    between atoms: C_11  and  C_12
REMARK    5  A    between atoms: C_12  and  O_13
REMARK    6  A    between atoms: C_12  and  C_14
REMARK    7  A    between atoms: C_12  and  C_18
REMARK                            x       y       z     vdW  Elec       q    Type
REMARK                         _______ _______ _______ _____ _____    ______ ____
ROOT
ATOM      1  C   UNL     1       6.229   5.883  18.456  0.00  0.00    +0.000 C 
ENDROOT
BRANCH   1   3
ATOM      2  N   UNL     1       4.032   5.259  19.363  0.00  0.00    +0.000 N 
ATOM      3  C   UNL     1       5.298   4.836  19.030  0.00  0.00    +0.000 C 
ATOM      4  O   UNL     1       5.776   3.722  19.231  0.00  0.00    +0.000 OA
ATOM      5  H   UNL     1       3.839   6.256  19.275  0.00  0.00    +0.000 HD
BRANCH   2  12
ATOM      6  C   UNL     1       1.728   4.545  17.649  0.00  0.00    +0.000 C 
ATOM      7  C   UNL     1       1.879   4.116  19.085  0.00  0.00    +0.000 A 
ATOM      8  C   UNL     1       0.857   3.318  19.634  0.00  0.00    +0.000 A 
ATOM      9  C   UNL     1       0.914   2.860  20.945  0.00  0.00    +0.000 A 
ATOM     10  C   UNL     1       2.019   3.174  21.727  0.00  0.00    +0.000 A 
ATOM     11  C   UNL     1       3.042   3.954  21.198  0.00  0.00    +0.000 A 
ATOM     12  C   UNL     1       2.990   4.449  19.887  0.00  0.00    +0.000 A 
ENDBRANCH   2  12
ENDBRANCH   1   3
BRANCH   1  13
ATOM     13  C   UNL     1       6.368   5.926  16.922  0.00  0.00    +0.000 C 
BRANCH  13  14
ATOM     14  C   UNL     1       7.059   4.623  16.477  0.00  0.00    +0.000 C 
ATOM     15  F   UNL     1       8.068   4.258  17.299  0.00  0.00    +0.000 F 
ATOM     16  F   UNL     1       6.268   3.554  16.311  0.00  0.00    +0.000 F 
ATOM     17  F   UNL     1       7.643   4.855  15.265  0.00  0.00    +0.000 F 
ENDBRANCH  13  14
BRANCH  13  18
ATOM     18  C   UNL     1       5.001   6.081  16.246  0.00  0.00    +0.000 C 
ATOM     19  F   UNL     1       4.233   7.012  16.853  0.00  0.00    +0.000 F 
ATOM     20  F   UNL     1       5.160   6.493  14.962  0.00  0.00    +0.000 F 
ATOM     21  F   UNL     1       4.267   4.956  16.181  0.00  0.00    +0.000 F 
ENDBRANCH  13  18
BRANCH  13  22
ATOM     22  O   UNL     1       7.251   7.082  16.671  0.00  0.00    +0.000 OA
ATOM     23  H   UNL     1       6.954   7.811  17.258  0.00  0.00    +0.000 HD
ENDBRANCH  13  22
ENDBRANCH   1  13
TORSDOF 6
ENDMDL
MODEL 7
REMARK VINA RESULT:      -7.2      3.809      6.419
REMARK  Name = 
REMARK  7 active torsions:
REMARK  status: ('A' for Active; 'I' for Inactive)
REMARK    1  A    between atoms: C_1  and  C_2
REMARK    2  A    between atoms: C_7  and  N_8
REMARK    3  A    between atoms: C_9  and  C_11
REMARK    4  A    between atoms: C_11  and  C_12
REMARK    5  A    between atoms: C_12  and  O_13
REMARK    6  A    between atoms: C_12  and  C_14
REMARK    7  A    between atoms: C_12  and  C_18
REMARK                            x       y       z     vdW  Elec       q    Type
REMARK                         _______ _______ _______ _____ _____    ______ ____
ROOT
ATOM      1  C   UNL     1       6.330   5.664  19.025  0.00  0.00    +0.000 C 
ENDROOT
BRANCH   1   3
ATOM      2  N   UNL     1       3.958   5.085  19.303  0.00  0.00    +0.000 N 
ATOM      3  C   UNL     1       5.255   4.626  19.268  0.00  0.00    +0.000 C 
ATOM      4  O   UNL     1       5.634   3.480  19.500  0.00  0.00    +0.000 OA
ATOM      5  H   UNL     1       3.822   6.094  19.243  0.00  0.00    +0.000 HD
BRANCH   2  12
ATOM      6  C   UNL     1       2.761   3.680  16.990  0.00  0.00    +0.000 C 
ATOM      7  C   UNL     1       2.205   3.632  18.390  0.00  0.00    +0.000 A 
ATOM      8  C   UNL     1       1.047   2.859  18.601  0.00  0.00    +0.000 A 
ATOM      9  C   UNL     1       0.469   2.740  19.859  0.00  0.00    +0.000 A 
ATOM     10  C   UNL     1       1.063   3.376  20.942  0.00  0.00    +0.000 A 
ATOM     11  C   UNL     1       2.213   4.136  20.753  0.00  0.00    +0.000 A 
ATOM     12  C   UNL     1       2.795   4.292  19.487  0.00  0.00    +0.000 A 
ENDBRANCH   2  12
ENDBRANCH   1   3
BRANCH   1  13
ATOM     13  C   UNL     1       6.523   6.141  17.574  0.00  0.00    +0.000 C 
BRANCH  13  14
ATOM     14  C   UNL     1       7.536   7.302  17.592  0.00  0.00    +0.000 C 
ATOM     15  F   UNL     1       8.416   7.213  18.614  0.00  0.00    +0.000 F 
ATOM     16  F   UNL     1       8.241   7.497  16.470  0.00  0.00    +0.000 F 
ATOM     17  F   UNL     1       6.841   8.457  17.809  0.00  0.00    +0.000 F 
ENDBRANCH  13  14
BRANCH  13  18
ATOM     18  C   UNL     1       7.015   4.999  16.675  0.00  0.00    +0.000 C 
ATOM     19  F   UNL     1       8.022   4.301  17.243  0.00  0.00    +0.000 F 
ATOM     20  F   UNL     1       6.010   4.113  16.456  0.00  0.00    +0.000 F 
ATOM     21  F   UNL     1       7.442   5.376  15.457  0.00  0.00    +0.000 F 
ENDBRANCH  13  18
BRANCH  13  22
ATOM     22  O   UNL     1       5.190   6.633  17.174  0.00  0.00    +0.000 OA
ATOM     23  H   UNL     1       4.712   6.884  17.994  0.00  0.00    +0.000 HD
ENDBRANCH  13  22
ENDBRANCH   1  13
TORSDOF 6
ENDMDL
MODEL 8
REMARK VINA RESULT:      -7.2      3.493      6.371
REMARK  Name = 
REMARK  7 active torsions:
REMARK  status: ('A' for Active; 'I' for Inactive)
REMARK    1  A    between atoms: C_1  and  C_2
REMARK    2  A    between atoms: C_7  and  N_8
REMARK    3  A    between atoms: C_9  and  C_11
REMARK    4  A    between atoms: C_11  and  C_12
REMARK    5  A    between atoms: C_12  and  O_13
REMARK    6  A    between atoms: C_12  and  C_14
REMARK    7  A    between atoms: C_12  and  C_18
REMARK                            x       y       z     vdW  Elec       q    Type
REMARK                         _______ _______ _______ _____ _____    ______ ____
ROOT
ATOM      1  C   UNL     1       6.626   4.552  17.695  0.00  0.00    +0.000 C 
ENDROOT
BRANCH   1   3
ATOM      2  N   UNL     1       4.510   3.632  18.540  0.00  0.00    +0.000 N 
ATOM      3  C   UNL     1       5.537   4.523  18.747  0.00  0.00    +0.000 C 
ATOM      4  O   UNL     1       5.616   5.356  19.648  0.00  0.00    +0.000 OA
ATOM      5  H   UNL     1       4.514   3.115  17.661  0.00  0.00    +0.000 HD
BRANCH   2  12
ATOM      6  C   UNL     1       1.812   4.534  17.725  0.00  0.00    +0.000 C 
ATOM      7  C   UNL     1       2.117   3.856  19.035  0.00  0.00    +0.000 A 
ATOM      8  C   UNL     1       1.041   3.634  19.916  0.00  0.00    +0.000 A 
ATOM      9  C   UNL     1       1.220   3.001  21.141  0.00  0.00    +0.000 A 
ATOM     10  C   UNL     1       2.485   2.551  21.494  0.00  0.00    +0.000 A 
ATOM     11  C   UNL     1       3.558   2.754  20.632  0.00  0.00    +0.000 A 
ATOM     12  C   UNL     1       3.404   3.415  19.405  0.00  0.00    +0.000 A 
ENDBRANCH   2  12
ENDBRANCH   1   3
BRANCH   1  13
ATOM     13  C   UNL     1       6.653   5.771  16.754  0.00  0.00    +0.000 C 
BRANCH  13  14
ATOM     14  C   UNL     1       5.213   6.018  16.265  0.00  0.00    +0.000 C 
ATOM     15  F   UNL     1       4.634   4.907  15.758  0.00  0.00    +0.000 F 
ATOM     16  F   UNL     1       4.362   6.545  17.156  0.00  0.00    +0.000 F 
ATOM     17  F   UNL     1       5.272   6.903  15.228  0.00  0.00    +0.000 F 
ENDBRANCH  13  14
BRANCH  13  18
ATOM     18  C   UNL     1       7.212   7.009  17.465  0.00  0.00    +0.000 C 
ATOM     19  F   UNL     1       8.044   7.720  16.673  0.00  0.00    +0.000 F 
ATOM     20  F   UNL     1       6.199   7.846  17.807  0.00  0.00    +0.000 F 
ATOM     21  F   UNL     1       7.881   6.758  18.604  0.00  0.00    +0.000 F 
ENDBRANCH  13  18
BRANCH  13  22
ATOM     22  O   UNL     1       7.506   5.340  15.628  0.00  0.00    +0.000 OA
ATOM     23  H   UNL     1       7.650   4.373  15.723  0.00  0.00    +0.000 HD
ENDBRANCH  13  22
ENDBRANCH   1  13
TORSDOF 6
ENDMDL
MODEL 9
REMARK VINA RESULT:      -7.2      3.812      6.360
REMARK  Name = 
REMARK  7 active torsions:
REMARK  status: ('A' for Active; 'I' for Inactive)
REMARK    1  A    between atoms: C_1  and  C_2
REMARK    2  A    between atoms: C_7  and  N_8
REMARK    3  A    between atoms: C_9  and  C_11
REMARK    4  A    between atoms: C_11  and  C_12
REMARK    5  A    between atoms: C_12  and  O_13
REMARK    6  A    between atoms: C_12  and  C_14
REMARK    7  A    between atoms: C_12  and  C_18
REMARK                            x       y       z     vdW  Elec       q    Type
REMARK                         _______ _______ _______ _____ _____    ______ ____
ROOT
ATOM      1  C   UNL     1       6.336   5.640  19.003  0.00  0.00    +0.000 C 
ENDROOT
BRANCH   1   3
ATOM      2  N   UNL     1       3.962   5.071  19.289  0.00  0.00    +0.000 N 
ATOM      3  C   UNL     1       5.258   4.610  19.268  0.00  0.00    +0.000 C 
ATOM      4  O   UNL     1       5.635   3.469  19.527  0.00  0.00    +0.000 OA
ATOM      5  H   UNL     1       3.827   6.078  19.205  0.00  0.00    +0.000 HD
BRANCH   2  12
ATOM      6  C   UNL     1       2.748   3.642  16.999  0.00  0.00    +0.000 C 
ATOM      7  C   UNL     1       2.200   3.612  18.401  0.00  0.00    +0.000 A 
ATOM      8  C   UNL     1       1.040   2.846  18.628  0.00  0.00    +0.000 A 
ATOM      9  C   UNL     1       0.469   2.743  19.890  0.00  0.00    +0.000 A 
ATOM     10  C   UNL     1       1.070   3.390  20.962  0.00  0.00    +0.000 A 
ATOM     11  C   UNL     1       2.221   4.144  20.759  0.00  0.00    +0.000 A 
ATOM     12  C   UNL     1       2.797   4.283  19.488  0.00  0.00    +0.000 A 
ENDBRANCH   2  12
ENDBRANCH   1   3
BRANCH   1  13
ATOM     13  C   UNL     1       6.486   6.135  17.553  0.00  0.00    +0.000 C 
BRANCH  13  14
ATOM     14  C   UNL     1       7.491   7.302  17.557  0.00  0.00    +0.000 C 
ATOM     15  F   UNL     1       8.226   7.364  16.424  0.00  0.00    +0.000 F 
ATOM     16  F   UNL     1       6.987   8.524  17.776  0.00  0.00    +0.000 F 
ATOM     17  F   UNL     1       8.388   7.076  18.560  0.00  0.00    +0.000 F 
ENDBRANCH  13  14
BRANCH  13  18
ATOM     18  C   UNL     1       6.960   5.007  16.628  0.00  0.00    +0.000 C 
ATOM     19  F   UNL     1       7.356   5.469  15.422  0.00  0.00    +0.000 F 
ATOM     20  F   UNL     1       8.034   4.380  17.170  0.00  0.00    +0.000 F 
ATOM     21  F   UNL     1       6.052   4.042  16.395  0.00  0.00    +0.000 F 
ENDBRANCH  13  18
BRANCH  13  22
ATOM     22  O   UNL     1       5.139   6.623  17.195  0.00  0.00    +0.000 OA
ATOM     23  H   UNL     1       4.619   5.848  16.889  0.00  0.00    +0.000 HD
ENDBRANCH  13  22
ENDBRANCH   1  13
TORSDOF 6
ENDMDL
