MODEL 1
REMARK VINA RESULT:      -8.3      0.000      0.000
REMARK  Name = 
REMARK  4 active torsions:
REMARK  status: ('A' for Active; 'I' for Inactive)
REMARK    1  A    between atoms: C_1  and  C_2
REMARK    2  A    between atoms: C_7  and  C_8
REMARK    3  A    between atoms: C_11  and  C_12
REMARK    4  A    between atoms: C_15  and  C_16
REMARK                            x       y       z     vdW  Elec       q    Type
REMARK                         _______ _______ _______ _____ _____    ______ ____
ROOT
ATOM      1  C   UNL     1       7.387   6.700  17.504  0.00  0.00    +0.000 A 
ATOM      2  N   UNL     1       7.964   6.308  18.652  0.00  0.00    +0.000 NA
ATOM      3  N   UNL     1       8.517   7.451  19.088  0.00  0.00    +0.000 N 
ATOM      4  C   UNL     1       8.267   8.495  18.240  0.00  0.00    +0.000 A 
ATOM      5  N   UNL     1       7.531   8.042  17.249  0.00  0.00    +0.000 NA
ATOM      6  H   UNL     1       9.025   7.453  19.964  0.00  0.00    +0.000 HD
ENDROOT
BRANCH   1  13
ATOM      7  C   UNL     1       4.460   6.140  17.890  0.00  0.00    +0.000 C 
ATOM      8  C   UNL     1       5.277   5.531  16.780  0.00  0.00    +0.000 A 
ATOM      9  C   UNL     1       4.641   4.650  15.888  0.00  0.00    +0.000 A 
ATOM     10  C   UNL     1       5.345   4.063  14.837  0.00  0.00    +0.000 A 
ATOM     11  C   UNL     1       6.695   4.346  14.658  0.00  0.00    +0.000 A 
ATOM     12  C   UNL     1       7.342   5.216  15.535  0.00  0.00    +0.000 A 
ATOM     13  C   UNL     1       6.652   5.814  16.604  0.00  0.00    +0.000 A 
ENDBRANCH   1  13
BRANCH   4  14
ATOM     14  C   UNL     1       8.704   9.871  18.428  0.00  0.00    +0.000 A 
ATOM     15  C   UNL     1       8.333  10.903  17.564  0.00  0.00    +0.000 A 
ATOM     16  C   UNL     1       8.786  12.210  17.788  0.00  0.00    +0.000 A 
ATOM     17  C   UNL     1       9.604  12.534  18.886  0.00  0.00    +0.000 A 
ATOM     18  C   UNL     1       9.951  11.486  19.755  0.00  0.00    +0.000 A 
ATOM     19  C   UNL     1       9.509  10.179  19.530  0.00  0.00    +0.000 A 
BRANCH  17  20
ATOM     20  C   UNL     1      10.078  13.919  19.119  0.00  0.00    +0.000 A 
ATOM     21  C   UNL     1      11.006  14.217  20.134  0.00  0.00    +0.000 A 
ATOM     22  C   UNL     1      11.446  15.524  20.363  0.00  0.00    +0.000 A 
ATOM     23  C   UNL     1      10.980  16.565  19.567  0.00  0.00    +0.000 A 
ATOM     24  C   UNL     1      10.070  16.302  18.550  0.00  0.00    +0.000 A 
ATOM     25  C   UNL     1       9.620  14.995  18.335  0.00  0.00    +0.000 A 
ENDBRANCH  17  20
ENDBRANCH   4  14
TORSDOF 3
ENDMDL
MODEL 2
REMARK VINA RESULT:      -8.2      6.301      8.204
REMARK  Name = 
REMARK  4 active torsions:
REMARK  status: ('A' for Active; 'I' for Inactive)
REMARK    1  A    between atoms: C_1  and  C_2
REMARK    2  A    between atoms: C_7  and  C_8
REMARK    3  A    between atoms: C_11  and  C_12
REMARK    4  A    between atoms: C_15  and  C_16
REMARK                            x       y       z     vdW  Elec       q    Type
REMARK                         _______ _______ _______ _____ _____    ______ ____
ROOT
ATOM      1  C   UNL     1       4.135   5.470  18.561  0.00  0.00    +0.000 A 
ATOM      2  N   UNL     1       3.758   4.732  19.618  0.00  0.00    +0.000 NA
ATOM      3  N   UNL     1       2.885   5.550  20.229  0.00  0.00    +0.000 N 
ATOM      4  C   UNL     1       2.733   6.729  19.554  0.00  0.00    +0.000 A 
ATOM      5  N   UNL     1       3.495   6.683  18.483  0.00  0.00    +0.000 NA
ATOM      6  H   UNL     1       2.424   5.239  21.075  0.00  0.00    +0.000 HD
ENDROOT
BRANCH   1  13
ATOM      7  C   UNL     1       7.089   5.610  19.091  0.00  0.00    +0.000 C 
ATOM      8  C   UNL     1       6.507   5.115  17.793  0.00  0.00    +0.000 A 
ATOM      9  C   UNL     1       7.389   4.707  16.776  0.00  0.00    +0.000 A 
ATOM     10  C   UNL     1       6.907   4.232  15.557  0.00  0.00    +0.000 A 
ATOM     11  C   UNL     1       5.537   4.155  15.332  0.00  0.00    +0.000 A 
ATOM     12  C   UNL     1       4.647   4.557  16.328  0.00  0.00    +0.000 A 
ATOM     13  C   UNL     1       5.113   5.044  17.562  0.00  0.00    +0.000 A 
ENDBRANCH   1  13
BRANCH   4  14
ATOM     14  C   UNL     1       1.849   7.823  19.935  0.00  0.00    +0.000 A 
ATOM     15  C   UNL     1       1.560   8.887  19.080  0.00  0.00    +0.000 A 
ATOM     16  C   UNL     1       0.705   9.917  19.498  0.00  0.00    +0.000 A 
ATOM     17  C   UNL     1       0.101   9.910  20.768  0.00  0.00    +0.000 A 
ATOM     18  C   UNL     1       0.389   8.820  21.606  0.00  0.00    +0.000 A 
ATOM     19  C   UNL     1       1.247   7.795  21.197  0.00  0.00    +0.000 A 
BRANCH  17  20
ATOM     20  C   UNL     1      -0.804  11.000  21.203  0.00  0.00    +0.000 A 
ATOM     21  C   UNL     1      -1.018  11.277  22.566  0.00  0.00    +0.000 A 
ATOM     22  C   UNL     1      -1.879  12.298  22.979  0.00  0.00    +0.000 A 
ATOM     23  C   UNL     1      -2.535  13.082  22.035  0.00  0.00    +0.000 A 
ATOM     24  C   UNL     1      -2.336  12.839  20.680  0.00  0.00    +0.000 A 
ATOM     25  C   UNL     1      -1.487  11.806  20.271  0.00  0.00    +0.000 A 
ENDBRANCH  17  20
ENDBRANCH   4  14
TORSDOF 3
ENDMDL
MODEL 3
REMARK VINA RESULT:      -8.2      5.793      8.126
REMARK  Name = 
REMARK  4 active torsions:
REMARK  status: ('A' for Active; 'I' for Inactive)
REMARK    1  A    between atoms: C_1  and  C_2
REMARK    2  A    between atoms: C_7  and  C_8
REMARK    3  A    between atoms: C_11  and  C_12
REMARK    4  A    between atoms: C_15  and  C_16
REMARK                            x       y       z     vdW  Elec       q    Type
REMARK                         _______ _______ _______ _____ _____    ______ ____
ROOT
ATOM      1  C   UNL     1       4.477   5.482  17.909  0.00  0.00    +0.000 A 
ATOM      2  N   UNL     1       4.379   4.742  19.026  0.00  0.00    +0.000 NA
ATOM      3  N   UNL     1       3.530   5.472  19.768  0.00  0.00    +0.000 N 
ATOM      4  C   UNL     1       3.121   6.600  19.113  0.00  0.00    +0.000 A 
ATOM      5  N   UNL     1       3.689   6.607  17.927  0.00  0.00    +0.000 NA
ATOM      6  H   UNL     1       3.262   5.138  20.686  0.00  0.00    +0.000 HD
ENDROOT
BRANCH   1  13
ATOM      7  C   UNL     1       7.349   6.347  17.743  0.00  0.00    +0.000 C 
ATOM      8  C   UNL     1       6.664   5.549  16.664  0.00  0.00    +0.000 A 
ATOM      9  C   UNL     1       7.402   5.201  15.519  0.00  0.00    +0.000 A 
ATOM     10  C   UNL     1       6.824   4.456  14.492  0.00  0.00    +0.000 A 
ATOM     11  C   UNL     1       5.498   4.045  14.590  0.00  0.00    +0.000 A 
ATOM     12  C   UNL     1       4.750   4.384  15.718  0.00  0.00    +0.000 A 
ATOM     13  C   UNL     1       5.314   5.138  16.762  0.00  0.00    +0.000 A 
ENDBRANCH   1  13
BRANCH   4  14
ATOM     14  C   UNL     1       2.188   7.594  19.626  0.00  0.00    +0.000 A 
ATOM     15  C   UNL     1       1.637   7.517  20.906  0.00  0.00    +0.000 A 
ATOM     16  C   UNL     1       0.740   8.499  21.349  0.00  0.00    +0.000 A 
ATOM     17  C   UNL     1       0.380   9.593  20.542  0.00  0.00    +0.000 A 
ATOM     18  C   UNL     1       0.961   9.664  19.266  0.00  0.00    +0.000 A 
ATOM     19  C   UNL     1       1.849   8.683  18.816  0.00  0.00    +0.000 A 
BRANCH  17  20
ATOM     20  C   UNL     1      -0.567  10.630  21.018  0.00  0.00    +0.000 A 
ATOM     21  C   UNL     1      -1.280  11.443  20.117  0.00  0.00    +0.000 A 
ATOM     22  C   UNL     1      -2.165  12.428  20.564  0.00  0.00    +0.000 A 
ATOM     23  C   UNL     1      -2.374  12.612  21.927  0.00  0.00    +0.000 A 
ATOM     24  C   UNL     1      -1.691  11.818  22.842  0.00  0.00    +0.000 A 
ATOM     25  C   UNL     1      -0.794  10.844  22.391  0.00  0.00    +0.000 A 
ENDBRANCH  17  20
ENDBRANCH   4  14
TORSDOF 3
ENDMDL
MODEL 4
REMARK VINA RESULT:      -8.2      0.165      1.384
REMARK  Name = 
REMARK  4 active torsions:
REMARK  status: ('A' for Active; 'I' for Inactive)
REMARK    1  A    between atoms: C_1  and  C_2
REMARK    2  A    between atoms: C_7  and  C_8
REMARK    3  A    between atoms: C_11  and  C_12
REMARK    4  A    between atoms: C_15  and  C_16
REMARK                            x       y       z     vdW  Elec       q    Type
REMARK                         _______ _______ _______ _____ _____    ______ ____
ROOT
ATOM      1  C   UNL     1       7.424   6.708  17.501  0.00  0.00    +0.000 A 
ATOM      2  N   UNL     1       7.967   6.282  18.653  0.00  0.00    +0.000 NA
ATOM      3  N   UNL     1       8.530   7.405  19.126  0.00  0.00    +0.000 N 
ATOM      4  C   UNL     1       8.319   8.471  18.295  0.00  0.00    +0.000 A 
ATOM      5  N   UNL     1       7.599   8.052  17.278  0.00  0.00    +0.000 NA
ATOM      6  H   UNL     1       9.017   7.380  20.014  0.00  0.00    +0.000 HD
ENDROOT
BRANCH   1  13
ATOM      7  C   UNL     1       4.485   6.177  17.818  0.00  0.00    +0.000 C 
ATOM      8  C   UNL     1       5.314   5.585  16.709  0.00  0.00    +0.000 A 
ATOM      9  C   UNL     1       4.684   4.735  15.783  0.00  0.00    +0.000 A 
ATOM     10  C   UNL     1       5.400   4.166  14.731  0.00  0.00    +0.000 A 
ATOM     11  C   UNL     1       6.757   4.435  14.584  0.00  0.00    +0.000 A 
ATOM     12  C   UNL     1       7.399   5.275  15.494  0.00  0.00    +0.000 A 
ATOM     13  C   UNL     1       6.696   5.854  16.565  0.00  0.00    +0.000 A 
ENDBRANCH   1  13
BRANCH   4  14
ATOM     14  C   UNL     1       8.776   9.835  18.523  0.00  0.00    +0.000 A 
ATOM     15  C   UNL     1       9.619  10.178  19.580  0.00  0.00    +0.000 A 
ATOM     16  C   UNL     1      10.027  11.507  19.757  0.00  0.00    +0.000 A 
ATOM     17  C   UNL     1       9.624  12.529  18.878  0.00  0.00    +0.000 A 
ATOM     18  C   UNL     1       8.792  12.161  17.809  0.00  0.00    +0.000 A 
ATOM     19  C   UNL     1       8.375  10.838  17.634  0.00  0.00    +0.000 A 
BRANCH  17  20
ATOM     20  C   UNL     1      10.060  13.933  19.068  0.00  0.00    +0.000 A 
ATOM     21  C   UNL     1       9.357  15.006  18.490  0.00  0.00    +0.000 A 
ATOM     22  C   UNL     1       9.773  16.330  18.659  0.00  0.00    +0.000 A 
ATOM     23  C   UNL     1      10.896  16.615  19.429  0.00  0.00    +0.000 A 
ATOM     24  C   UNL     1      11.606  15.577  20.022  0.00  0.00    +0.000 A 
ATOM     25  C   UNL     1      11.196  14.252  19.837  0.00  0.00    +0.000 A 
ENDBRANCH  17  20
ENDBRANCH   4  14
TORSDOF 3
ENDMDL
MODEL 5
REMARK VINA RESULT:      -8.1      5.945      7.951
REMARK  Name = 
REMARK  4 active torsions:
REMARK  status: ('A' for Active; 'I' for Inactive)
REMARK    1  A    between atoms: C_1  and  C_2
REMARK    2  A    between atoms: C_7  and  C_8
REMARK    3  A    between atoms: C_11  and  C_12
REMARK    4  A    between atoms: C_15  and  C_16
REMARK                            x       y       z     vdW  Elec       q    Type
REMARK                         _______ _______ _______ _____ _____    ______ ____
ROOT
ATOM      1  C   UNL     1       4.422   5.309  17.298  0.00  0.00    +0.000 A 
ATOM      2  N   UNL     1       4.017   4.385  18.185  0.00  0.00    +0.000 NA
ATOM      3  N   UNL     1       3.189   5.097  18.968  0.00  0.00    +0.000 N 
ATOM      4  C   UNL     1       3.089   6.397  18.555  0.00  0.00    +0.000 A 
ATOM      5  N   UNL     1       3.841   6.540  17.486  0.00  0.00    +0.000 NA
ATOM      6  H   UNL     1       2.720   4.637  19.739  0.00  0.00    +0.000 HD
ENDROOT
BRANCH   1  13
ATOM      7  C   UNL     1       7.284   6.204  17.473  0.00  0.00    +0.000 C 
ATOM      8  C   UNL     1       6.717   5.482  16.279  0.00  0.00    +0.000 A 
ATOM      9  C   UNL     1       7.568   5.223  15.189  0.00  0.00    +0.000 A 
ATOM     10  C   UNL     1       7.101   4.550  14.061  0.00  0.00    +0.000 A 
ATOM     11  C   UNL     1       5.778   4.124  14.000  0.00  0.00    +0.000 A 
ATOM     12  C   UNL     1       4.920   4.375  15.072  0.00  0.00    +0.000 A 
ATOM     13  C   UNL     1       5.370   5.056  16.216  0.00  0.00    +0.000 A 
ENDBRANCH   1  13
BRANCH   4  14
ATOM     14  C   UNL     1       2.263   7.426  19.171  0.00  0.00    +0.000 A 
ATOM     15  C   UNL     1       1.892   8.592  18.500  0.00  0.00    +0.000 A 
ATOM     16  C   UNL     1       1.097   9.554  19.140  0.00  0.00    +0.000 A 
ATOM     17  C   UNL     1       0.635   9.376  20.456  0.00  0.00    +0.000 A 
ATOM     18  C   UNL     1       1.002   8.188  21.108  0.00  0.00    +0.000 A 
ATOM     19  C   UNL     1       1.801   7.230  20.477  0.00  0.00    +0.000 A 
BRANCH  17  20
ATOM     20  C   UNL     1      -0.207  10.395  21.127  0.00  0.00    +0.000 A 
ATOM     21  C   UNL     1      -0.736  11.492  20.421  0.00  0.00    +0.000 A 
ATOM     22  C   UNL     1      -1.522  12.459  21.054  0.00  0.00    +0.000 A 
ATOM     23  C   UNL     1      -1.813  12.344  22.409  0.00  0.00    +0.000 A 
ATOM     24  C   UNL     1      -1.313  11.267  23.132  0.00  0.00    +0.000 A 
ATOM     25  C   UNL     1      -0.513  10.309  22.499  0.00  0.00    +0.000 A 
ENDBRANCH  17  20
ENDBRANCH   4  14
TORSDOF 3
ENDMDL
MODEL 6
REMARK VINA RESULT:      -8.1      6.931      8.818
REMARK  Name = 
REMARK  4 active torsions:
REMARK  status: ('A' for Active; 'I' for Inactive)
REMARK    1  A    between atoms: C_1  and  C_2
REMARK    2  A    between atoms: C_7  and  C_8
REMARK    3  A    between atoms: C_11  and  C_12
REMARK    4  A    between atoms: C_15  and  C_16
REMARK                            x       y       z     vdW  Elec       q    Type
REMARK                         _______ _______ _______ _____ _____    ______ ____
ROOT
ATOM      1  C   UNL     1       2.872   6.368  19.150  0.00  0.00    +0.000 A 
ATOM      2  N   UNL     1       2.593   5.596  20.213  0.00  0.00    +0.000 NA
ATOM      3  N   UNL     1       1.860   6.425  20.972  0.00  0.00    +0.000 N 
ATOM      4  C   UNL     1       1.692   7.646  20.380  0.00  0.00    +0.000 A 
ATOM      5  N   UNL     1       2.303   7.616  19.216  0.00  0.00    +0.000 NA
ATOM      6  H   UNL     1       1.496   6.094  21.858  0.00  0.00    +0.000 HD
ENDROOT
BRANCH   1  13
ATOM      7  C   UNL     1       2.497   3.678  17.868  0.00  0.00    +0.000 C 
ATOM      8  C   UNL     1       3.526   4.676  17.405  0.00  0.00    +0.000 A 
ATOM      9  C   UNL     1       4.357   4.327  16.325  0.00  0.00    +0.000 A 
ATOM     10  C   UNL     1       5.321   5.214  15.847  0.00  0.00    +0.000 A 
ATOM     11  C   UNL     1       5.471   6.464  16.437  0.00  0.00    +0.000 A 
ATOM     12  C   UNL     1       4.656   6.826  17.511  0.00  0.00    +0.000 A 
ATOM     13  C   UNL     1       3.683   5.944  18.010  0.00  0.00    +0.000 A 
ENDBRANCH   1  13
BRANCH   4  14
ATOM     14  C   UNL     1       0.934   8.763  20.926  0.00  0.00    +0.000 A 
ATOM     15  C   UNL     1       0.419   9.785  20.127  0.00  0.00    +0.000 A 
ATOM     16  C   UNL     1      -0.300  10.840  20.704  0.00  0.00    +0.000 A 
ATOM     17  C   UNL     1      -0.544  10.901  22.088  0.00  0.00    +0.000 A 
ATOM     18  C   UNL     1      -0.036   9.854  22.873  0.00  0.00    +0.000 A 
ATOM     19  C   UNL     1       0.690   8.804  22.303  0.00  0.00    +0.000 A 
BRANCH  17  20
ATOM     20  C   UNL     1      -1.308  12.018  22.693  0.00  0.00    +0.000 A 
ATOM     21  C   UNL     1      -0.789  13.326  22.734  0.00  0.00    +0.000 A 
ATOM     22  C   UNL     1      -1.503  14.379  23.314  0.00  0.00    +0.000 A 
ATOM     23  C   UNL     1      -2.766  14.152  23.850  0.00  0.00    +0.000 A 
ATOM     24  C   UNL     1      -3.311  12.873  23.816  0.00  0.00    +0.000 A 
ATOM     25  C   UNL     1      -2.586  11.819  23.250  0.00  0.00    +0.000 A 
ENDBRANCH  17  20
ENDBRANCH   4  14
TORSDOF 3
ENDMDL
MODEL 7
REMARK VINA RESULT:      -8.1      7.528      9.453
REMARK  Name = 
REMARK  4 active torsions:
REMARK  status: ('A' for Active; 'I' for Inactive)
REMARK    1  A    between atoms: C_1  and  C_2
REMARK    2  A    between atoms: C_7  and  C_8
REMARK    3  A    between atoms: C_11  and  C_12
REMARK    4  A    between atoms: C_15  and  C_16
REMARK                            x       y       z     vdW  Elec       q    Type
REMARK                         _______ _______ _______ _____ _____    ______ ____
ROOT
ATOM      1  C   UNL     1       2.494   6.776  19.475  0.00  0.00    +0.000 A 
ATOM      2  N   UNL     1       2.512   7.593  18.409  0.00  0.00    +0.000 NA
ATOM      3  N   UNL     1       1.791   8.637  18.848  0.00  0.00    +0.000 N 
ATOM      4  C   UNL     1       1.369   8.459  20.137  0.00  0.00    +0.000 A 
ATOM      5  N   UNL     1       1.828   7.301  20.555  0.00  0.00    +0.000 NA
ATOM      6  H   UNL     1       1.645   9.430  18.236  0.00  0.00    +0.000 HD
ENDROOT
BRANCH   1  13
ATOM      7  C   UNL     1       0.982   4.326  20.335  0.00  0.00    +0.000 C 
ATOM      8  C   UNL     1       2.434   4.301  19.933  0.00  0.00    +0.000 A 
ATOM      9  C   UNL     1       3.117   3.072  19.972  0.00  0.00    +0.000 A 
ATOM     10  C   UNL     1       4.458   2.986  19.602  0.00  0.00    +0.000 A 
ATOM     11  C   UNL     1       5.142   4.124  19.187  0.00  0.00    +0.000 A 
ATOM     12  C   UNL     1       4.480   5.352  19.145  0.00  0.00    +0.000 A 
ATOM     13  C   UNL     1       3.129   5.461  19.519  0.00  0.00    +0.000 A 
ENDBRANCH   1  13
BRANCH   4  14
ATOM     14  C   UNL     1       0.586   9.408  20.917  0.00  0.00    +0.000 A 
ATOM     15  C   UNL     1       0.279   9.201  22.263  0.00  0.00    +0.000 A 
ATOM     16  C   UNL     1      -0.482  10.145  22.967  0.00  0.00    +0.000 A 
ATOM     17  C   UNL     1      -0.945  11.326  22.360  0.00  0.00    +0.000 A 
ATOM     18  C   UNL     1      -0.609  11.525  21.011  0.00  0.00    +0.000 A 
ATOM     19  C   UNL     1       0.143  10.583  20.302  0.00  0.00    +0.000 A 
BRANCH  17  20
ATOM     20  C   UNL     1      -1.747  12.321  23.110  0.00  0.00    +0.000 A 
ATOM     21  C   UNL     1      -3.050  12.029  23.556  0.00  0.00    +0.000 A 
ATOM     22  C   UNL     1      -3.812  12.970  24.254  0.00  0.00    +0.000 A 
ATOM     23  C   UNL     1      -3.281  14.223  24.541  0.00  0.00    +0.000 A 
ATOM     24  C   UNL     1      -1.993  14.539  24.123  0.00  0.00    +0.000 A 
ATOM     25  C   UNL     1      -1.240  13.601  23.409  0.00  0.00    +0.000 A 
ENDBRANCH  17  20
ENDBRANCH   4  14
TORSDOF 3
ENDMDL
MODEL 8
REMARK VINA RESULT:      -8.0      6.797      8.681
REMARK  Name = 
REMARK  4 active torsions:
REMARK  status: ('A' for Active; 'I' for Inactive)
REMARK    1  A    between atoms: C_1  and  C_2
REMARK    2  A    between atoms: C_7  and  C_8
REMARK    3  A    between atoms: C_11  and  C_12
REMARK    4  A    between atoms: C_15  and  C_16
REMARK                            x       y       z     vdW  Elec       q    Type
REMARK                         _______ _______ _______ _____ _____    ______ ____
ROOT
ATOM      1  C   UNL     1       2.972   6.284  19.042  0.00  0.00    +0.000 A 
ATOM      2  N   UNL     1       2.694   5.523  20.113  0.00  0.00    +0.000 NA
ATOM      3  N   UNL     1       1.972   6.365  20.871  0.00  0.00    +0.000 N 
ATOM      4  C   UNL     1       1.810   7.582  20.269  0.00  0.00    +0.000 A 
ATOM      5  N   UNL     1       2.412   7.538  19.101  0.00  0.00    +0.000 NA
ATOM      6  H   UNL     1       1.612   6.044  21.762  0.00  0.00    +0.000 HD
ENDROOT
BRANCH   1  13
ATOM      7  C   UNL     1       2.679   3.526  17.888  0.00  0.00    +0.000 C 
ATOM      8  C   UNL     1       3.652   4.544  17.355  0.00  0.00    +0.000 A 
ATOM      9  C   UNL     1       4.470   4.182  16.269  0.00  0.00    +0.000 A 
ATOM     10  C   UNL     1       5.383   5.086  15.728  0.00  0.00    +0.000 A 
ATOM     11  C   UNL     1       5.496   6.367  16.259  0.00  0.00    +0.000 A 
ATOM     12  C   UNL     1       4.693   6.742  17.337  0.00  0.00    +0.000 A 
ATOM     13  C   UNL     1       3.770   5.844  17.901  0.00  0.00    +0.000 A 
ENDBRANCH   1  13
BRANCH   4  14
ATOM     14  C   UNL     1       1.065   8.710  20.811  0.00  0.00    +0.000 A 
ATOM     15  C   UNL     1       0.679   9.800  20.030  0.00  0.00    +0.000 A 
ATOM     16  C   UNL     1      -0.034  10.863  20.602  0.00  0.00    +0.000 A 
ATOM     17  C   UNL     1      -0.399  10.864  21.961  0.00  0.00    +0.000 A 
ATOM     18  C   UNL     1      -0.019   9.749  22.725  0.00  0.00    +0.000 A 
ATOM     19  C   UNL     1       0.700   8.691  22.161  0.00  0.00    +0.000 A 
BRANCH  17  20
ATOM     20  C   UNL     1      -1.155  11.989  22.560  0.00  0.00    +0.000 A 
ATOM     21  C   UNL     1      -2.404  11.789  23.178  0.00  0.00    +0.000 A 
ATOM     22  C   UNL     1      -3.123  12.851  23.735  0.00  0.00    +0.000 A 
ATOM     23  C   UNL     1      -2.601  14.140  23.703  0.00  0.00    +0.000 A 
ATOM     24  C   UNL     1      -1.365  14.368  23.108  0.00  0.00    +0.000 A 
ATOM     25  C   UNL     1      -0.656  13.306  22.538  0.00  0.00    +0.000 A 
ENDBRANCH  17  20
ENDBRANCH   4  14
TORSDOF 3
ENDMDL
MODEL 9
REMARK VINA RESULT:      -8.0      6.439      8.329
REMARK  Name = 
REMARK  4 active torsions:
REMARK  status: ('A' for Active; 'I' for Inactive)
REMARK    1  A    between atoms: C_1  and  C_2
REMARK    2  A    between atoms: C_7  and  C_8
REMARK    3  A    between atoms: C_11  and  C_12
REMARK    4  A    between atoms: C_15  and  C_16
REMARK                            x       y       z     vdW  Elec       q    Type
REMARK                         _______ _______ _______ _____ _____    ______ ____
ROOT
ATOM      1  C   UNL     1       3.922   5.794  18.582  0.00  0.00    +0.000 A 
ATOM      2  N   UNL     1       3.678   5.113  19.713  0.00  0.00    +0.000 NA
ATOM      3  N   UNL     1       2.821   5.929  20.347  0.00  0.00    +0.000 N 
ATOM      4  C   UNL     1       2.547   7.051  19.615  0.00  0.00    +0.000 A 
ATOM      5  N   UNL     1       3.215   6.967  18.485  0.00  0.00    +0.000 NA
ATOM      6  H   UNL     1       2.452   5.655  21.250  0.00  0.00    +0.000 HD
ENDROOT
BRANCH   1  13
ATOM      7  C   UNL     1       3.314   3.377  16.904  0.00  0.00    +0.000 C 
ATOM      8  C   UNL     1       4.563   4.203  16.738  0.00  0.00    +0.000 A 
ATOM      9  C   UNL     1       5.494   3.818  15.757  0.00  0.00    +0.000 A 
ATOM     10  C   UNL     1       6.663   4.549  15.553  0.00  0.00    +0.000 A 
ATOM     11  C   UNL     1       6.924   5.678  16.323  0.00  0.00    +0.000 A 
ATOM     12  C   UNL     1       6.012   6.073  17.303  0.00  0.00    +0.000 A 
ATOM     13  C   UNL     1       4.830   5.346  17.528  0.00  0.00    +0.000 A 
ENDBRANCH   1  13
BRANCH   4  14
ATOM     14  C   UNL     1       1.644   8.125  20.003  0.00  0.00    +0.000 A 
ATOM     15  C   UNL     1       1.326   9.184  19.152  0.00  0.00    +0.000 A 
ATOM     16  C   UNL     1       0.453  10.195  19.577  0.00  0.00    +0.000 A 
ATOM     17  C   UNL     1      -0.142  10.174  20.851  0.00  0.00    +0.000 A 
ATOM     18  C   UNL     1       0.175   9.090  21.686  0.00  0.00    +0.000 A 
ATOM     19  C   UNL     1       1.052   8.084  21.270  0.00  0.00    +0.000 A 
BRANCH  17  20
ATOM     20  C   UNL     1      -1.066  11.245  21.294  0.00  0.00    +0.000 A 
ATOM     21  C   UNL     1      -1.322  11.476  22.659  0.00  0.00    +0.000 A 
ATOM     22  C   UNL     1      -2.202  12.479  23.078  0.00  0.00    +0.000 A 
ATOM     23  C   UNL     1      -2.834  13.289  22.141  0.00  0.00    +0.000 A 
ATOM     24  C   UNL     1      -2.593  13.092  20.785  0.00  0.00    +0.000 A 
ATOM     25  C   UNL     1      -1.725  12.077  20.369  0.00  0.00    +0.000 A 
ENDBRANCH  17  20
ENDBRANCH   4  14
TORSDOF 3
ENDMDL
