MODEL 1
REMARK VINA RESULT:      -8.2      0.000      0.000
REMARK  Name = 
REMARK  4 active torsions:
REMARK  status: ('A' for Active; 'I' for Inactive)
REMARK    1  A    between atoms: N_5  and  C_6
REMARK    2  A    between atoms: C_6  and  C_7
REMARK    3  A    between atoms: C_7  and  C_8
REMARK    4  A    between atoms: N_15  and  C_16
REMARK                            x       y       z     vdW  Elec       q    Type
REMARK                         _______ _______ _______ _____ _____    ______ ____
ROOT
ATOM      1  O   UNL     1       2.352   3.416  22.058  0.00  0.00    +0.000 OA
ATOM      2  S   UNL     1       1.538   3.384  20.722  0.00  0.00    +0.000 S 
ATOM      3  N   UNL     1       2.797   3.261  19.666  0.00  0.00    +0.000 NA
ATOM      4  C   UNL     1       3.024   4.418  19.148  0.00  0.00    +0.000 A 
ATOM      5  N   UNL     1       3.943   4.718  18.154  0.00  0.00    +0.000 N 
ATOM      6  C   UNL     1       2.101   5.490  19.709  0.00  0.00    +0.000 A 
ATOM      7  N   UNL     1       2.245   6.787  19.275  0.00  0.00    +0.000 N 
ATOM      8  N   UNL     1       1.267   5.000  20.561  0.00  0.00    +0.000 NA
ATOM      9  H   UNL     1       4.649   5.376  18.476  0.00  0.00    +0.000 HD
ATOM     10  H   UNL     1       2.913   6.939  18.530  0.00  0.00    +0.000 HD
ENDROOT
BRANCH   7  11
ATOM     11  C   UNL     1       1.676   7.941  19.842  0.00  0.00    +0.000 A 
ATOM     12  C   UNL     1       1.575   9.096  19.053  0.00  0.00    +0.000 A 
ATOM     13  C   UNL     1       1.102  10.295  19.594  0.00  0.00    +0.000 A 
ATOM     14 CL   UNL     1       1.025  11.700  18.602  0.00  0.00    +0.000 Cl
ATOM     15  C   UNL     1       0.711  10.369  20.924  0.00  0.00    +0.000 A 
ATOM     16  C   UNL     1       0.800   9.231  21.714  0.00  0.00    +0.000 A 
ATOM     17 CL   UNL     1       0.321   9.301  23.366  0.00  0.00    +0.000 Cl
ATOM     18  C   UNL     1       1.283   8.032  21.183  0.00  0.00    +0.000 A 
ENDBRANCH   7  11
BRANCH   5  19
ATOM     19  C   UNL     1       4.554   3.646  17.352  0.00  0.00    +0.000 C 
BRANCH  19  20
ATOM     20  C   UNL     1       5.709   4.169  16.487  0.00  0.00    +0.000 C 
BRANCH  20  21
ATOM     21  C   UNL     1       6.569   5.198  17.164  0.00  0.00    +0.000 A 
ATOM     22  C   UNL     1       6.600   6.514  16.681  0.00  0.00    +0.000 A 
ATOM     23  C   UNL     1       7.329   7.493  17.356  0.00  0.00    +0.000 A 
ATOM     24  C   UNL     1       8.038   7.161  18.507  0.00  0.00    +0.000 A 
ATOM     25  C   UNL     1       8.025   5.848  18.983  0.00  0.00    +0.000 A 
ATOM     26  C   UNL     1       7.297   4.868  18.312  0.00  0.00    +0.000 A 
ENDBRANCH  20  21
ENDBRANCH  19  20
ENDBRANCH   5  19
TORSDOF 4
ENDMDL
MODEL 2
REMARK VINA RESULT:      -8.0      4.632      7.721
REMARK  Name = 
REMARK  4 active torsions:
REMARK  status: ('A' for Active; 'I' for Inactive)
REMARK    1  A    between atoms: N_5  and  C_6
REMARK    2  A    between atoms: C_6  and  C_7
REMARK    3  A    between atoms: C_7  and  C_8
REMARK    4  A    between atoms: N_15  and  C_16
REMARK                            x       y       z     vdW  Elec       q    Type
REMARK                         _______ _______ _______ _____ _____    ______ ____
ROOT
ATOM      1  O   UNL     1       8.495   4.856  19.137  0.00  0.00    +0.000 OA
ATOM      2  S   UNL     1       7.294   5.836  18.932  0.00  0.00    +0.000 S 
ATOM      3  N   UNL     1       6.090   4.882  19.530  0.00  0.00    +0.000 NA
ATOM      4  C   UNL     1       5.441   4.360  18.548  0.00  0.00    +0.000 A 
ATOM      5  N   UNL     1       4.307   3.567  18.629  0.00  0.00    +0.000 N 
ATOM      6  C   UNL     1       6.022   4.759  17.200  0.00  0.00    +0.000 A 
ATOM      7  N   UNL     1       5.455   4.253  16.054  0.00  0.00    +0.000 N 
ATOM      8  N   UNL     1       7.023   5.561  17.332  0.00  0.00    +0.000 NA
ATOM      9  H   UNL     1       4.466   2.637  18.250  0.00  0.00    +0.000 HD
ATOM     10  H   UNL     1       4.614   3.702  16.174  0.00  0.00    +0.000 HD
ENDROOT
BRANCH   7  11
ATOM     11  C   UNL     1       5.986   4.294  14.752  0.00  0.00    +0.000 A 
ATOM     12  C   UNL     1       5.455   3.429  13.783  0.00  0.00    +0.000 A 
ATOM     13  C   UNL     1       6.007   3.365  12.501  0.00  0.00    +0.000 A 
ATOM     14 CL   UNL     1       5.350   2.267  11.349  0.00  0.00    +0.000 Cl
ATOM     15  C   UNL     1       7.088   4.164  12.151  0.00  0.00    +0.000 A 
ATOM     16  C   UNL     1       7.618   5.028  13.099  0.00  0.00    +0.000 A 
ATOM     17 CL   UNL     1       8.959   6.027  12.687  0.00  0.00    +0.000 Cl
ATOM     18  C   UNL     1       7.079   5.089  14.387  0.00  0.00    +0.000 A 
ENDBRANCH   7  11
BRANCH   5  19
ATOM     19  C   UNL     1       3.531   3.497  19.877  0.00  0.00    +0.000 C 
BRANCH  19  20
ATOM     20  C   UNL     1       2.127   4.096  19.711  0.00  0.00    +0.000 C 
BRANCH  20  21
ATOM     21  C   UNL     1       2.109   5.591  19.572  0.00  0.00    +0.000 A 
ATOM     22  C   UNL     1       2.380   6.184  18.330  0.00  0.00    +0.000 A 
ATOM     23  C   UNL     1       2.281   7.566  18.175  0.00  0.00    +0.000 A 
ATOM     24  C   UNL     1       1.922   8.363  19.260  0.00  0.00    +0.000 A 
ATOM     25  C   UNL     1       1.668   7.780  20.503  0.00  0.00    +0.000 A 
ATOM     26  C   UNL     1       1.765   6.399  20.661  0.00  0.00    +0.000 A 
ENDBRANCH  20  21
ENDBRANCH  19  20
ENDBRANCH   5  19
TORSDOF 4
ENDMDL
MODEL 3
REMARK VINA RESULT:      -8.0      0.224      2.090
REMARK  Name = 
REMARK  4 active torsions:
REMARK  status: ('A' for Active; 'I' for Inactive)
REMARK    1  A    between atoms: N_5  and  C_6
REMARK    2  A    between atoms: C_6  and  C_7
REMARK    3  A    between atoms: C_7  and  C_8
REMARK    4  A    between atoms: N_15  and  C_16
REMARK                            x       y       z     vdW  Elec       q    Type
REMARK                         _______ _______ _______ _____ _____    ______ ____
ROOT
ATOM      1  O   UNL     1       2.334   3.667  22.090  0.00  0.00    +0.000 OA
ATOM      2  S   UNL     1       1.500   3.626  20.767  0.00  0.00    +0.000 S 
ATOM      3  N   UNL     1       2.741   3.454  19.697  0.00  0.00    +0.000 NA
ATOM      4  C   UNL     1       2.986   4.594  19.151  0.00  0.00    +0.000 A 
ATOM      5  N   UNL     1       3.897   4.852  18.139  0.00  0.00    +0.000 N 
ATOM      6  C   UNL     1       2.095   5.697  19.702  0.00  0.00    +0.000 A 
ATOM      7  N   UNL     1       2.261   6.981  19.239  0.00  0.00    +0.000 N 
ATOM      8  N   UNL     1       1.262   5.244  20.576  0.00  0.00    +0.000 NA
ATOM      9  H   UNL     1       4.622   5.501  18.436  0.00  0.00    +0.000 HD
ATOM     10  H   UNL     1       2.921   7.104  18.482  0.00  0.00    +0.000 HD
ENDROOT
BRANCH   7  11
ATOM     11  C   UNL     1       1.725   8.159  19.789  0.00  0.00    +0.000 A 
ATOM     12  C   UNL     1       1.399   8.174  21.154  0.00  0.00    +0.000 A 
ATOM     13  C   UNL     1       0.779   9.287  21.730  0.00  0.00    +0.000 A 
ATOM     14 CL   UNL     1       0.364   9.255  23.401  0.00  0.00    +0.000 Cl
ATOM     15  C   UNL     1       0.480  10.409  20.969  0.00  0.00    +0.000 A 
ATOM     16  C   UNL     1       0.803  10.408  19.618  0.00  0.00    +0.000 A 
ATOM     17 CL   UNL     1       0.440  11.788  18.655  0.00  0.00    +0.000 Cl
ATOM     18  C   UNL     1       1.412   9.295  19.032  0.00  0.00    +0.000 A 
ENDBRANCH   7  11
BRANCH   5  19
ATOM     19  C   UNL     1       4.473   3.752  17.351  0.00  0.00    +0.000 C 
BRANCH  19  20
ATOM     20  C   UNL     1       5.749   4.183  16.614  0.00  0.00    +0.000 C 
BRANCH  20  21
ATOM     21  C   UNL     1       6.531   5.257  17.315  0.00  0.00    +0.000 A 
ATOM     22  C   UNL     1       7.223   4.962  18.499  0.00  0.00    +0.000 A 
ATOM     23  C   UNL     1       8.019   5.931  19.107  0.00  0.00    +0.000 A 
ATOM     24  C   UNL     1       8.120   7.202  18.544  0.00  0.00    +0.000 A 
ATOM     25  C   UNL     1       7.420   7.506  17.374  0.00  0.00    +0.000 A 
ATOM     26  C   UNL     1       6.624   6.539  16.763  0.00  0.00    +0.000 A 
ENDBRANCH  20  21
ENDBRANCH  19  20
ENDBRANCH   5  19
TORSDOF 4
ENDMDL
MODEL 4
REMARK VINA RESULT:      -7.9      1.264      2.894
REMARK  Name = 
REMARK  4 active torsions:
REMARK  status: ('A' for Active; 'I' for Inactive)
REMARK    1  A    between atoms: N_5  and  C_6
REMARK    2  A    between atoms: C_6  and  C_7
REMARK    3  A    between atoms: C_7  and  C_8
REMARK    4  A    between atoms: N_15  and  C_16
REMARK                            x       y       z     vdW  Elec       q    Type
REMARK                         _______ _______ _______ _____ _____    ______ ____
ROOT
ATOM      1  O   UNL     1       1.579   3.371  21.779  0.00  0.00    +0.000 OA
ATOM      2  S   UNL     1       1.556   3.548  20.225  0.00  0.00    +0.000 S 
ATOM      3  N   UNL     1       3.180   3.624  19.959  0.00  0.00    +0.000 NA
ATOM      4  C   UNL     1       3.522   4.854  19.792  0.00  0.00    +0.000 A 
ATOM      5  N   UNL     1       4.782   5.330  19.462  0.00  0.00    +0.000 N 
ATOM      6  C   UNL     1       2.341   5.802  19.938  0.00  0.00    +0.000 A 
ATOM      7  N   UNL     1       2.554   7.155  19.818  0.00  0.00    +0.000 N 
ATOM      8  N   UNL     1       1.244   5.164  20.166  0.00  0.00    +0.000 NA
ATOM      9  H   UNL     1       5.160   5.937  20.185  0.00  0.00    +0.000 HD
ATOM     10  H   UNL     1       3.488   7.441  19.550  0.00  0.00    +0.000 HD
ENDROOT
BRANCH   7  11
ATOM     11  C   UNL     1       1.665   8.190  20.161  0.00  0.00    +0.000 A 
ATOM     12  C   UNL     1       1.311   8.350  21.509  0.00  0.00    +0.000 A 
ATOM     13  C   UNL     1       0.362   9.302  21.893  0.00  0.00    +0.000 A 
ATOM     14 CL   UNL     1      -0.071   9.446  23.553  0.00  0.00    +0.000 Cl
ATOM     15  C   UNL     1      -0.246  10.120  20.949  0.00  0.00    +0.000 A 
ATOM     16  C   UNL     1       0.100   9.975  19.613  0.00  0.00    +0.000 A 
ATOM     17 CL   UNL     1      -0.642  10.977  18.427  0.00  0.00    +0.000 Cl
ATOM     18  C   UNL     1       1.039   9.017  19.220  0.00  0.00    +0.000 A 
ENDBRANCH   7  11
BRANCH   5  19
ATOM     19  C   UNL     1       5.816   4.417  18.952  0.00  0.00    +0.000 C 
BRANCH  19  20
ATOM     20  C   UNL     1       6.739   5.109  17.939  0.00  0.00    +0.000 C 
BRANCH  20  21
ATOM     21  C   UNL     1       6.490   4.716  16.511  0.00  0.00    +0.000 A 
ATOM     22  C   UNL     1       5.291   4.079  16.157  0.00  0.00    +0.000 A 
ATOM     23  C   UNL     1       5.018   3.788  14.821  0.00  0.00    +0.000 A 
ATOM     24  C   UNL     1       5.943   4.122  13.834  0.00  0.00    +0.000 A 
ATOM     25  C   UNL     1       7.145   4.741  14.183  0.00  0.00    +0.000 A 
ATOM     26  C   UNL     1       7.420   5.034  15.516  0.00  0.00    +0.000 A 
ENDBRANCH  20  21
ENDBRANCH  19  20
ENDBRANCH   5  19
TORSDOF 4
ENDMDL
MODEL 5
REMARK VINA RESULT:      -7.8      4.611      7.695
REMARK  Name = 
REMARK  4 active torsions:
REMARK  status: ('A' for Active; 'I' for Inactive)
REMARK    1  A    between atoms: N_5  and  C_6
REMARK    2  A    between atoms: C_6  and  C_7
REMARK    3  A    between atoms: C_7  and  C_8
REMARK    4  A    between atoms: N_15  and  C_16
REMARK                            x       y       z     vdW  Elec       q    Type
REMARK                         _______ _______ _______ _____ _____    ______ ____
ROOT
ATOM      1  O   UNL     1       8.495   4.988  19.180  0.00  0.00    +0.000 OA
ATOM      2  S   UNL     1       7.255   5.904  18.913  0.00  0.00    +0.000 S 
ATOM      3  N   UNL     1       6.090   4.946  19.576  0.00  0.00    +0.000 NA
ATOM      4  C   UNL     1       5.462   4.335  18.633  0.00  0.00    +0.000 A 
ATOM      5  N   UNL     1       4.360   3.505  18.770  0.00  0.00    +0.000 N 
ATOM      6  C   UNL     1       6.027   4.665  17.259  0.00  0.00    +0.000 A 
ATOM      7  N   UNL     1       5.480   4.061  16.151  0.00  0.00    +0.000 N 
ATOM      8  N   UNL     1       6.995   5.513  17.335  0.00  0.00    +0.000 NA
ATOM      9  H   UNL     1       4.556   2.558  18.452  0.00  0.00    +0.000 HD
ATOM     10  H   UNL     1       4.661   3.488  16.310  0.00  0.00    +0.000 HD
ENDROOT
BRANCH   7  11
ATOM     11  C   UNL     1       6.009   4.037  14.848  0.00  0.00    +0.000 A 
ATOM     12  C   UNL     1       7.092   4.876  14.548  0.00  0.00    +0.000 A 
ATOM     13  C   UNL     1       7.597   4.958  13.247  0.00  0.00    +0.000 A 
ATOM     14 CL   UNL     1       8.906   6.025  12.911  0.00  0.00    +0.000 Cl
ATOM     15  C   UNL     1       7.044   4.203  12.221  0.00  0.00    +0.000 A 
ATOM     16  C   UNL     1       5.975   3.365  12.506  0.00  0.00    +0.000 A 
ATOM     17 CL   UNL     1       5.273   2.421  11.249  0.00  0.00    +0.000 Cl
ATOM     18  C   UNL     1       5.457   3.286  13.802  0.00  0.00    +0.000 A 
ENDBRANCH   7  11
BRANCH   5  19
ATOM     19  C   UNL     1       3.587   3.487  20.021  0.00  0.00    +0.000 C 
BRANCH  19  20
ATOM     20  C   UNL     1       2.154   3.998  19.814  0.00  0.00    +0.000 C 
BRANCH  20  21
ATOM     21  C   UNL     1       2.057   5.475  19.565  0.00  0.00    +0.000 A 
ATOM     22  C   UNL     1       1.754   6.347  20.621  0.00  0.00    +0.000 A 
ATOM     23  C   UNL     1       1.746   7.726  20.415  0.00  0.00    +0.000 A 
ATOM     24  C   UNL     1       2.030   8.240  19.152  0.00  0.00    +0.000 A 
ATOM     25  C   UNL     1       2.316   7.376  18.092  0.00  0.00    +0.000 A 
ATOM     26  C   UNL     1       2.326   5.999  18.296  0.00  0.00    +0.000 A 
ENDBRANCH  20  21
ENDBRANCH  19  20
ENDBRANCH   5  19
TORSDOF 4
ENDMDL
MODEL 6
REMARK VINA RESULT:      -7.8      1.508      2.356
REMARK  Name = 
REMARK  4 active torsions:
REMARK  status: ('A' for Active; 'I' for Inactive)
REMARK    1  A    between atoms: N_5  and  C_6
REMARK    2  A    between atoms: C_6  and  C_7
REMARK    3  A    between atoms: C_7  and  C_8
REMARK    4  A    between atoms: N_15  and  C_16
REMARK                            x       y       z     vdW  Elec       q    Type
REMARK                         _______ _______ _______ _____ _____    ______ ____
ROOT
ATOM      1  O   UNL     1       2.389   3.490  21.890  0.00  0.00    +0.000 OA
ATOM      2  S   UNL     1       1.866   3.528  20.417  0.00  0.00    +0.000 S 
ATOM      3  N   UNL     1       3.316   3.633  19.641  0.00  0.00    +0.000 NA
ATOM      4  C   UNL     1       3.513   4.854  19.283  0.00  0.00    +0.000 A 
ATOM      5  N   UNL     1       4.574   5.340  18.533  0.00  0.00    +0.000 N 
ATOM      6  C   UNL     1       2.385   5.772  19.729  0.00  0.00    +0.000 A 
ATOM      7  N   UNL     1       2.469   7.116  19.448  0.00  0.00    +0.000 N 
ATOM      8  N   UNL     1       1.457   5.121  20.342  0.00  0.00    +0.000 NA
ATOM      9  H   UNL     1       5.125   6.021  19.051  0.00  0.00    +0.000 HD
ATOM     10  H   UNL     1       3.250   7.407  18.875  0.00  0.00    +0.000 HD
ENDROOT
BRANCH   7  11
ATOM     11  C   UNL     1       1.674   8.147  19.980  0.00  0.00    +0.000 A 
ATOM     12  C   UNL     1       1.282   9.196  19.136  0.00  0.00    +0.000 A 
ATOM     13  C   UNL     1       0.570  10.290  19.635  0.00  0.00    +0.000 A 
ATOM     14 CL   UNL     1       0.135  11.574  18.574  0.00  0.00    +0.000 Cl
ATOM     15  C   UNL     1       0.225  10.361  20.978  0.00  0.00    +0.000 A 
ATOM     16  C   UNL     1       0.602   9.327  21.823  0.00  0.00    +0.000 A 
ATOM     17 CL   UNL     1       0.186   9.395  23.492  0.00  0.00    +0.000 Cl
ATOM     18  C   UNL     1       1.325   8.235  21.334  0.00  0.00    +0.000 A 
ENDBRANCH   7  11
BRANCH   5  19
ATOM     19  C   UNL     1       5.446   4.420  17.788  0.00  0.00    +0.000 C 
BRANCH  19  20
ATOM     20  C   UNL     1       4.814   3.986  16.458  0.00  0.00    +0.000 C 
BRANCH  20  21
ATOM     21  C   UNL     1       5.701   4.182  15.262  0.00  0.00    +0.000 A 
ATOM     22  C   UNL     1       5.359   3.601  14.032  0.00  0.00    +0.000 A 
ATOM     23  C   UNL     1       6.132   3.849  12.898  0.00  0.00    +0.000 A 
ATOM     24  C   UNL     1       7.255   4.668  12.989  0.00  0.00    +0.000 A 
ATOM     25  C   UNL     1       7.610   5.235  14.215  0.00  0.00    +0.000 A 
ATOM     26  C   UNL     1       6.839   4.990  15.349  0.00  0.00    +0.000 A 
ENDBRANCH  20  21
ENDBRANCH  19  20
ENDBRANCH   5  19
TORSDOF 4
ENDMDL
MODEL 7
REMARK VINA RESULT:      -7.7      2.267      3.608
REMARK  Name = 
REMARK  4 active torsions:
REMARK  status: ('A' for Active; 'I' for Inactive)
REMARK    1  A    between atoms: N_5  and  C_6
REMARK    2  A    between atoms: C_6  and  C_7
REMARK    3  A    between atoms: C_7  and  C_8
REMARK    4  A    between atoms: N_15  and  C_16
REMARK                            x       y       z     vdW  Elec       q    Type
REMARK                         _______ _______ _______ _____ _____    ______ ____
ROOT
ATOM      1  O   UNL     1       1.935   3.052  19.245  0.00  0.00    +0.000 OA
ATOM      2  S   UNL     1       2.010   3.605  17.784  0.00  0.00    +0.000 S 
ATOM      3  N   UNL     1       3.647   3.742  17.654  0.00  0.00    +0.000 NA
ATOM      4  C   UNL     1       3.980   4.975  17.817  0.00  0.00    +0.000 A 
ATOM      5  N   UNL     1       5.251   5.516  17.698  0.00  0.00    +0.000 N 
ATOM      6  C   UNL     1       2.777   5.860  18.111  0.00  0.00    +0.000 A 
ATOM      7  N   UNL     1       2.977   7.201  18.342  0.00  0.00    +0.000 N 
ATOM      8  N   UNL     1       1.678   5.186  18.103  0.00  0.00    +0.000 NA
ATOM      9  H   UNL     1       5.572   5.927  18.572  0.00  0.00    +0.000 HD
ATOM     10  H   UNL     1       3.921   7.543  18.214  0.00  0.00    +0.000 HD
ENDROOT
BRANCH   7  11
ATOM     11  C   UNL     1       2.052   8.120  18.868  0.00  0.00    +0.000 A 
ATOM     12  C   UNL     1       1.880   8.177  20.259  0.00  0.00    +0.000 A 
ATOM     13  C   UNL     1       0.909   9.006  20.828  0.00  0.00    +0.000 A 
ATOM     14 CL   UNL     1       0.705   9.023  22.537  0.00  0.00    +0.000 Cl
ATOM     15  C   UNL     1       0.098   9.802  20.030  0.00  0.00    +0.000 A 
ATOM     16  C   UNL     1       0.262   9.759  18.653  0.00  0.00    +0.000 A 
ATOM     17 CL   UNL     1      -0.734  10.737  17.645  0.00  0.00    +0.000 Cl
ATOM     18  C   UNL     1       1.223   8.924  18.075  0.00  0.00    +0.000 A 
ENDBRANCH   7  11
BRANCH   5  19
ATOM     19  C   UNL     1       6.330   4.756  17.050  0.00  0.00    +0.000 C 
BRANCH  19  20
ATOM     20  C   UNL     1       6.956   5.534  15.884  0.00  0.00    +0.000 C 
BRANCH  20  21
ATOM     21  C   UNL     1       6.717   4.918  14.535  0.00  0.00    +0.000 A 
ATOM     22  C   UNL     1       7.637   5.125  13.497  0.00  0.00    +0.000 A 
ATOM     23  C   UNL     1       7.465   4.487  12.269  0.00  0.00    +0.000 A 
ATOM     24  C   UNL     1       6.370   3.650  12.068  0.00  0.00    +0.000 A 
ATOM     25  C   UNL     1       5.442   3.454  13.093  0.00  0.00    +0.000 A 
ATOM     26  C   UNL     1       5.611   4.088  14.321  0.00  0.00    +0.000 A 
ENDBRANCH  20  21
ENDBRANCH  19  20
ENDBRANCH   5  19
TORSDOF 4
ENDMDL
MODEL 8
REMARK VINA RESULT:      -7.7      1.290      2.244
REMARK  Name = 
REMARK  4 active torsions:
REMARK  status: ('A' for Active; 'I' for Inactive)
REMARK    1  A    between atoms: N_5  and  C_6
REMARK    2  A    between atoms: C_6  and  C_7
REMARK    3  A    between atoms: C_7  and  C_8
REMARK    4  A    between atoms: N_15  and  C_16
REMARK                            x       y       z     vdW  Elec       q    Type
REMARK                         _______ _______ _______ _____ _____    ______ ____
ROOT
ATOM      1  O   UNL     1       1.544   2.982  20.854  0.00  0.00    +0.000 OA
ATOM      2  S   UNL     1       1.745   3.451  19.376  0.00  0.00    +0.000 S 
ATOM      3  N   UNL     1       3.388   3.580  19.377  0.00  0.00    +0.000 NA
ATOM      4  C   UNL     1       3.711   4.820  19.497  0.00  0.00    +0.000 A 
ATOM      5  N   UNL     1       4.991   5.354  19.456  0.00  0.00    +0.000 N 
ATOM      6  C   UNL     1       2.492   5.720  19.638  0.00  0.00    +0.000 A 
ATOM      7  N   UNL     1       2.679   7.072  19.807  0.00  0.00    +0.000 N 
ATOM      8  N   UNL     1       1.395   5.047  19.574  0.00  0.00    +0.000 NA
ATOM      9  H   UNL     1       5.239   5.814  20.329  0.00  0.00    +0.000 HD
ATOM     10  H   UNL     1       3.632   7.406  19.741  0.00  0.00    +0.000 HD
ENDROOT
BRANCH   7  11
ATOM     11  C   UNL     1       1.717   8.020  20.200  0.00  0.00    +0.000 A 
ATOM     12  C   UNL     1       1.228   8.918  19.239  0.00  0.00    +0.000 A 
ATOM     13  C   UNL     1       0.341   9.937  19.596  0.00  0.00    +0.000 A 
ATOM     14 CL   UNL     1      -0.211  11.040  18.394  0.00  0.00    +0.000 Cl
ATOM     15  C   UNL     1      -0.087  10.080  20.909  0.00  0.00    +0.000 A 
ATOM     16  C   UNL     1       0.386   9.195  21.868  0.00  0.00    +0.000 A 
ATOM     17 CL   UNL     1      -0.130   9.355  23.503  0.00  0.00    +0.000 Cl
ATOM     18  C   UNL     1       1.282   8.180  21.522  0.00  0.00    +0.000 A 
ENDBRANCH   7  11
BRANCH   5  19
ATOM     19  C   UNL     1       6.117   4.557  18.946  0.00  0.00    +0.000 C 
BRANCH  19  20
ATOM     20  C   UNL     1       6.902   5.308  17.861  0.00  0.00    +0.000 C 
BRANCH  20  21
ATOM     21  C   UNL     1       6.568   4.888  16.458  0.00  0.00    +0.000 A 
ATOM     22  C   UNL     1       7.396   5.274  15.395  0.00  0.00    +0.000 A 
ATOM     23  C   UNL     1       7.140   4.817  14.103  0.00  0.00    +0.000 A 
ATOM     24  C   UNL     1       6.050   3.983  13.865  0.00  0.00    +0.000 A 
ATOM     25  C   UNL     1       5.212   3.609  14.917  0.00  0.00    +0.000 A 
ATOM     26  C   UNL     1       5.467   4.063  16.209  0.00  0.00    +0.000 A 
ENDBRANCH  20  21
ENDBRANCH  19  20
ENDBRANCH   5  19
TORSDOF 4
ENDMDL
MODEL 9
REMARK VINA RESULT:      -7.6      4.125      5.804
REMARK  Name = 
REMARK  4 active torsions:
REMARK  status: ('A' for Active; 'I' for Inactive)
REMARK    1  A    between atoms: N_5  and  C_6
REMARK    2  A    between atoms: C_6  and  C_7
REMARK    3  A    between atoms: C_7  and  C_8
REMARK    4  A    between atoms: N_15  and  C_16
REMARK                            x       y       z     vdW  Elec       q    Type
REMARK                         _______ _______ _______ _____ _____    ______ ____
ROOT
ATOM      1  O   UNL     1       7.838   7.373  18.777  0.00  0.00    +0.000 OA
ATOM      2  S   UNL     1       7.954   5.813  18.810  0.00  0.00    +0.000 S 
ATOM      3  N   UNL     1       7.850   5.521  17.192  0.00  0.00    +0.000 NA
ATOM      4  C   UNL     1       6.658   5.126  16.912  0.00  0.00    +0.000 A 
ATOM      5  N   UNL     1       6.191   4.700  15.677  0.00  0.00    +0.000 N 
ATOM      6  C   UNL     1       5.757   5.105  18.138  0.00  0.00    +0.000 A 
ATOM      7  N   UNL     1       4.441   4.734  17.992  0.00  0.00    +0.000 N 
ATOM      8  N   UNL     1       6.394   5.459  19.201  0.00  0.00    +0.000 NA
ATOM      9  H   UNL     1       5.442   5.294  15.329  0.00  0.00    +0.000 HD
ATOM     10  H   UNL     1       4.165   4.408  17.074  0.00  0.00    +0.000 HD
ENDROOT
BRANCH   7  11
ATOM     11  C   UNL     1       3.405   4.889  18.930  0.00  0.00    +0.000 A 
ATOM     12  C   UNL     1       2.952   6.184  19.223  0.00  0.00    +0.000 A 
ATOM     13  C   UNL     1       1.990   6.401  20.213  0.00  0.00    +0.000 A 
ATOM     14 CL   UNL     1       1.484   8.008  20.566  0.00  0.00    +0.000 Cl
ATOM     15  C   UNL     1       1.451   5.338  20.926  0.00  0.00    +0.000 A 
ATOM     16  C   UNL     1       1.887   4.051  20.642  0.00  0.00    +0.000 A 
ATOM     17 CL   UNL     1       1.233   2.718  21.515  0.00  0.00    +0.000 Cl
ATOM     18  C   UNL     1       2.858   3.827  19.661  0.00  0.00    +0.000 A 
ENDBRANCH   7  11
BRANCH   5  19
ATOM     19  C   UNL     1       7.131   4.357  14.600  0.00  0.00    +0.000 C 
BRANCH  19  20
ATOM     20  C   UNL     1       6.579   4.736  13.218  0.00  0.00    +0.000 C 
BRANCH  20  21
ATOM     21  C   UNL     1       6.347   3.566  12.306  0.00  0.00    +0.000 A 
ATOM     22  C   UNL     1       7.436   2.820  11.831  0.00  0.00    +0.000 A 
ATOM     23  C   UNL     1       7.223   1.682  11.054  0.00  0.00    +0.000 A 
ATOM     24  C   UNL     1       5.924   1.290  10.738  0.00  0.00    +0.000 A 
ATOM     25  C   UNL     1       4.836   2.039  11.195  0.00  0.00    +0.000 A 
ATOM     26  C   UNL     1       5.046   3.175  11.972  0.00  0.00    +0.000 A 
ENDBRANCH  20  21
ENDBRANCH  19  20
ENDBRANCH   5  19
TORSDOF 4
ENDMDL
