MODEL 1
REMARK VINA RESULT:      -8.2      0.000      0.000
REMARK  Name = 
REMARK  6 active torsions:
REMARK  status: ('A' for Active; 'I' for Inactive)
REMARK    1  A    between atoms: C_1  and  N_2
REMARK    2  A    between atoms: N_2  and  C_3
REMARK    3  A    between atoms: N_2  and  C_4
REMARK    4  A    between atoms: C_8  and  C_9
REMARK    5  A    between atoms: N_11  and  C_12
REMARK    6  A    between atoms: C_12  and  C_13
REMARK                            x       y       z     vdW  Elec       q    Type
REMARK                         _______ _______ _______ _____ _____    ______ ____
ROOT
ATOM      1  C   UNL     1       6.673   4.939  16.041  0.00  0.00    +0.000 C 
ATOM      2  O   UNL     1       7.540   4.573  16.826  0.00  0.00    +0.000 OA
ATOM      3  N   UNL     1       5.499   5.549  16.442  0.00  0.00    +0.000 N 
ATOM      4  H   UNL     1       4.706   5.571  15.812  0.00  0.00    +0.000 HD
ENDROOT
BRANCH   1   9
ATOM      5  C   UNL     1       6.208   3.552  12.521  0.00  0.00    +0.000 A 
ATOM      6  C   UNL     1       7.156   4.363  11.864  0.00  0.00    +0.000 A 
ATOM      7  C   UNL     1       7.915   5.321  12.536  0.00  0.00    +0.000 A 
ATOM      8  C   UNL     1       7.750   5.497  13.900  0.00  0.00    +0.000 A 
ATOM      9  C   UNL     1       6.846   4.692  14.592  0.00  0.00    +0.000 A 
ATOM     10  C   UNL     1       6.086   3.732  13.910  0.00  0.00    +0.000 A 
BRANCH   5  12
ATOM     11  C   UNL     1       6.079   1.454  11.211  0.00  0.00    +0.000 C 
ATOM     12  N   UNL     1       5.434   2.608  11.834  0.00  0.00    +0.000 N 
ATOM     13  C   UNL     1       4.155   3.025  11.261  0.00  0.00    +0.000 C 
ENDBRANCH   5  12
ENDBRANCH   1   9
BRANCH   3  14
ATOM     14  C   UNL     1       5.273   5.675  17.859  0.00  0.00    +0.000 C 
BRANCH  14  15
ATOM     15  C   UNL     1       3.905   5.248  18.311  0.00  0.00    +0.000 A 
ATOM     16  C   UNL     1       3.051   4.565  17.409  0.00  0.00    +0.000 A 
ATOM     17  C   UNL     1       1.929   3.868  17.866  0.00  0.00    +0.000 A 
ATOM     18  C   UNL     1       1.716   3.847  19.225  0.00  0.00    +0.000 A 
ATOM     19  C   UNL     1       2.498   4.573  20.098  0.00  0.00    +0.000 A 
ATOM     20  C   UNL     1       3.573   5.317  19.672  0.00  0.00    +0.000 A 
ATOM     21  O   UNL     1       2.167   4.334  21.399  0.00  0.00    +0.000 OA
ATOM     22  C   UNL     1       1.374   3.144  21.216  0.00  0.00    +0.000 C 
ATOM     23  O   UNL     1       0.826   3.052  19.884  0.00  0.00    +0.000 OA
ENDBRANCH  14  15
ENDBRANCH   3  14
TORSDOF 4
ENDMDL
MODEL 2
REMARK VINA RESULT:      -8.0      1.140      1.234
REMARK  Name = 
REMARK  6 active torsions:
REMARK  status: ('A' for Active; 'I' for Inactive)
REMARK    1  A    between atoms: C_1  and  N_2
REMARK    2  A    between atoms: N_2  and  C_3
REMARK    3  A    between atoms: N_2  and  C_4
REMARK    4  A    between atoms: C_8  and  C_9
REMARK    5  A    between atoms: N_11  and  C_12
REMARK    6  A    between atoms: C_12  and  C_13
REMARK                            x       y       z     vdW  Elec       q    Type
REMARK                         _______ _______ _______ _____ _____    ______ ____
ROOT
ATOM      1  C   UNL     1       6.924   5.126  15.856  0.00  0.00    +0.000 C 
ATOM      2  O   UNL     1       7.572   4.465  16.659  0.00  0.00    +0.000 OA
ATOM      3  N   UNL     1       6.075   6.150  16.230  0.00  0.00    +0.000 N 
ATOM      4  H   UNL     1       5.360   6.468  15.586  0.00  0.00    +0.000 HD
ENDROOT
BRANCH   1   9
ATOM      5  C   UNL     1       6.226   3.587  12.439  0.00  0.00    +0.000 A 
ATOM      6  C   UNL     1       7.146   4.348  11.689  0.00  0.00    +0.000 A 
ATOM      7  C   UNL     1       7.960   5.321  12.268  0.00  0.00    +0.000 A 
ATOM      8  C   UNL     1       7.880   5.563  13.630  0.00  0.00    +0.000 A 
ATOM      9  C   UNL     1       7.006   4.809  14.412  0.00  0.00    +0.000 A 
ATOM     10  C   UNL     1       6.190   3.833  13.822  0.00  0.00    +0.000 A 
BRANCH   5  12
ATOM     11  C   UNL     1       5.976   1.396  11.311  0.00  0.00    +0.000 C 
ATOM     12  N   UNL     1       5.397   2.627  11.844  0.00  0.00    +0.000 N 
ATOM     13  C   UNL     1       4.128   3.056  11.257  0.00  0.00    +0.000 C 
ENDBRANCH   5  12
ENDBRANCH   1   9
BRANCH   3  14
ATOM     14  C   UNL     1       5.898   6.376  17.641  0.00  0.00    +0.000 C 
BRANCH  14  15
ATOM     15  C   UNL     1       4.687   5.709  18.231  0.00  0.00    +0.000 A 
ATOM     16  C   UNL     1       3.393   6.177  17.889  0.00  0.00    +0.000 A 
ATOM     17  C   UNL     1       2.257   5.402  18.139  0.00  0.00    +0.000 A 
ATOM     18  C   UNL     1       2.457   4.159  18.695  0.00  0.00    +0.000 A 
ATOM     19  C   UNL     1       3.703   3.733  19.101  0.00  0.00    +0.000 A 
ATOM     20  C   UNL     1       4.833   4.497  18.923  0.00  0.00    +0.000 A 
ATOM     21  O   UNL     1       3.683   2.441  19.538  0.00  0.00    +0.000 OA
ATOM     22  C   UNL     1       2.399   2.046  19.015  0.00  0.00    +0.000 C 
ATOM     23  O   UNL     1       1.523   3.173  18.808  0.00  0.00    +0.000 OA
ENDBRANCH  14  15
ENDBRANCH   3  14
TORSDOF 4
ENDMDL
MODEL 3
REMARK VINA RESULT:      -7.9      1.242      1.630
REMARK  Name = 
REMARK  6 active torsions:
REMARK  status: ('A' for Active; 'I' for Inactive)
REMARK    1  A    between atoms: C_1  and  N_2
REMARK    2  A    between atoms: N_2  and  C_3
REMARK    3  A    between atoms: N_2  and  C_4
REMARK    4  A    between atoms: C_8  and  C_9
REMARK    5  A    between atoms: N_11  and  C_12
REMARK    6  A    between atoms: C_12  and  C_13
REMARK                            x       y       z     vdW  Elec       q    Type
REMARK                         _______ _______ _______ _____ _____    ______ ____
ROOT
ATOM      1  C   UNL     1       6.344   5.222  15.965  0.00  0.00    +0.000 C 
ATOM      2  O   UNL     1       5.998   6.373  16.206  0.00  0.00    +0.000 OA
ATOM      3  N   UNL     1       6.528   4.266  16.947  0.00  0.00    +0.000 N 
ATOM      4  H   UNL     1       7.078   3.440  16.744  0.00  0.00    +0.000 HD
ENDROOT
BRANCH   1   9
ATOM      5  C   UNL     1       6.067   3.551  12.551  0.00  0.00    +0.000 A 
ATOM      6  C   UNL     1       7.152   4.198  11.926  0.00  0.00    +0.000 A 
ATOM      7  C   UNL     1       7.943   5.138  12.586  0.00  0.00    +0.000 A 
ATOM      8  C   UNL     1       7.671   5.461  13.906  0.00  0.00    +0.000 A 
ATOM      9  C   UNL     1       6.625   4.819  14.569  0.00  0.00    +0.000 A 
ATOM     10  C   UNL     1       5.834   3.876  13.898  0.00  0.00    +0.000 A 
BRANCH   5  12
ATOM     11  C   UNL     1       5.862   1.408  11.326  0.00  0.00    +0.000 C 
ATOM     12  N   UNL     1       5.265   2.624  11.872  0.00  0.00    +0.000 N 
ATOM     13  C   UNL     1       4.036   3.090  11.230  0.00  0.00    +0.000 C 
ENDBRANCH   5  12
ENDBRANCH   1   9
BRANCH   3  14
ATOM     14  C   UNL     1       6.380   4.690  18.315  0.00  0.00    +0.000 C 
BRANCH  14  15
ATOM     15  C   UNL     1       5.032   4.400  18.914  0.00  0.00    +0.000 A 
ATOM     16  C   UNL     1       4.214   5.473  19.348  0.00  0.00    +0.000 A 
ATOM     17  C   UNL     1       2.851   5.284  19.598  0.00  0.00    +0.000 A 
ATOM     18  C   UNL     1       2.340   4.028  19.367  0.00  0.00    +0.000 A 
ATOM     19  C   UNL     1       3.146   2.965  19.020  0.00  0.00    +0.000 A 
ATOM     20  C   UNL     1       4.500   3.105  18.826  0.00  0.00    +0.000 A 
ATOM     21  O   UNL     1       2.421   1.841  18.754  0.00  0.00    +0.000 OA
ATOM     22  C   UNL     1       1.115   2.439  18.627  0.00  0.00    +0.000 C 
ATOM     23  O   UNL     1       1.019   3.695  19.331  0.00  0.00    +0.000 OA
ENDBRANCH  14  15
ENDBRANCH   3  14
TORSDOF 4
ENDMDL
MODEL 4
REMARK VINA RESULT:      -7.8      1.004      1.236
REMARK  Name = 
REMARK  6 active torsions:
REMARK  status: ('A' for Active; 'I' for Inactive)
REMARK    1  A    between atoms: C_1  and  N_2
REMARK    2  A    between atoms: N_2  and  C_3
REMARK    3  A    between atoms: N_2  and  C_4
REMARK    4  A    between atoms: C_8  and  C_9
REMARK    5  A    between atoms: N_11  and  C_12
REMARK    6  A    between atoms: C_12  and  C_13
REMARK                            x       y       z     vdW  Elec       q    Type
REMARK                         _______ _______ _______ _____ _____    ______ ____
ROOT
ATOM      1  C   UNL     1       6.554   5.019  15.942  0.00  0.00    +0.000 C 
ATOM      2  O   UNL     1       7.450   4.786  16.746  0.00  0.00    +0.000 OA
ATOM      3  N   UNL     1       5.322   5.527  16.308  0.00  0.00    +0.000 N 
ATOM      4  H   UNL     1       4.535   5.434  15.677  0.00  0.00    +0.000 HD
ENDROOT
BRANCH   1   9
ATOM      5  C   UNL     1       6.136   3.528  12.459  0.00  0.00    +0.000 A 
ATOM      6  C   UNL     1       7.139   4.273  11.805  0.00  0.00    +0.000 A 
ATOM      7  C   UNL     1       7.920   5.220  12.467  0.00  0.00    +0.000 A 
ATOM      8  C   UNL     1       7.721   5.451  13.818  0.00  0.00    +0.000 A 
ATOM      9  C   UNL     1       6.760   4.713  14.509  0.00  0.00    +0.000 A 
ATOM     10  C   UNL     1       5.979   3.763  13.835  0.00  0.00    +0.000 A 
BRANCH   5  12
ATOM     11  C   UNL     1       5.953   1.393  11.218  0.00  0.00    +0.000 C 
ATOM     12  N   UNL     1       5.342   2.595  11.779  0.00  0.00    +0.000 N 
ATOM     13  C   UNL     1       4.101   3.048  11.152  0.00  0.00    +0.000 C 
ENDBRANCH   5  12
ENDBRANCH   1   9
BRANCH   3  14
ATOM     14  C   UNL     1       5.076   5.706  17.716  0.00  0.00    +0.000 C 
BRANCH  14  15
ATOM     15  C   UNL     1       4.298   4.591  18.358  0.00  0.00    +0.000 A 
ATOM     16  C   UNL     1       4.990   3.535  19.002  0.00  0.00    +0.000 A 
ATOM     17  C   UNL     1       4.330   2.672  19.881  0.00  0.00    +0.000 A 
ATOM     18  C   UNL     1       2.997   2.917  20.117  0.00  0.00    +0.000 A 
ATOM     19  C   UNL     1       2.303   3.892  19.434  0.00  0.00    +0.000 A 
ATOM     20  C   UNL     1       2.910   4.719  18.519  0.00  0.00    +0.000 A 
ATOM     21  O   UNL     1       1.023   4.021  19.889  0.00  0.00    +0.000 OA
ATOM     22  C   UNL     1       1.149   3.291  21.126  0.00  0.00    +0.000 C 
ATOM     23  O   UNL     1       2.238   2.345  21.094  0.00  0.00    +0.000 OA
ENDBRANCH  14  15
ENDBRANCH   3  14
TORSDOF 4
ENDMDL
MODEL 5
REMARK VINA RESULT:      -7.7      0.841      1.566
REMARK  Name = 
REMARK  6 active torsions:
REMARK  status: ('A' for Active; 'I' for Inactive)
REMARK    1  A    between atoms: C_1  and  N_2
REMARK    2  A    between atoms: N_2  and  C_3
REMARK    3  A    between atoms: N_2  and  C_4
REMARK    4  A    between atoms: C_8  and  C_9
REMARK    5  A    between atoms: N_11  and  C_12
REMARK    6  A    between atoms: C_12  and  C_13
REMARK                            x       y       z     vdW  Elec       q    Type
REMARK                         _______ _______ _______ _____ _____    ______ ____
ROOT
ATOM      1  C   UNL     1       6.384   5.442  15.784  0.00  0.00    +0.000 C 
ATOM      2  O   UNL     1       7.257   5.395  16.643  0.00  0.00    +0.000 OA
ATOM      3  N   UNL     1       5.104   5.903  16.031  0.00  0.00    +0.000 N 
ATOM      4  H   UNL     1       4.354   5.662  15.394  0.00  0.00    +0.000 HD
ENDROOT
BRANCH   1   9
ATOM      5  C   UNL     1       6.122   3.565  12.477  0.00  0.00    +0.000 A 
ATOM      6  C   UNL     1       7.220   4.162  11.825  0.00  0.00    +0.000 A 
ATOM      7  C   UNL     1       8.014   5.134  12.434  0.00  0.00    +0.000 A 
ATOM      8  C   UNL     1       7.732   5.540  13.728  0.00  0.00    +0.000 A 
ATOM      9  C   UNL     1       6.673   4.951  14.419  0.00  0.00    +0.000 A 
ATOM     10  C   UNL     1       5.880   3.975  13.799  0.00  0.00    +0.000 A 
BRANCH   5  12
ATOM     11  C   UNL     1       5.922   1.393  11.305  0.00  0.00    +0.000 C 
ATOM     12  N   UNL     1       5.317   2.606  11.848  0.00  0.00    +0.000 N 
ATOM     13  C   UNL     1       4.054   3.030  11.245  0.00  0.00    +0.000 C 
ENDBRANCH   5  12
ENDBRANCH   1   9
BRANCH   3  14
ATOM     14  C   UNL     1       4.784   6.262  17.388  0.00  0.00    +0.000 C 
BRANCH  14  15
ATOM     15  C   UNL     1       4.121   5.170  18.181  0.00  0.00    +0.000 A 
ATOM     16  C   UNL     1       3.850   5.371  19.558  0.00  0.00    +0.000 A 
ATOM     17  C   UNL     1       2.958   4.542  20.245  0.00  0.00    +0.000 A 
ATOM     18  C   UNL     1       2.333   3.556  19.518  0.00  0.00    +0.000 A 
ATOM     19  C   UNL     1       2.651   3.308  18.200  0.00  0.00    +0.000 A 
ATOM     20  C   UNL     1       3.569   4.067  17.512  0.00  0.00    +0.000 A 
ATOM     21  O   UNL     1       1.849   2.350  17.652  0.00  0.00    +0.000 OA
ATOM     22  C   UNL     1       0.813   2.323  18.655  0.00  0.00    +0.000 C 
ATOM     23  O   UNL     1       1.279   2.799  19.935  0.00  0.00    +0.000 OA
ENDBRANCH  14  15
ENDBRANCH   3  14
TORSDOF 4
ENDMDL
MODEL 6
REMARK VINA RESULT:      -7.6      1.121      1.777
REMARK  Name = 
REMARK  6 active torsions:
REMARK  status: ('A' for Active; 'I' for Inactive)
REMARK    1  A    between atoms: C_1  and  N_2
REMARK    2  A    between atoms: N_2  and  C_3
REMARK    3  A    between atoms: N_2  and  C_4
REMARK    4  A    between atoms: C_8  and  C_9
REMARK    5  A    between atoms: N_11  and  C_12
REMARK    6  A    between atoms: C_12  and  C_13
REMARK                            x       y       z     vdW  Elec       q    Type
REMARK                         _______ _______ _______ _____ _____    ______ ____
ROOT
ATOM      1  C   UNL     1       6.878   4.718  15.857  0.00  0.00    +0.000 C 
ATOM      2  O   UNL     1       7.830   4.421  16.570  0.00  0.00    +0.000 OA
ATOM      3  N   UNL     1       5.655   5.123  16.357  0.00  0.00    +0.000 N 
ATOM      4  H   UNL     1       4.834   5.079  15.766  0.00  0.00    +0.000 HD
ENDROOT
BRANCH   1   9
ATOM      5  C   UNL     1       6.304   3.661  12.240  0.00  0.00    +0.000 A 
ATOM      6  C   UNL     1       7.226   4.537  11.630  0.00  0.00    +0.000 A 
ATOM      7  C   UNL     1       8.003   5.434  12.364  0.00  0.00    +0.000 A 
ATOM      8  C   UNL     1       7.882   5.480  13.743  0.00  0.00    +0.000 A 
ATOM      9  C   UNL     1       7.004   4.608  14.386  0.00  0.00    +0.000 A 
ATOM     10  C   UNL     1       6.226   3.710  13.642  0.00  0.00    +0.000 A 
BRANCH   5  12
ATOM     11  C   UNL     1       4.087   3.052  11.319  0.00  0.00    +0.000 C 
ATOM     12  N   UNL     1       5.512   2.779  11.493  0.00  0.00    +0.000 N 
ATOM     13  C   UNL     1       5.925   1.381  11.379  0.00  0.00    +0.000 C 
ENDBRANCH   5  12
ENDBRANCH   1   9
BRANCH   3  14
ATOM     14  C   UNL     1       5.491   5.108  17.788  0.00  0.00    +0.000 C 
BRANCH  14  15
ATOM     15  C   UNL     1       4.561   4.044  18.297  0.00  0.00    +0.000 A 
ATOM     16  C   UNL     1       4.819   3.428  19.547  0.00  0.00    +0.000 A 
ATOM     17  C   UNL     1       3.830   2.690  20.205  0.00  0.00    +0.000 A 
ATOM     18  C   UNL     1       2.595   2.623  19.605  0.00  0.00    +0.000 A 
ATOM     19  C   UNL     1       2.362   3.154  18.354  0.00  0.00    +0.000 A 
ATOM     20  C   UNL     1       3.332   3.833  17.654  0.00  0.00    +0.000 A 
ATOM     21  O   UNL     1       1.051   3.054  17.993  0.00  0.00    +0.000 OA
ATOM     22  C   UNL     1       0.484   2.747  19.283  0.00  0.00    +0.000 C 
ATOM     23  O   UNL     1       1.450   2.156  20.177  0.00  0.00    +0.000 OA
ENDBRANCH  14  15
ENDBRANCH   3  14
TORSDOF 4
ENDMDL
MODEL 7
REMARK VINA RESULT:      -7.5      1.470      2.001
REMARK  Name = 
REMARK  6 active torsions:
REMARK  status: ('A' for Active; 'I' for Inactive)
REMARK    1  A    between atoms: C_1  and  N_2
REMARK    2  A    between atoms: N_2  and  C_3
REMARK    3  A    between atoms: N_2  and  C_4
REMARK    4  A    between atoms: C_8  and  C_9
REMARK    5  A    between atoms: N_11  and  C_12
REMARK    6  A    between atoms: C_12  and  C_13
REMARK                            x       y       z     vdW  Elec       q    Type
REMARK                         _______ _______ _______ _____ _____    ______ ____
ROOT
ATOM      1  C   UNL     1       6.618   4.859  16.047  0.00  0.00    +0.000 C 
ATOM      2  O   UNL     1       7.298   5.714  16.603  0.00  0.00    +0.000 OA
ATOM      3  N   UNL     1       5.708   4.064  16.718  0.00  0.00    +0.000 N 
ATOM      4  H   UNL     1       5.390   3.201  16.293  0.00  0.00    +0.000 HD
ENDROOT
BRANCH   1   9
ATOM      5  C   UNL     1       6.120   3.516  12.515  0.00  0.00    +0.000 A 
ATOM      6  C   UNL     1       7.099   4.297  11.868  0.00  0.00    +0.000 A 
ATOM      7  C   UNL     1       7.889   5.222  12.550  0.00  0.00    +0.000 A 
ATOM      8  C   UNL     1       7.724   5.394  13.914  0.00  0.00    +0.000 A 
ATOM      9  C   UNL     1       6.788   4.617  14.597  0.00  0.00    +0.000 A 
ATOM     10  C   UNL     1       5.998   3.689  13.904  0.00  0.00    +0.000 A 
BRANCH   5  12
ATOM     11  C   UNL     1       5.911   1.400  11.246  0.00  0.00    +0.000 C 
ATOM     12  N   UNL     1       5.316   2.605  11.817  0.00  0.00    +0.000 N 
ATOM     13  C   UNL     1       4.088   3.087  11.185  0.00  0.00    +0.000 C 
ENDBRANCH   5  12
ENDBRANCH   1   9
BRANCH   3  14
ATOM     14  C   UNL     1       5.633   4.211  18.148  0.00  0.00    +0.000 C 
BRANCH  14  15
ATOM     15  C   UNL     1       4.299   4.679  18.657  0.00  0.00    +0.000 A 
ATOM     16  C   UNL     1       3.658   3.965  19.701  0.00  0.00    +0.000 A 
ATOM     17  C   UNL     1       2.603   4.533  20.421  0.00  0.00    +0.000 A 
ATOM     18  C   UNL     1       2.245   5.821  20.095  0.00  0.00    +0.000 A 
ATOM     19  C   UNL     1       2.812   6.489  19.031  0.00  0.00    +0.000 A 
ATOM     20  C   UNL     1       3.810   5.934  18.266  0.00  0.00    +0.000 A 
ATOM     21  O   UNL     1       2.375   7.779  18.947  0.00  0.00    +0.000 OA
ATOM     22  C   UNL     1       1.787   7.903  20.258  0.00  0.00    +0.000 C 
ATOM     23  O   UNL     1       1.410   6.625  20.812  0.00  0.00    +0.000 OA
ENDBRANCH  14  15
ENDBRANCH   3  14
TORSDOF 4
ENDMDL
MODEL 8
REMARK VINA RESULT:      -7.3      6.017      8.332
REMARK  Name = 
REMARK  6 active torsions:
REMARK  status: ('A' for Active; 'I' for Inactive)
REMARK    1  A    between atoms: C_1  and  N_2
REMARK    2  A    between atoms: N_2  and  C_3
REMARK    3  A    between atoms: N_2  and  C_4
REMARK    4  A    between atoms: C_8  and  C_9
REMARK    5  A    between atoms: N_11  and  C_12
REMARK    6  A    between atoms: C_12  and  C_13
REMARK                            x       y       z     vdW  Elec       q    Type
REMARK                         _______ _______ _______ _____ _____    ______ ____
ROOT
ATOM      1  C   UNL     1       1.498   8.385  19.900  0.00  0.00    +0.000 C 
ATOM      2  O   UNL     1       1.045   8.394  21.038  0.00  0.00    +0.000 OA
ATOM      3  N   UNL     1       1.319   9.425  19.007  0.00  0.00    +0.000 N 
ATOM      4  H   UNL     1       1.453   9.262  18.016  0.00  0.00    +0.000 HD
ENDROOT
BRANCH   1   9
ATOM      5  C   UNL     1       2.860   4.838  19.598  0.00  0.00    +0.000 A 
ATOM      6  C   UNL     1       3.576   5.004  18.395  0.00  0.00    +0.000 A 
ATOM      7  C   UNL     1       3.616   6.218  17.709  0.00  0.00    +0.000 A 
ATOM      8  C   UNL     1       2.936   7.315  18.213  0.00  0.00    +0.000 A 
ATOM      9  C   UNL     1       2.242   7.200  19.418  0.00  0.00    +0.000 A 
ATOM     10  C   UNL     1       2.207   5.976  20.100  0.00  0.00    +0.000 A 
BRANCH   5  12
ATOM     11  C   UNL     1       2.163   3.520  21.576  0.00  0.00    +0.000 C 
ATOM     12  N   UNL     1       2.808   3.608  20.268  0.00  0.00    +0.000 N 
ATOM     13  C   UNL     1       3.828   2.601  19.976  0.00  0.00    +0.000 C 
ENDBRANCH   5  12
ENDBRANCH   1   9
BRANCH   3  14
ATOM     14  C   UNL     1       0.489  10.522  19.431  0.00  0.00    +0.000 C 
BRANCH  14  15
ATOM     15  C   UNL     1      -0.879  10.544  18.810  0.00  0.00    +0.000 A 
ATOM     16  C   UNL     1      -1.840  11.481  19.266  0.00  0.00    +0.000 A 
ATOM     17  C   UNL     1      -2.986  11.761  18.515  0.00  0.00    +0.000 A 
ATOM     18  C   UNL     1      -3.117  11.117  17.307  0.00  0.00    +0.000 A 
ATOM     19  C   UNL     1      -2.226  10.148  16.897  0.00  0.00    +0.000 A 
ATOM     20  C   UNL     1      -1.121   9.807  17.641  0.00  0.00    +0.000 A 
ATOM     21  O   UNL     1      -2.496   9.709  15.634  0.00  0.00    +0.000 OA
ATOM     22  C   UNL     1      -3.393  10.758  15.217  0.00  0.00    +0.000 C 
ATOM     23  O   UNL     1      -4.027  11.411  16.337  0.00  0.00    +0.000 OA
ENDBRANCH  14  15
ENDBRANCH   3  14
TORSDOF 4
ENDMDL
MODEL 9
REMARK VINA RESULT:      -7.2      6.027      7.889
REMARK  Name = 
REMARK  6 active torsions:
REMARK  status: ('A' for Active; 'I' for Inactive)
REMARK    1  A    between atoms: C_1  and  N_2
REMARK    2  A    between atoms: N_2  and  C_3
REMARK    3  A    between atoms: N_2  and  C_4
REMARK    4  A    between atoms: C_8  and  C_9
REMARK    5  A    between atoms: N_11  and  C_12
REMARK    6  A    between atoms: C_12  and  C_13
REMARK                            x       y       z     vdW  Elec       q    Type
REMARK                         _______ _______ _______ _____ _____    ______ ____
ROOT
ATOM      1  C   UNL     1       2.171   8.637  18.192  0.00  0.00    +0.000 C 
ATOM      2  O   UNL     1       2.433   9.399  17.268  0.00  0.00    +0.000 OA
ATOM      3  N   UNL     1       1.314   8.967  19.225  0.00  0.00    +0.000 N 
ATOM      4  H   UNL     1       1.349   8.442  20.091  0.00  0.00    +0.000 HD
ENDROOT
BRANCH   1   9
ATOM      5  C   UNL     1       2.892   4.990  19.036  0.00  0.00    +0.000 A 
ATOM      6  C   UNL     1       4.034   4.823  18.226  0.00  0.00    +0.000 A 
ATOM      7  C   UNL     1       4.550   5.852  17.438  0.00  0.00    +0.000 A 
ATOM      8  C   UNL     1       3.934   7.093  17.439  0.00  0.00    +0.000 A 
ATOM      9  C   UNL     1       2.821   7.308  18.251  0.00  0.00    +0.000 A 
ATOM     10  C   UNL     1       2.308   6.268  19.039  0.00  0.00    +0.000 A 
BRANCH   5  12
ATOM     11  C   UNL     1       2.853   2.580  19.605  0.00  0.00    +0.000 C 
ATOM     12  N   UNL     1       2.369   3.944  19.807  0.00  0.00    +0.000 N 
ATOM     13  C   UNL     1       1.024   4.080  20.363  0.00  0.00    +0.000 C 
ENDBRANCH   5  12
ENDBRANCH   1   9
BRANCH   3  14
ATOM     14  C   UNL     1       0.781  10.304  19.236  0.00  0.00    +0.000 C 
BRANCH  14  15
ATOM     15  C   UNL     1      -0.644  10.411  18.771  0.00  0.00    +0.000 A 
ATOM     16  C   UNL     1      -1.506  11.364  19.369  0.00  0.00    +0.000 A 
ATOM     17  C   UNL     1      -2.713  11.725  18.762  0.00  0.00    +0.000 A 
ATOM     18  C   UNL     1      -3.003  11.143  17.550  0.00  0.00    +0.000 A 
ATOM     19  C   UNL     1      -2.207  10.159  17.004  0.00  0.00    +0.000 A 
ATOM     20  C   UNL     1      -1.044   9.739  17.606  0.00  0.00    +0.000 A 
ATOM     21  O   UNL     1      -2.632   9.790  15.761  0.00  0.00    +0.000 OA
ATOM     22  C   UNL     1      -3.521  10.893  15.491  0.00  0.00    +0.000 C 
ATOM     23  O   UNL     1      -3.999  11.519  16.699  0.00  0.00    +0.000 OA
ENDBRANCH  14  15
ENDBRANCH   3  14
TORSDOF 4
ENDMDL
