MODEL 1
REMARK VINA RESULT:      -6.8      0.000      0.000
REMARK  Name = 
REMARK  10 active torsions:
REMARK  status: ('A' for Active; 'I' for Inactive)
REMARK    1  A    between atoms: C_1  and  C_2
REMARK    2  A    between atoms: C_2  and  C_3
REMARK    3  A    between atoms: C_2  and  N_10
REMARK    4  A    between atoms: N_13  and  S_14
REMARK    5  A    between atoms: S_14  and  C_17
REMARK    6  A    between atoms: C_20  and  C_21
REMARK    7  A    between atoms: C_21  and  C_22
REMARK    8  A    between atoms: C_21  and  C_23
REMARK    9  A    between atoms: C_21  and  C_24
REMARK   10  A    between atoms: C_27  and  C_28
REMARK                            x       y       z     vdW  Elec       q    Type
REMARK                         _______ _______ _______ _____ _____    ______ ____
ROOT
ATOM      1  N   UNL     1       1.427  15.286  19.856  0.00  0.00    +0.000 NA
ATOM      2  C   UNL     1       0.019  14.949  19.657  0.00  0.00    +0.000 C 
ATOM      3  C   UNL     1      -0.250  13.812  18.658  0.00  0.00    +0.000 C 
ATOM      4  N   UNL     1       0.589  12.581  18.874  0.00  0.00    +0.000 NA
ATOM      5  C   UNL     1       2.036  12.848  19.253  0.00  0.00    +0.000 C 
ATOM      6  C   UNL     1       2.968  12.858  18.038  0.00  0.00    +0.000 C 
ATOM      7  C   UNL     1       2.198  14.078  20.173  0.00  0.00    +0.000 C 
ENDROOT
BRANCH   4   8
ATOM      8  S   UNL     1      -0.151  11.400  19.881  0.00  0.00    +0.000 S 
ATOM      9  O   UNL     1       0.174  11.715  21.257  0.00  0.00    +0.000 OA
ATOM     10  O   UNL     1      -1.527  11.270  19.450  0.00  0.00    +0.000 OA
BRANCH   8  11
ATOM     11  C   UNL     1       0.711   9.905  19.480  0.00  0.00    +0.000 A 
ATOM     12  C   UNL     1       1.087   9.670  18.159  0.00  0.00    +0.000 A 
ATOM     13  C   UNL     1       1.811   8.522  17.835  0.00  0.00    +0.000 A 
ATOM     14  C   UNL     1       2.181   7.580  18.818  0.00  0.00    +0.000 A 
ATOM     15  C   UNL     1       1.780   7.838  20.147  0.00  0.00    +0.000 A 
ATOM     16  C   UNL     1       1.057   8.990  20.478  0.00  0.00    +0.000 A 
BRANCH  14  17
ATOM     17  C   UNL     1       3.000   6.323  18.485  0.00  0.00    +0.000 C 
ATOM     18  C   UNL     1       2.159   5.198  17.839  0.00  0.00    +0.000 C 
ATOM     19  C   UNL     1       4.127   6.680  17.493  0.00  0.00    +0.000 C 
ATOM     20  C   UNL     1       3.627   5.741  19.769  0.00  0.00    +0.000 C 
ENDBRANCH  14  17
ENDBRANCH   8  11
ENDBRANCH   4   8
BRANCH   1  22
ATOM     21  C   UNL     1       1.060  17.196  18.182  0.00  0.00    +0.000 C 
ATOM     22  C   UNL     1       2.022  16.223  18.881  0.00  0.00    +0.000 C 
BRANCH  22  23
ATOM     23  C   UNL     1       3.136  17.081  19.570  0.00  0.00    +0.000 C 
ATOM     24  O   UNL     1       2.851  18.095  20.217  0.00  0.00    +0.000 OA
ATOM     25  N   UNL     1       4.456  16.724  19.392  0.00  0.00    +0.000 N 
ATOM     26  C   UNL     1       5.536  17.524  19.929  0.00  0.00    +0.000 C 
ATOM     27  C   UNL     1       6.649  17.304  18.923  0.00  0.00    +0.000 C 
ATOM     28  C   UNL     1       6.470  15.844  18.514  0.00  0.00    +0.000 C 
ATOM     29  C   UNL     1       4.976  15.569  18.682  0.00  0.00    +0.000 C 
ENDBRANCH  22  23
ENDBRANCH   1  22
TORSDOF 5
ENDMDL
MODEL 2
REMARK VINA RESULT:      -6.8      4.454      6.628
REMARK  Name = 
REMARK  10 active torsions:
REMARK  status: ('A' for Active; 'I' for Inactive)
REMARK    1  A    between atoms: C_1  and  C_2
REMARK    2  A    between atoms: C_2  and  C_3
REMARK    3  A    between atoms: C_2  and  N_10
REMARK    4  A    between atoms: N_13  and  S_14
REMARK    5  A    between atoms: S_14  and  C_17
REMARK    6  A    between atoms: C_20  and  C_21
REMARK    7  A    between atoms: C_21  and  C_22
REMARK    8  A    between atoms: C_21  and  C_23
REMARK    9  A    between atoms: C_21  and  C_24
REMARK   10  A    between atoms: C_27  and  C_28
REMARK                            x       y       z     vdW  Elec       q    Type
REMARK                         _______ _______ _______ _____ _____    ______ ____
ROOT
ATOM      1  N   UNL     1      -2.398  13.262  21.448  0.00  0.00    +0.000 NA
ATOM      2  C   UNL     1      -1.464  12.451  22.226  0.00  0.00    +0.000 C 
ATOM      3  C   UNL     1      -1.135  11.073  21.629  0.00  0.00    +0.000 C 
ATOM      4  N   UNL     1      -0.765  11.099  20.170  0.00  0.00    +0.000 NA
ATOM      5  C   UNL     1      -1.585  12.051  19.316  0.00  0.00    +0.000 C 
ATOM      6  C   UNL     1      -2.781  11.361  18.653  0.00  0.00    +0.000 C 
ATOM      7  C   UNL     1      -1.949  13.358  20.055  0.00  0.00    +0.000 C 
ENDROOT
BRANCH   4   8
ATOM      8  S   UNL     1       0.924  11.238  19.881  0.00  0.00    +0.000 S 
ATOM      9  O   UNL     1       1.109  11.913  18.613  0.00  0.00    +0.000 OA
ATOM     10  O   UNL     1       1.527  11.751  21.094  0.00  0.00    +0.000 OA
BRANCH   8  11
ATOM     11  C   UNL     1       1.452   9.563  19.652  0.00  0.00    +0.000 A 
ATOM     12  C   UNL     1       1.372   8.672  20.721  0.00  0.00    +0.000 A 
ATOM     13  C   UNL     1       1.736   7.337  20.544  0.00  0.00    +0.000 A 
ATOM     14  C   UNL     1       2.186   6.853  19.297  0.00  0.00    +0.000 A 
ATOM     15  C   UNL     1       2.265   7.779  18.233  0.00  0.00    +0.000 A 
ATOM     16  C   UNL     1       1.898   9.118  18.405  0.00  0.00    +0.000 A 
BRANCH  14  17
ATOM     17  C   UNL     1       2.566   5.381  19.074  0.00  0.00    +0.000 C 
ATOM     18  C   UNL     1       1.853   4.742  17.860  0.00  0.00    +0.000 C 
ATOM     19  C   UNL     1       4.085   5.265  18.827  0.00  0.00    +0.000 C 
ATOM     20  C   UNL     1       2.195   4.541  20.313  0.00  0.00    +0.000 C 
ENDBRANCH  14  17
ENDBRANCH   8  11
ENDBRANCH   4   8
BRANCH   1  22
ATOM     21  C   UNL     1      -4.302  12.914  23.134  0.00  0.00    +0.000 C 
ATOM     22  C   UNL     1      -3.836  13.004  21.672  0.00  0.00    +0.000 C 
BRANCH  22  23
ATOM     23  C   UNL     1      -4.696  14.111  20.974  0.00  0.00    +0.000 C 
ATOM     24  O   UNL     1      -4.504  15.310  21.209  0.00  0.00    +0.000 OA
ATOM     25  N   UNL     1      -5.721  13.727  20.136  0.00  0.00    +0.000 N 
ATOM     26  C   UNL     1      -6.607  14.698  19.529  0.00  0.00    +0.000 C 
ATOM     27  C   UNL     1      -7.912  13.935  19.415  0.00  0.00    +0.000 C 
ATOM     28  C   UNL     1      -7.461  12.513  19.089  0.00  0.00    +0.000 C 
ATOM     29  C   UNL     1      -6.083  12.379  19.735  0.00  0.00    +0.000 C 
ENDBRANCH  22  23
ENDBRANCH   1  22
TORSDOF 5
ENDMDL
MODEL 3
REMARK VINA RESULT:      -6.6      4.079      6.275
REMARK  Name = 
REMARK  10 active torsions:
REMARK  status: ('A' for Active; 'I' for Inactive)
REMARK    1  A    between atoms: C_1  and  C_2
REMARK    2  A    between atoms: C_2  and  C_3
REMARK    3  A    between atoms: C_2  and  N_10
REMARK    4  A    between atoms: N_13  and  S_14
REMARK    5  A    between atoms: S_14  and  C_17
REMARK    6  A    between atoms: C_20  and  C_21
REMARK    7  A    between atoms: C_21  and  C_22
REMARK    8  A    between atoms: C_21  and  C_23
REMARK    9  A    between atoms: C_21  and  C_24
REMARK   10  A    between atoms: C_27  and  C_28
REMARK                            x       y       z     vdW  Elec       q    Type
REMARK                         _______ _______ _______ _____ _____    ______ ____
ROOT
ATOM      1  N   UNL     1      -1.029  12.034  19.662  0.00  0.00    +0.000 NA
ATOM      2  C   UNL     1       0.319  12.324  19.177  0.00  0.00    +0.000 C 
ATOM      3  C   UNL     1       1.431  11.433  19.753  0.00  0.00    +0.000 C 
ATOM      4  N   UNL     1       1.133   9.958  19.711  0.00  0.00    +0.000 NA
ATOM      5  C   UNL     1      -0.302   9.583  20.040  0.00  0.00    +0.000 C 
ATOM      6  C   UNL     1      -0.491   9.234  21.519  0.00  0.00    +0.000 C 
ATOM      7  C   UNL     1      -1.329  10.606  19.504  0.00  0.00    +0.000 C 
ENDROOT
BRANCH   4   8
ATOM      8  S   UNL     1       1.715   9.170  18.297  0.00  0.00    +0.000 S 
ATOM      9  O   UNL     1       0.642   9.142  17.325  0.00  0.00    +0.000 OA
ATOM     10  O   UNL     1       2.999   9.757  17.976  0.00  0.00    +0.000 OA
BRANCH   8  11
ATOM     11  C   UNL     1       1.973   7.498  18.824  0.00  0.00    +0.000 A 
ATOM     12  C   UNL     1       1.981   7.208  20.187  0.00  0.00    +0.000 A 
ATOM     13  C   UNL     1       2.132   5.889  20.617  0.00  0.00    +0.000 A 
ATOM     14  C   UNL     1       2.276   4.825  19.702  0.00  0.00    +0.000 A 
ATOM     15  C   UNL     1       2.274   5.149  18.327  0.00  0.00    +0.000 A 
ATOM     16  C   UNL     1       2.118   6.469  17.890  0.00  0.00    +0.000 A 
BRANCH  14  17
ATOM     17  C   UNL     1       2.418   3.364  20.155  0.00  0.00    +0.000 C 
ATOM     18  C   UNL     1       1.513   2.389  19.367  0.00  0.00    +0.000 C 
ATOM     19  C   UNL     1       3.876   2.895  19.960  0.00  0.00    +0.000 C 
ATOM     20  C   UNL     1       2.043   3.229  21.645  0.00  0.00    +0.000 C 
ENDBRANCH  14  17
ENDBRANCH   8  11
ENDBRANCH   4   8
BRANCH   1  22
ATOM     21  C   UNL     1      -0.793  14.030  21.257  0.00  0.00    +0.000 C 
ATOM     22  C   UNL     1      -1.416  12.661  20.943  0.00  0.00    +0.000 C 
BRANCH  22  23
ATOM     23  C   UNL     1      -2.971  12.827  21.012  0.00  0.00    +0.000 C 
ATOM     24  O   UNL     1      -3.618  13.191  20.023  0.00  0.00    +0.000 OA
ATOM     25  N   UNL     1      -3.609  12.624  22.217  0.00  0.00    +0.000 N 
ATOM     26  C   UNL     1      -5.031  12.846  22.368  0.00  0.00    +0.000 C 
ATOM     27  C   UNL     1      -5.150  13.289  23.814  0.00  0.00    +0.000 C 
ATOM     28  C   UNL     1      -4.094  12.449  24.527  0.00  0.00    +0.000 C 
ATOM     29  C   UNL     1      -3.021  12.184  23.470  0.00  0.00    +0.000 C 
ENDBRANCH  22  23
ENDBRANCH   1  22
TORSDOF 5
ENDMDL
MODEL 4
REMARK VINA RESULT:      -6.5      3.576      5.829
REMARK  Name = 
REMARK  10 active torsions:
REMARK  status: ('A' for Active; 'I' for Inactive)
REMARK    1  A    between atoms: C_1  and  C_2
REMARK    2  A    between atoms: C_2  and  C_3
REMARK    3  A    between atoms: C_2  and  N_10
REMARK    4  A    between atoms: N_13  and  S_14
REMARK    5  A    between atoms: S_14  and  C_17
REMARK    6  A    between atoms: C_20  and  C_21
REMARK    7  A    between atoms: C_21  and  C_22
REMARK    8  A    between atoms: C_21  and  C_23
REMARK    9  A    between atoms: C_21  and  C_24
REMARK   10  A    between atoms: C_27  and  C_28
REMARK                            x       y       z     vdW  Elec       q    Type
REMARK                         _______ _______ _______ _____ _____    ______ ____
ROOT
ATOM      1  N   UNL     1      -0.665  13.143  20.268  0.00  0.00    +0.000 NA
ATOM      2  C   UNL     1       0.713  13.187  19.783  0.00  0.00    +0.000 C 
ATOM      3  C   UNL     1       1.604  12.014  20.225  0.00  0.00    +0.000 C 
ATOM      4  N   UNL     1       0.989  10.655  20.025  0.00  0.00    +0.000 NA
ATOM      5  C   UNL     1      -0.493  10.566  20.348  0.00  0.00    +0.000 C 
ATOM      6  C   UNL     1      -0.751  10.098  21.783  0.00  0.00    +0.000 C 
ATOM      7  C   UNL     1      -1.270  11.842  19.959  0.00  0.00    +0.000 C 
ENDROOT
BRANCH   4   8
ATOM      8  S   UNL     1       1.381   9.928  18.517  0.00  0.00    +0.000 S 
ATOM      9  O   UNL     1       0.177   9.883  17.712  0.00  0.00    +0.000 OA
ATOM     10  O   UNL     1       2.582  10.572  18.028  0.00  0.00    +0.000 OA
BRANCH   8  11
ATOM     11  C   UNL     1       1.773   8.254  18.946  0.00  0.00    +0.000 A 
ATOM     12  C   UNL     1       1.588   7.827  20.259  0.00  0.00    +0.000 A 
ATOM     13  C   UNL     1       1.843   6.499  20.603  0.00  0.00    +0.000 A 
ATOM     14  C   UNL     1       2.287   5.561  19.647  0.00  0.00    +0.000 A 
ATOM     15  C   UNL     1       2.474   6.022  18.325  0.00  0.00    +0.000 A 
ATOM     16  C   UNL     1       2.216   7.352  17.974  0.00  0.00    +0.000 A 
BRANCH  14  17
ATOM     17  C   UNL     1       2.548   4.088  19.999  0.00  0.00    +0.000 C 
ATOM     18  C   UNL     1       2.330   3.769  21.496  0.00  0.00    +0.000 C 
ATOM     19  C   UNL     1       1.595   3.180  19.193  0.00  0.00    +0.000 C 
ATOM     20  C   UNL     1       4.005   3.711  19.662  0.00  0.00    +0.000 C 
ENDBRANCH  14  17
ENDBRANCH   8  11
ENDBRANCH   4   8
BRANCH   1  22
ATOM     21  C   UNL     1       0.047  14.799  22.095  0.00  0.00    +0.000 C 
ATOM     22  C   UNL     1      -0.902  13.687  21.622  0.00  0.00    +0.000 C 
BRANCH  22  23
ATOM     23  C   UNL     1      -2.362  14.240  21.730  0.00  0.00    +0.000 C 
ATOM     24  O   UNL     1      -2.720  15.228  21.078  0.00  0.00    +0.000 OA
ATOM     25  N   UNL     1      -3.235  13.646  22.617  0.00  0.00    +0.000 N 
ATOM     26  C   UNL     1      -4.570  14.164  22.828  0.00  0.00    +0.000 C 
ATOM     27  C   UNL     1      -4.837  13.819  24.280  0.00  0.00    +0.000 C 
ATOM     28  C   UNL     1      -4.150  12.468  24.454  0.00  0.00    +0.000 C 
ATOM     29  C   UNL     1      -2.998  12.480  23.449  0.00  0.00    +0.000 C 
ENDBRANCH  22  23
ENDBRANCH   1  22
TORSDOF 5
ENDMDL
MODEL 5
REMARK VINA RESULT:      -6.5      3.498      7.669
REMARK  Name = 
REMARK  10 active torsions:
REMARK  status: ('A' for Active; 'I' for Inactive)
REMARK    1  A    between atoms: C_1  and  C_2
REMARK    2  A    between atoms: C_2  and  C_3
REMARK    3  A    between atoms: C_2  and  N_10
REMARK    4  A    between atoms: N_13  and  S_14
REMARK    5  A    between atoms: S_14  and  C_17
REMARK    6  A    between atoms: C_20  and  C_21
REMARK    7  A    between atoms: C_21  and  C_22
REMARK    8  A    between atoms: C_21  and  C_23
REMARK    9  A    between atoms: C_21  and  C_24
REMARK   10  A    between atoms: C_27  and  C_28
REMARK                            x       y       z     vdW  Elec       q    Type
REMARK                         _______ _______ _______ _____ _____    ______ ____
ROOT
ATOM      1  N   UNL     1      -0.018  13.825  20.009  0.00  0.00    +0.000 NA
ATOM      2  C   UNL     1       0.822  14.455  21.026  0.00  0.00    +0.000 C 
ATOM      3  C   UNL     1       2.295  14.015  21.028  0.00  0.00    +0.000 C 
ATOM      4  N   UNL     1       2.953  14.037  19.674  0.00  0.00    +0.000 NA
ATOM      5  C   UNL     1       2.081  13.552  18.527  0.00  0.00    +0.000 C 
ATOM      6  C   UNL     1       2.284  12.064  18.227  0.00  0.00    +0.000 C 
ATOM      7  C   UNL     1       0.600  13.960  18.685  0.00  0.00    +0.000 C 
ENDROOT
BRANCH   4   8
ATOM      8  S   UNL     1       3.757  15.514  19.314  0.00  0.00    +0.000 S 
ATOM      9  O   UNL     1       3.289  15.978  18.024  0.00  0.00    +0.000 OA
ATOM     10  O   UNL     1       3.661  16.354  20.489  0.00  0.00    +0.000 OA
BRANCH   8  11
ATOM     11  C   UNL     1       5.449  15.031  19.101  0.00  0.00    +0.000 A 
ATOM     12  C   UNL     1       5.895  14.654  17.836  0.00  0.00    +0.000 A 
ATOM     13  C   UNL     1       7.235  14.320  17.641  0.00  0.00    +0.000 A 
ATOM     14  C   UNL     1       8.167  14.355  18.700  0.00  0.00    +0.000 A 
ATOM     15  C   UNL     1       7.686  14.732  19.973  0.00  0.00    +0.000 A 
ATOM     16  C   UNL     1       6.343  15.072  20.174  0.00  0.00    +0.000 A 
BRANCH  14  17
ATOM     17  C   UNL     1       9.653  14.016  18.501  0.00  0.00    +0.000 C 
ATOM     18  C   UNL     1      10.435  15.116  17.747  0.00  0.00    +0.000 C 
ATOM     19  C   UNL     1      10.334  13.826  19.873  0.00  0.00    +0.000 C 
ATOM     20  C   UNL     1       9.797  12.715  17.685  0.00  0.00    +0.000 C 
ENDBRANCH  14  17
ENDBRANCH   8  11
ENDBRANCH   4   8
BRANCH   1  22
ATOM     21  C   UNL     1      -0.663  12.152  21.846  0.00  0.00    +0.000 C 
ATOM     22  C   UNL     1      -0.583  12.502  20.352  0.00  0.00    +0.000 C 
BRANCH  22  23
ATOM     23  C   UNL     1      -2.027  12.366  19.761  0.00  0.00    +0.000 C 
ATOM     24  O   UNL     1      -2.989  12.932  20.291  0.00  0.00    +0.000 OA
ATOM     25  N   UNL     1      -2.224  11.546  18.670  0.00  0.00    +0.000 N 
ATOM     26  C   UNL     1      -3.545  11.309  18.129  0.00  0.00    +0.000 C 
ATOM     27  C   UNL     1      -3.437   9.897  17.588  0.00  0.00    +0.000 C 
ATOM     28  C   UNL     1      -2.011   9.834  17.050  0.00  0.00    +0.000 C 
ATOM     29  C   UNL     1      -1.221  10.818  17.913  0.00  0.00    +0.000 C 
ENDBRANCH  22  23
ENDBRANCH   1  22
TORSDOF 5
ENDMDL
MODEL 6
REMARK VINA RESULT:      -6.4      4.151      6.317
REMARK  Name = 
REMARK  10 active torsions:
REMARK  status: ('A' for Active; 'I' for Inactive)
REMARK    1  A    between atoms: C_1  and  C_2
REMARK    2  A    between atoms: C_2  and  C_3
REMARK    3  A    between atoms: C_2  and  N_10
REMARK    4  A    between atoms: N_13  and  S_14
REMARK    5  A    between atoms: S_14  and  C_17
REMARK    6  A    between atoms: C_20  and  C_21
REMARK    7  A    between atoms: C_21  and  C_22
REMARK    8  A    between atoms: C_21  and  C_23
REMARK    9  A    between atoms: C_21  and  C_24
REMARK   10  A    between atoms: C_27  and  C_28
REMARK                            x       y       z     vdW  Elec       q    Type
REMARK                         _______ _______ _______ _____ _____    ______ ____
ROOT
ATOM      1  N   UNL     1      -1.051  11.845  19.750  0.00  0.00    +0.000 NA
ATOM      2  C   UNL     1       0.277  12.163  19.230  0.00  0.00    +0.000 C 
ATOM      3  C   UNL     1       1.425  11.307  19.789  0.00  0.00    +0.000 C 
ATOM      4  N   UNL     1       1.162   9.824  19.770  0.00  0.00    +0.000 NA
ATOM      5  C   UNL     1      -0.255   9.418  20.139  0.00  0.00    +0.000 C 
ATOM      6  C   UNL     1      -0.399   9.082  21.626  0.00  0.00    +0.000 C 
ATOM      7  C   UNL     1      -1.319  10.408  19.617  0.00  0.00    +0.000 C 
ENDROOT
BRANCH   4   8
ATOM      8  S   UNL     1       1.729   9.034  18.352  0.00  0.00    +0.000 S 
ATOM      9  O   UNL     1       0.668   9.061  17.367  0.00  0.00    +0.000 OA
ATOM     10  O   UNL     1       3.039   9.574  18.053  0.00  0.00    +0.000 OA
BRANCH   8  11
ATOM     11  C   UNL     1       1.917   7.346  18.858  0.00  0.00    +0.000 A 
ATOM     12  C   UNL     1       2.035   6.354  17.886  0.00  0.00    +0.000 A 
ATOM     13  C   UNL     1       2.234   5.027  18.266  0.00  0.00    +0.000 A 
ATOM     14  C   UNL     1       2.323   4.652  19.623  0.00  0.00    +0.000 A 
ATOM     15  C   UNL     1       2.192   5.676  20.587  0.00  0.00    +0.000 A 
ATOM     16  C   UNL     1       1.996   7.010  20.211  0.00  0.00    +0.000 A 
BRANCH  14  17
ATOM     17  C   UNL     1       2.568   3.200  20.062  0.00  0.00    +0.000 C 
ATOM     18  C   UNL     1       2.336   2.971  21.574  0.00  0.00    +0.000 C 
ATOM     19  C   UNL     1       1.611   2.256  19.303  0.00  0.00    +0.000 C 
ATOM     20  C   UNL     1       4.023   2.790  19.759  0.00  0.00    +0.000 C 
ENDBRANCH  14  17
ENDBRANCH   8  11
ENDBRANCH   4   8
BRANCH   1  22
ATOM     21  C   UNL     1      -0.708  13.792  21.387  0.00  0.00    +0.000 C 
ATOM     22  C   UNL     1      -1.423  12.478  21.034  0.00  0.00    +0.000 C 
BRANCH  22  23
ATOM     23  C   UNL     1      -2.962  12.758  21.069  0.00  0.00    +0.000 C 
ATOM     24  O   UNL     1      -3.562  13.153  20.063  0.00  0.00    +0.000 OA
ATOM     25  N   UNL     1      -3.636  12.619  22.263  0.00  0.00    +0.000 N 
ATOM     26  C   UNL     1      -5.041  12.945  22.383  0.00  0.00    +0.000 C 
ATOM     27  C   UNL     1      -5.155  13.417  23.820  0.00  0.00    +0.000 C 
ATOM     28  C   UNL     1      -4.177  12.513  24.565  0.00  0.00    +0.000 C 
ATOM     29  C   UNL     1      -3.106  12.156  23.534  0.00  0.00    +0.000 C 
ENDBRANCH  22  23
ENDBRANCH   1  22
TORSDOF 5
ENDMDL
MODEL 7
REMARK VINA RESULT:      -6.4      3.045      4.951
REMARK  Name = 
REMARK  10 active torsions:
REMARK  status: ('A' for Active; 'I' for Inactive)
REMARK    1  A    between atoms: C_1  and  C_2
REMARK    2  A    between atoms: C_2  and  C_3
REMARK    3  A    between atoms: C_2  and  N_10
REMARK    4  A    between atoms: N_13  and  S_14
REMARK    5  A    between atoms: S_14  and  C_17
REMARK    6  A    between atoms: C_20  and  C_21
REMARK    7  A    between atoms: C_21  and  C_22
REMARK    8  A    between atoms: C_21  and  C_23
REMARK    9  A    between atoms: C_21  and  C_24
REMARK   10  A    between atoms: C_27  and  C_28
REMARK                            x       y       z     vdW  Elec       q    Type
REMARK                         _______ _______ _______ _____ _____    ______ ____
ROOT
ATOM      1  N   UNL     1       0.149  14.703  20.775  0.00  0.00    +0.000 NA
ATOM      2  C   UNL     1       1.417  14.382  20.123  0.00  0.00    +0.000 C 
ATOM      3  C   UNL     1       1.968  12.976  20.414  0.00  0.00    +0.000 C 
ATOM      4  N   UNL     1       0.964  11.867  20.251  0.00  0.00    +0.000 NA
ATOM      5  C   UNL     1      -0.433  12.185  20.755  0.00  0.00    +0.000 C 
ATOM      6  C   UNL     1      -0.657  11.718  22.196  0.00  0.00    +0.000 C 
ATOM      7  C   UNL     1      -0.841  13.654  20.505  0.00  0.00    +0.000 C 
ENDROOT
BRANCH   4   8
ATOM      8  S   UNL     1       0.957  11.158  18.684  0.00  0.00    +0.000 S 
ATOM      9  O   UNL     1      -0.418  11.076  18.235  0.00  0.00    +0.000 OA
ATOM     10  O   UNL     1       1.960  11.844  17.897  0.00  0.00    +0.000 OA
BRANCH   8  11
ATOM     11  C   UNL     1       1.502   9.497  18.971  0.00  0.00    +0.000 A 
ATOM     12  C   UNL     1       1.281   8.914  20.217  0.00  0.00    +0.000 A 
ATOM     13  C   UNL     1       1.658   7.590  20.443  0.00  0.00    +0.000 A 
ATOM     14  C   UNL     1       2.262   6.811  19.434  0.00  0.00    +0.000 A 
ATOM     15  C   UNL     1       2.481   7.429  18.183  0.00  0.00    +0.000 A 
ATOM     16  C   UNL     1       2.101   8.755  17.949  0.00  0.00    +0.000 A 
BRANCH  14  17
ATOM     17  C   UNL     1       2.661   5.343  19.655  0.00  0.00    +0.000 C 
ATOM     18  C   UNL     1       2.056   4.381  18.607  0.00  0.00    +0.000 C 
ATOM     19  C   UNL     1       4.196   5.201  19.576  0.00  0.00    +0.000 C 
ATOM     20  C   UNL     1       2.183   4.864  21.041  0.00  0.00    +0.000 C 
ENDBRANCH  14  17
ENDBRANCH   8  11
ENDBRANCH   4   8
BRANCH   1  22
ATOM     21  C   UNL     1       1.530  15.923  22.561  0.00  0.00    +0.000 C 
ATOM     22  C   UNL     1       0.233  15.202  22.164  0.00  0.00    +0.000 C 
BRANCH  22  23
ATOM     23  C   UNL     1      -0.955  16.179  22.456  0.00  0.00    +0.000 C 
ATOM     24  O   UNL     1      -1.064  17.250  21.849  0.00  0.00    +0.000 OA
ATOM     25  N   UNL     1      -1.850  15.858  23.455  0.00  0.00    +0.000 N 
ATOM     26  C   UNL     1      -2.918  16.759  23.833  0.00  0.00    +0.000 C 
ATOM     27  C   UNL     1      -3.094  16.468  25.311  0.00  0.00    +0.000 C 
ATOM     28  C   UNL     1      -2.849  14.964  25.405  0.00  0.00    +0.000 C 
ATOM     29  C   UNL     1      -1.888  14.650  24.259  0.00  0.00    +0.000 C 
ENDBRANCH  22  23
ENDBRANCH   1  22
TORSDOF 5
ENDMDL
MODEL 8
REMARK VINA RESULT:      -6.4      4.329      6.814
REMARK  Name = 
REMARK  10 active torsions:
REMARK  status: ('A' for Active; 'I' for Inactive)
REMARK    1  A    between atoms: C_1  and  C_2
REMARK    2  A    between atoms: C_2  and  C_3
REMARK    3  A    between atoms: C_2  and  N_10
REMARK    4  A    between atoms: N_13  and  S_14
REMARK    5  A    between atoms: S_14  and  C_17
REMARK    6  A    between atoms: C_20  and  C_21
REMARK    7  A    between atoms: C_21  and  C_22
REMARK    8  A    between atoms: C_21  and  C_23
REMARK    9  A    between atoms: C_21  and  C_24
REMARK   10  A    between atoms: C_27  and  C_28
REMARK                            x       y       z     vdW  Elec       q    Type
REMARK                         _______ _______ _______ _____ _____    ______ ____
ROOT
ATOM      1  N   UNL     1      -2.069  13.317  22.378  0.00  0.00    +0.000 NA
ATOM      2  C   UNL     1      -1.067  12.354  22.830  0.00  0.00    +0.000 C 
ATOM      3  C   UNL     1      -0.901  11.111  21.941  0.00  0.00    +0.000 C 
ATOM      4  N   UNL     1      -0.758  11.410  20.472  0.00  0.00    +0.000 NA
ATOM      5  C   UNL     1      -1.652  12.524  19.954  0.00  0.00    +0.000 C 
ATOM      6  C   UNL     1      -2.967  11.997  19.373  0.00  0.00    +0.000 C 
ATOM      7  C   UNL     1      -1.835  13.671  20.973  0.00  0.00    +0.000 C 
ENDROOT
BRANCH   4   8
ATOM      8  S   UNL     1       0.872  11.572  19.949  0.00  0.00    +0.000 S 
ATOM      9  O   UNL     1       0.865  12.201  18.644  0.00  0.00    +0.000 OA
ATOM     10  O   UNL     1       1.622  12.143  21.048  0.00  0.00    +0.000 OA
BRANCH   8  11
ATOM     11  C   UNL     1       1.405   9.900  19.709  0.00  0.00    +0.000 A 
ATOM     12  C   UNL     1       1.315   8.998  20.768  0.00  0.00    +0.000 A 
ATOM     13  C   UNL     1       1.682   7.666  20.582  0.00  0.00    +0.000 A 
ATOM     14  C   UNL     1       2.147   7.195  19.336  0.00  0.00    +0.000 A 
ATOM     15  C   UNL     1       2.237   8.131  18.282  0.00  0.00    +0.000 A 
ATOM     16  C   UNL     1       1.866   9.468  18.463  0.00  0.00    +0.000 A 
BRANCH  14  17
ATOM     17  C   UNL     1       2.533   5.725  19.103  0.00  0.00    +0.000 C 
ATOM     18  C   UNL     1       1.746   5.062  17.948  0.00  0.00    +0.000 C 
ATOM     19  C   UNL     1       4.032   5.628  18.751  0.00  0.00    +0.000 C 
ATOM     20  C   UNL     1       2.261   4.896  20.374  0.00  0.00    +0.000 C 
ENDBRANCH  14  17
ENDBRANCH   8  11
ENDBRANCH   4   8
BRANCH   1  22
ATOM     21  C   UNL     1      -3.673  12.266  24.083  0.00  0.00    +0.000 C 
ATOM     22  C   UNL     1      -3.466  13.047  22.776  0.00  0.00    +0.000 C 
BRANCH  22  23
ATOM     23  C   UNL     1      -4.258  14.391  22.903  0.00  0.00    +0.000 C 
ATOM     24  O   UNL     1      -3.675  15.455  23.139  0.00  0.00    +0.000 OA
ATOM     25  N   UNL     1      -5.634  14.364  22.813  0.00  0.00    +0.000 N 
ATOM     26  C   UNL     1      -6.430  15.557  23.008  0.00  0.00    +0.000 C 
ATOM     27  C   UNL     1      -7.713  15.010  23.601  0.00  0.00    +0.000 C 
ATOM     28  C   UNL     1      -7.899  13.681  22.875  0.00  0.00    +0.000 C 
ATOM     29  C   UNL     1      -6.483  13.220  22.529  0.00  0.00    +0.000 C 
ENDBRANCH  22  23
ENDBRANCH   1  22
TORSDOF 5
ENDMDL
MODEL 9
REMARK VINA RESULT:      -6.4      3.057      4.923
REMARK  Name = 
REMARK  10 active torsions:
REMARK  status: ('A' for Active; 'I' for Inactive)
REMARK    1  A    between atoms: C_1  and  C_2
REMARK    2  A    between atoms: C_2  and  C_3
REMARK    3  A    between atoms: C_2  and  N_10
REMARK    4  A    between atoms: N_13  and  S_14
REMARK    5  A    between atoms: S_14  and  C_17
REMARK    6  A    between atoms: C_20  and  C_21
REMARK    7  A    between atoms: C_21  and  C_22
REMARK    8  A    between atoms: C_21  and  C_23
REMARK    9  A    between atoms: C_21  and  C_24
REMARK   10  A    between atoms: C_27  and  C_28
REMARK                            x       y       z     vdW  Elec       q    Type
REMARK                         _______ _______ _______ _____ _____    ______ ____
ROOT
ATOM      1  N   UNL     1       0.239  14.829  20.889  0.00  0.00    +0.000 NA
ATOM      2  C   UNL     1       1.511  14.500  20.248  0.00  0.00    +0.000 C 
ATOM      3  C   UNL     1       2.031  13.078  20.511  0.00  0.00    +0.000 C 
ATOM      4  N   UNL     1       1.008  11.992  20.305  0.00  0.00    +0.000 NA
ATOM      5  C   UNL     1      -0.390  12.325  20.797  0.00  0.00    +0.000 C 
ATOM      6  C   UNL     1      -0.644  11.826  22.222  0.00  0.00    +0.000 C 
ATOM      7  C   UNL     1      -0.766  13.807  20.579  0.00  0.00    +0.000 C 
ENDROOT
BRANCH   4   8
ATOM      8  S   UNL     1       1.011  11.323  18.721  0.00  0.00    +0.000 S 
ATOM      9  O   UNL     1      -0.347  11.354  18.218  0.00  0.00    +0.000 OA
ATOM     10  O   UNL     1       2.092  11.951  17.991  0.00  0.00    +0.000 OA
BRANCH   8  11
ATOM     11  C   UNL     1       1.422   9.620  18.984  0.00  0.00    +0.000 A 
ATOM     12  C   UNL     1       1.929   8.871  17.924  0.00  0.00    +0.000 A 
ATOM     13  C   UNL     1       2.306   7.543  18.127  0.00  0.00    +0.000 A 
ATOM     14  C   UNL     1       2.189   6.927  19.390  0.00  0.00    +0.000 A 
ATOM     15  C   UNL     1       1.663   7.705  20.444  0.00  0.00    +0.000 A 
ATOM     16  C   UNL     1       1.288   9.039  20.248  0.00  0.00    +0.000 A 
BRANCH  14  17
ATOM     17  C   UNL     1       2.621   5.473  19.640  0.00  0.00    +0.000 C 
ATOM     18  C   UNL     1       2.186   4.935  21.023  0.00  0.00    +0.000 C 
ATOM     19  C   UNL     1       1.996   4.551  18.572  0.00  0.00    +0.000 C 
ATOM     20  C   UNL     1       4.157   5.355  19.569  0.00  0.00    +0.000 C 
ENDBRANCH  14  17
ENDBRANCH   8  11
ENDBRANCH   4   8
BRANCH   1  22
ATOM     21  C   UNL     1       1.605  16.004  22.717  0.00  0.00    +0.000 C 
ATOM     22  C   UNL     1       0.312  15.292  22.292  0.00  0.00    +0.000 C 
BRANCH  22  23
ATOM     23  C   UNL     1      -0.879  16.260  22.600  0.00  0.00    +0.000 C 
ATOM     24  O   UNL     1      -0.946  17.376  22.073  0.00  0.00    +0.000 OA
ATOM     25  N   UNL     1      -1.826  15.876  23.525  0.00  0.00    +0.000 N 
ATOM     26  C   UNL     1      -2.903  16.759  23.919  0.00  0.00    +0.000 C 
ATOM     27  C   UNL     1      -3.157  16.357  25.358  0.00  0.00    +0.000 C 
ATOM     28  C   UNL     1      -2.933  14.847  25.346  0.00  0.00    +0.000 C 
ATOM     29  C   UNL     1      -1.917  14.609  24.229  0.00  0.00    +0.000 C 
ENDBRANCH  22  23
ENDBRANCH   1  22
TORSDOF 5
ENDMDL
