MODEL 1
REMARK VINA RESULT:      -7.2      0.000      0.000
REMARK  Name = 
REMARK  2 active torsions:
REMARK  status: ('A' for Active; 'I' for Inactive)
REMARK    1  A    between atoms: C_6  and  C_7
REMARK    2  A    between atoms: N_8  and  C_9
REMARK                            x       y       z     vdW  Elec       q    Type
REMARK                         _______ _______ _______ _____ _____    ______ ____
ROOT
ATOM      1  C   UNL     1       2.241   6.128  18.216  0.00  0.00    +0.000 C 
ATOM      2  N   UNL     1       3.315   6.802  17.921  0.00  0.00    +0.000 NA
ENDROOT
BRANCH   2   3
ATOM      3  C   UNL     1       4.565   6.190  18.078  0.00  0.00    +0.000 A 
ATOM      4  N   UNL     1       5.136   6.088  19.268  0.00  0.00    +0.000 NA
ATOM      5  S   UNL     1       6.539   5.226  19.093  0.00  0.00    +0.000 S 
ATOM      6  C   UNL     1       6.458   5.070  17.381  0.00  0.00    +0.000 A 
ATOM      7  C   UNL     1       7.339   4.417  16.504  0.00  0.00    +0.000 A 
ATOM      8  C   UNL     1       7.087   4.497  15.131  0.00  0.00    +0.000 A 
ATOM      9  C   UNL     1       5.996   5.209  14.650  0.00  0.00    +0.000 A 
ATOM     10  C   UNL     1       5.099   5.819  15.536  0.00  0.00    +0.000 A 
ATOM     11  C   UNL     1       5.315   5.737  16.934  0.00  0.00    +0.000 A 
ENDBRANCH   2   3
BRANCH   1  17
ATOM     12 CL   UNL     1       1.299   2.525  21.904  0.00  0.00    +0.000 Cl
ATOM     13  C   UNL     1       1.599   2.993  20.275  0.00  0.00    +0.000 A 
ATOM     14  C   UNL     1       1.662   2.017  19.279  0.00  0.00    +0.000 A 
ATOM     15  C   UNL     1       1.905   2.394  17.960  0.00  0.00    +0.000 A 
ATOM     16  C   UNL     1       2.074   3.743  17.642  0.00  0.00    +0.000 A 
ATOM     17  C   UNL     1       1.997   4.726  18.639  0.00  0.00    +0.000 A 
ATOM     18  C   UNL     1       1.783   4.343  19.965  0.00  0.00    +0.000 A 
ENDBRANCH   1  17
TORSDOF 2
ENDMDL
MODEL 2
REMARK VINA RESULT:      -7.1      2.264      3.141
REMARK  Name = 
REMARK  2 active torsions:
REMARK  status: ('A' for Active; 'I' for Inactive)
REMARK    1  A    between atoms: C_6  and  C_7
REMARK    2  A    between atoms: N_8  and  C_9
REMARK                            x       y       z     vdW  Elec       q    Type
REMARK                         _______ _______ _______ _____ _____    ______ ____
ROOT
ATOM      1  C   UNL     1       3.109   4.289  19.496  0.00  0.00    +0.000 C 
ATOM      2  N   UNL     1       4.232   3.662  19.292  0.00  0.00    +0.000 NA
ENDROOT
BRANCH   2   3
ATOM      3  C   UNL     1       5.334   4.382  18.815  0.00  0.00    +0.000 A 
ATOM      4  N   UNL     1       6.112   5.072  19.634  0.00  0.00    +0.000 NA
ATOM      5  S   UNL     1       7.360   5.703  18.748  0.00  0.00    +0.000 S 
ATOM      6  C   UNL     1       6.809   5.147  17.215  0.00  0.00    +0.000 A 
ATOM      7  C   UNL     1       7.396   5.302  15.949  0.00  0.00    +0.000 A 
ATOM      8  C   UNL     1       6.707   4.816  14.835  0.00  0.00    +0.000 A 
ATOM      9  C   UNL     1       5.469   4.201  14.979  0.00  0.00    +0.000 A 
ATOM     10  C   UNL     1       4.913   4.013  16.251  0.00  0.00    +0.000 A 
ATOM     11  C   UNL     1       5.600   4.475  17.401  0.00  0.00    +0.000 A 
ENDBRANCH   2   3
BRANCH   1  17
ATOM     12 CL   UNL     1       1.159   8.656  21.638  0.00  0.00    +0.000 Cl
ATOM     13  C   UNL     1       1.781   7.761  20.306  0.00  0.00    +0.000 A 
ATOM     14  C   UNL     1       1.883   8.371  19.055  0.00  0.00    +0.000 A 
ATOM     15  C   UNL     1       2.387   7.647  17.975  0.00  0.00    +0.000 A 
ATOM     16  C   UNL     1       2.793   6.324  18.153  0.00  0.00    +0.000 A 
ATOM     17  C   UNL     1       2.703   5.715  19.413  0.00  0.00    +0.000 A 
ATOM     18  C   UNL     1       2.170   6.432  20.487  0.00  0.00    +0.000 A 
ENDBRANCH   1  17
TORSDOF 2
ENDMDL
MODEL 3
REMARK VINA RESULT:      -7.0      3.264      5.743
REMARK  Name = 
REMARK  2 active torsions:
REMARK  status: ('A' for Active; 'I' for Inactive)
REMARK    1  A    between atoms: C_6  and  C_7
REMARK    2  A    between atoms: N_8  and  C_9
REMARK                            x       y       z     vdW  Elec       q    Type
REMARK                         _______ _______ _______ _____ _____    ______ ____
ROOT
ATOM      1  C   UNL     1       5.746   4.822  16.005  0.00  0.00    +0.000 C 
ATOM      2  N   UNL     1       4.620   4.173  16.074  0.00  0.00    +0.000 NA
ENDROOT
BRANCH   2   3
ATOM      3  C   UNL     1       4.013   3.998  17.324  0.00  0.00    +0.000 A 
ATOM      4  N   UNL     1       3.918   2.801  17.882  0.00  0.00    +0.000 NA
ATOM      5  S   UNL     1       3.245   2.986  19.383  0.00  0.00    +0.000 S 
ATOM      6  C   UNL     1       2.964   4.680  19.262  0.00  0.00    +0.000 A 
ATOM      7  C   UNL     1       2.410   5.560  20.206  0.00  0.00    +0.000 A 
ATOM      8  C   UNL     1       2.218   6.893  19.836  0.00  0.00    +0.000 A 
ATOM      9  C   UNL     1       2.562   7.333  18.563  0.00  0.00    +0.000 A 
ATOM     10  C   UNL     1       3.155   6.457  17.645  0.00  0.00    +0.000 A 
ATOM     11  C   UNL     1       3.382   5.104  17.999  0.00  0.00    +0.000 A 
ENDBRANCH   2   3
BRANCH   1  17
ATOM     12 CL   UNL     1       7.997   9.197  17.810  0.00  0.00    +0.000 Cl
ATOM     13  C   UNL     1       7.674   7.509  17.888  0.00  0.00    +0.000 A 
ATOM     14  C   UNL     1       8.238   6.747  18.912  0.00  0.00    +0.000 A 
ATOM     15  C   UNL     1       7.977   5.379  18.977  0.00  0.00    +0.000 A 
ATOM     16  C   UNL     1       7.149   4.784  18.025  0.00  0.00    +0.000 A 
ATOM     17  C   UNL     1       6.570   5.551  17.003  0.00  0.00    +0.000 A 
ATOM     18  C   UNL     1       6.857   6.915  16.922  0.00  0.00    +0.000 A 
ENDBRANCH   1  17
TORSDOF 2
ENDMDL
MODEL 4
REMARK VINA RESULT:      -6.9      2.417      3.333
REMARK  Name = 
REMARK  2 active torsions:
REMARK  status: ('A' for Active; 'I' for Inactive)
REMARK    1  A    between atoms: C_6  and  C_7
REMARK    2  A    between atoms: N_8  and  C_9
REMARK                            x       y       z     vdW  Elec       q    Type
REMARK                         _______ _______ _______ _____ _____    ______ ____
ROOT
ATOM      1  C   UNL     1       2.688   3.753  18.801  0.00  0.00    +0.000 C 
ATOM      2  N   UNL     1       3.784   3.140  18.454  0.00  0.00    +0.000 NA
ENDROOT
BRANCH   2   3
ATOM      3  C   UNL     1       4.948   3.893  18.258  0.00  0.00    +0.000 A 
ATOM      4  N   UNL     1       5.607   4.420  19.279  0.00  0.00    +0.000 NA
ATOM      5  S   UNL     1       6.974   5.145  18.690  0.00  0.00    +0.000 S 
ATOM      6  C   UNL     1       6.643   4.858  17.025  0.00  0.00    +0.000 A 
ATOM      7  C   UNL     1       7.406   5.194  15.895  0.00  0.00    +0.000 A 
ATOM      8  C   UNL     1       6.878   4.913  14.632  0.00  0.00    +0.000 A 
ATOM      9  C   UNL     1       5.628   4.321  14.500  0.00  0.00    +0.000 A 
ATOM     10  C   UNL     1       4.895   3.950  15.635  0.00  0.00    +0.000 A 
ATOM     11  C   UNL     1       5.414   4.202  16.929  0.00  0.00    +0.000 A 
ENDBRANCH   2   3
BRANCH   1  17
ATOM     12 CL   UNL     1       2.372   8.838  17.577  0.00  0.00    +0.000 Cl
ATOM     13  C   UNL     1       2.225   7.527  18.682  0.00  0.00    +0.000 A 
ATOM     14  C   UNL     1       1.823   7.776  19.995  0.00  0.00    +0.000 A 
ATOM     15  C   UNL     1       1.703   6.715  20.891  0.00  0.00    +0.000 A 
ATOM     16  C   UNL     1       1.977   5.414  20.468  0.00  0.00    +0.000 A 
ATOM     17  C   UNL     1       2.368   5.161  19.145  0.00  0.00    +0.000 A 
ATOM     18  C   UNL     1       2.516   6.229  18.258  0.00  0.00    +0.000 A 
ENDBRANCH   1  17
TORSDOF 2
ENDMDL
MODEL 5
REMARK VINA RESULT:      -6.9      3.172      5.979
REMARK  Name = 
REMARK  2 active torsions:
REMARK  status: ('A' for Active; 'I' for Inactive)
REMARK    1  A    between atoms: C_6  and  C_7
REMARK    2  A    between atoms: N_8  and  C_9
REMARK                            x       y       z     vdW  Elec       q    Type
REMARK                         _______ _______ _______ _____ _____    ______ ____
ROOT
ATOM      1  C   UNL     1       5.204   5.018  16.585  0.00  0.00    +0.000 C 
ATOM      2  N   UNL     1       3.930   4.817  16.762  0.00  0.00    +0.000 NA
ENDROOT
BRANCH   2   3
ATOM      3  C   UNL     1       3.334   5.250  17.953  0.00  0.00    +0.000 A 
ATOM      4  N   UNL     1       2.960   6.509  18.118  0.00  0.00    +0.000 NA
ATOM      5  S   UNL     1       2.208   6.635  19.588  0.00  0.00    +0.000 S 
ATOM      6  C   UNL     1       2.476   5.007  20.081  0.00  0.00    +0.000 A 
ATOM      7  C   UNL     1       2.085   4.360  21.264  0.00  0.00    +0.000 A 
ATOM      8  C   UNL     1       2.492   3.039  21.462  0.00  0.00    +0.000 A 
ATOM      9  C   UNL     1       3.269   2.385  20.513  0.00  0.00    +0.000 A 
ATOM     10  C   UNL     1       3.616   3.026  19.317  0.00  0.00    +0.000 A 
ATOM     11  C   UNL     1       3.199   4.359  19.078  0.00  0.00    +0.000 A 
ENDBRANCH   2   3
BRANCH   1  17
ATOM     12 CL   UNL     1       8.072   9.268  17.669  0.00  0.00    +0.000 Cl
ATOM     13  C   UNL     1       7.641   7.620  17.915  0.00  0.00    +0.000 A 
ATOM     14  C   UNL     1       8.321   6.866  18.872  0.00  0.00    +0.000 A 
ATOM     15  C   UNL     1       7.973   5.531  19.073  0.00  0.00    +0.000 A 
ATOM     16  C   UNL     1       6.943   4.962  18.324  0.00  0.00    +0.000 A 
ATOM     17  C   UNL     1       6.248   5.722  17.371  0.00  0.00    +0.000 A 
ATOM     18  C   UNL     1       6.620   7.051  17.151  0.00  0.00    +0.000 A 
ENDBRANCH   1  17
TORSDOF 2
ENDMDL
MODEL 6
REMARK VINA RESULT:      -6.8      2.907      5.838
REMARK  Name = 
REMARK  2 active torsions:
REMARK  status: ('A' for Active; 'I' for Inactive)
REMARK    1  A    between atoms: C_6  and  C_7
REMARK    2  A    between atoms: N_8  and  C_9
REMARK                            x       y       z     vdW  Elec       q    Type
REMARK                         _______ _______ _______ _____ _____    ______ ____
ROOT
ATOM      1  C   UNL     1       3.709   6.718  17.619  0.00  0.00    +0.000 C 
ATOM      2  N   UNL     1       2.561   6.291  18.059  0.00  0.00    +0.000 NA
ENDROOT
BRANCH   2   3
ATOM      3  C   UNL     1       2.352   4.912  18.181  0.00  0.00    +0.000 A 
ATOM      4  N   UNL     1       2.164   4.147  17.117  0.00  0.00    +0.000 NA
ATOM      5  S   UNL     1       2.056   2.575  17.625  0.00  0.00    +0.000 S 
ATOM      6  C   UNL     1       2.148   2.910  19.311  0.00  0.00    +0.000 A 
ATOM      7  C   UNL     1       2.135   2.021  20.397  0.00  0.00    +0.000 A 
ATOM      8  C   UNL     1       2.148   2.553  21.689  0.00  0.00    +0.000 A 
ATOM      9  C   UNL     1       2.169   3.928  21.891  0.00  0.00    +0.000 A 
ATOM     10  C   UNL     1       2.226   4.804  20.800  0.00  0.00    +0.000 A 
ATOM     11  C   UNL     1       2.236   4.294  19.478  0.00  0.00    +0.000 A 
ENDBRANCH   2   3
BRANCH   1  17
ATOM     12 CL   UNL     1       6.970   4.592  14.111  0.00  0.00    +0.000 Cl
ATOM     13  C   UNL     1       6.531   5.012  15.722  0.00  0.00    +0.000 A 
ATOM     14  C   UNL     1       7.381   4.678  16.776  0.00  0.00    +0.000 A 
ATOM     15  C   UNL     1       7.027   5.017  18.081  0.00  0.00    +0.000 A 
ATOM     16  C   UNL     1       5.832   5.696  18.322  0.00  0.00    +0.000 A 
ATOM     17  C   UNL     1       4.983   6.045  17.262  0.00  0.00    +0.000 A 
ATOM     18  C   UNL     1       5.326   5.677  15.959  0.00  0.00    +0.000 A 
ENDBRANCH   1  17
TORSDOF 2
ENDMDL
MODEL 7
REMARK VINA RESULT:      -6.8      3.142      5.959
REMARK  Name = 
REMARK  2 active torsions:
REMARK  status: ('A' for Active; 'I' for Inactive)
REMARK    1  A    between atoms: C_6  and  C_7
REMARK    2  A    between atoms: N_8  and  C_9
REMARK                            x       y       z     vdW  Elec       q    Type
REMARK                         _______ _______ _______ _____ _____    ______ ____
ROOT
ATOM      1  C   UNL     1       5.952   4.850  16.182  0.00  0.00    +0.000 C 
ATOM      2  N   UNL     1       4.686   4.560  16.088  0.00  0.00    +0.000 NA
ENDROOT
BRANCH   2   3
ATOM      3  C   UNL     1       3.828   4.923  17.133  0.00  0.00    +0.000 A 
ATOM      4  N   UNL     1       3.687   6.187  17.500  0.00  0.00    +0.000 NA
ATOM      5  S   UNL     1       2.529   6.254  18.681  0.00  0.00    +0.000 S 
ATOM      6  C   UNL     1       2.274   4.556  18.799  0.00  0.00    +0.000 A 
ATOM      7  C   UNL     1       1.384   3.844  19.619  0.00  0.00    +0.000 A 
ATOM      8  C   UNL     1       1.420   2.448  19.580  0.00  0.00    +0.000 A 
ATOM      9  C   UNL     1       2.319   1.783  18.753  0.00  0.00    +0.000 A 
ATOM     10  C   UNL     1       3.171   2.503  17.908  0.00  0.00    +0.000 A 
ATOM     11  C   UNL     1       3.143   3.920  17.908  0.00  0.00    +0.000 A 
ENDBRANCH   2   3
BRANCH   1  17
ATOM     12 CL   UNL     1       8.232   9.254  17.875  0.00  0.00    +0.000 Cl
ATOM     13  C   UNL     1       7.873   7.576  18.013  0.00  0.00    +0.000 A 
ATOM     14  C   UNL     1       8.389   6.848  19.085  0.00  0.00    +0.000 A 
ATOM     15  C   UNL     1       8.099   5.489  19.198  0.00  0.00    +0.000 A 
ATOM     16  C   UNL     1       7.290   4.870  18.245  0.00  0.00    +0.000 A 
ATOM     17  C   UNL     1       6.759   5.604  17.174  0.00  0.00    +0.000 A 
ATOM     18  C   UNL     1       7.075   6.958  17.047  0.00  0.00    +0.000 A 
ENDBRANCH   1  17
TORSDOF 2
ENDMDL
MODEL 8
REMARK VINA RESULT:      -6.7      2.620      5.799
REMARK  Name = 
REMARK  2 active torsions:
REMARK  status: ('A' for Active; 'I' for Inactive)
REMARK    1  A    between atoms: C_6  and  C_7
REMARK    2  A    between atoms: N_8  and  C_9
REMARK                            x       y       z     vdW  Elec       q    Type
REMARK                         _______ _______ _______ _____ _____    ______ ____
ROOT
ATOM      1  C   UNL     1       5.372   4.568  16.483  0.00  0.00    +0.000 C 
ATOM      2  N   UNL     1       4.087   4.391  16.596  0.00  0.00    +0.000 NA
ENDROOT
BRANCH   2   3
ATOM      3  C   UNL     1       3.415   4.973  17.678  0.00  0.00    +0.000 A 
ATOM      4  N   UNL     1       3.441   6.281  17.881  0.00  0.00    +0.000 NA
ATOM      5  S   UNL     1       2.464   6.620  19.175  0.00  0.00    +0.000 S 
ATOM      6  C   UNL     1       2.076   4.987  19.557  0.00  0.00    +0.000 A 
ATOM      7  C   UNL     1       1.245   4.483  20.571  0.00  0.00    +0.000 A 
ATOM      8  C   UNL     1       1.150   3.097  20.722  0.00  0.00    +0.000 A 
ATOM      9  C   UNL     1       1.864   2.242  19.892  0.00  0.00    +0.000 A 
ATOM     10  C   UNL     1       2.655   2.754  18.856  0.00  0.00    +0.000 A 
ATOM     11  C   UNL     1       2.754   4.154  18.664  0.00  0.00    +0.000 A 
ENDBRANCH   2   3
BRANCH   1  17
ATOM     12 CL   UNL     1       8.599   5.252  20.555  0.00  0.00    +0.000 Cl
ATOM     13  C   UNL     1       7.849   5.787  19.101  0.00  0.00    +0.000 A 
ATOM     14  C   UNL     1       8.141   7.058  18.604  0.00  0.00    +0.000 A 
ATOM     15  C   UNL     1       7.534   7.492  17.426  0.00  0.00    +0.000 A 
ATOM     16  C   UNL     1       6.649   6.652  16.749  0.00  0.00    +0.000 A 
ATOM     17  C   UNL     1       6.366   5.370  17.241  0.00  0.00    +0.000 A 
ATOM     18  C   UNL     1       6.951   4.948  18.437  0.00  0.00    +0.000 A 
ENDBRANCH   1  17
TORSDOF 2
ENDMDL
MODEL 9
REMARK VINA RESULT:      -6.7      3.337      5.786
REMARK  Name = 
REMARK  2 active torsions:
REMARK  status: ('A' for Active; 'I' for Inactive)
REMARK    1  A    between atoms: C_6  and  C_7
REMARK    2  A    between atoms: N_8  and  C_9
REMARK                            x       y       z     vdW  Elec       q    Type
REMARK                         _______ _______ _______ _____ _____    ______ ____
ROOT
ATOM      1  C   UNL     1       4.704   4.794  16.795  0.00  0.00    +0.000 C 
ATOM      2  N   UNL     1       3.446   4.621  17.088  0.00  0.00    +0.000 NA
ENDROOT
BRANCH   2   3
ATOM      3  C   UNL     1       2.974   5.057  18.332  0.00  0.00    +0.000 A 
ATOM      4  N   UNL     1       2.878   4.230  19.360  0.00  0.00    +0.000 NA
ATOM      5  S   UNL     1       2.387   5.103  20.679  0.00  0.00    +0.000 S 
ATOM      6  C   UNL     1       2.186   6.601  19.855  0.00  0.00    +0.000 A 
ATOM      7  C   UNL     1       1.788   7.848  20.361  0.00  0.00    +0.000 A 
ATOM      8  C   UNL     1       1.628   8.907  19.464  0.00  0.00    +0.000 A 
ATOM      9  C   UNL     1       1.851   8.725  18.104  0.00  0.00    +0.000 A 
ATOM     10  C   UNL     1       2.290   7.488  17.616  0.00  0.00    +0.000 A 
ATOM     11  C   UNL     1       2.483   6.402  18.505  0.00  0.00    +0.000 A 
ENDBRANCH   2   3
BRANCH   1  17
ATOM     12 CL   UNL     1       7.813   8.939  17.576  0.00  0.00    +0.000 Cl
ATOM     13  C   UNL     1       7.337   7.314  17.886  0.00  0.00    +0.000 A 
ATOM     14  C   UNL     1       8.058   6.548  18.803  0.00  0.00    +0.000 A 
ATOM     15  C   UNL     1       7.673   5.232  19.054  0.00  0.00    +0.000 A 
ATOM     16  C   UNL     1       6.567   4.694  18.397  0.00  0.00    +0.000 A 
ATOM     17  C   UNL     1       5.832   5.467  17.485  0.00  0.00    +0.000 A 
ATOM     18  C   UNL     1       6.238   6.775  17.212  0.00  0.00    +0.000 A 
ENDBRANCH   1  17
TORSDOF 2
ENDMDL
