MODEL 1
REMARK VINA RESULT:      -6.2      0.000      0.000
REMARK  Name = 
REMARK  4 active torsions:
REMARK  status: ('A' for Active; 'I' for Inactive)
REMARK    1  A    between atoms: C_1  and  C_2
REMARK    2  A    between atoms: C_2  and  C_3
REMARK    3  A    between atoms: C_4  and  C_5
REMARK    4  A    between atoms: C_11  and  C_12
REMARK                            x       y       z     vdW  Elec       q    Type
REMARK                         _______ _______ _______ _____ _____    ______ ____
ROOT
ATOM      1  C   UNL     1       4.422   3.438  18.739  0.00  0.00    +0.000 C 
ATOM      2  O   UNL     1       5.091   3.119  19.710  0.00  0.00    +0.000 OA
ATOM      3  N   UNL     1       4.722   4.413  17.819  0.00  0.00    +0.000 N 
ATOM      4  C   UNL     1       5.853   5.170  17.994  0.00  0.00    +0.000 A 
ATOM      5  N   UNL     1       6.855   4.993  18.821  0.00  0.00    +0.000 NA
ATOM      6  N   UNL     1       7.753   6.035  18.783  0.00  0.00    +0.000 NA
ATOM      7  C   UNL     1       7.384   6.969  17.934  0.00  0.00    +0.000 A 
ATOM      8  C   UNL     1       8.082   8.267  17.772  0.00  0.00    +0.000 C 
ATOM      9  S   UNL     1       5.963   6.582  17.038  0.00  0.00    +0.000 S 
ATOM     10  H   UNL     1       4.072   4.691  17.103  0.00  0.00    +0.000 HD
ENDROOT
BRANCH   1  14
ATOM     11  C   UNL     1       0.707   2.363  18.840  0.00  0.00    +0.000 C 
ATOM     12  C   UNL     1       1.958   3.175  19.016  0.00  0.00    +0.000 C 
ATOM     13  C   UNL     1       1.825   4.437  19.835  0.00  0.00    +0.000 C 
ATOM     14  C   UNL     1       3.121   2.759  18.468  0.00  0.00    +0.000 C 
ENDBRANCH   1  14
TORSDOF 1
ENDMDL
MODEL 2
REMARK VINA RESULT:      -6.1      2.141      5.823
REMARK  Name = 
REMARK  4 active torsions:
REMARK  status: ('A' for Active; 'I' for Inactive)
REMARK    1  A    between atoms: C_1  and  C_2
REMARK    2  A    between atoms: C_2  and  C_3
REMARK    3  A    between atoms: C_4  and  C_5
REMARK    4  A    between atoms: C_11  and  C_12
REMARK                            x       y       z     vdW  Elec       q    Type
REMARK                         _______ _______ _______ _____ _____    ______ ____
ROOT
ATOM      1  C   UNL     1       5.736   5.219  17.017  0.00  0.00    +0.000 C 
ATOM      2  O   UNL     1       6.074   4.249  16.354  0.00  0.00    +0.000 OA
ATOM      3  N   UNL     1       4.691   5.281  17.906  0.00  0.00    +0.000 N 
ATOM      4  C   UNL     1       3.881   4.185  18.063  0.00  0.00    +0.000 A 
ATOM      5  N   UNL     1       4.049   2.956  17.636  0.00  0.00    +0.000 NA
ATOM      6  N   UNL     1       2.956   2.160  17.893  0.00  0.00    +0.000 NA
ATOM      7  C   UNL     1       1.995   2.828  18.495  0.00  0.00    +0.000 A 
ATOM      8  C   UNL     1       0.651   2.271  18.781  0.00  0.00    +0.000 C 
ATOM      9  S   UNL     1       2.410   4.454  18.889  0.00  0.00    +0.000 S 
ATOM     10  H   UNL     1       4.409   6.145  18.339  0.00  0.00    +0.000 HD
ENDROOT
BRANCH   1  14
ATOM     11  C   UNL     1       7.986   8.291  17.697  0.00  0.00    +0.000 C 
ATOM     12  C   UNL     1       7.393   6.914  17.788  0.00  0.00    +0.000 C 
ATOM     13  C   UNL     1       7.876   6.053  18.931  0.00  0.00    +0.000 C 
ATOM     14  C   UNL     1       6.471   6.510  16.887  0.00  0.00    +0.000 C 
ENDBRANCH   1  14
TORSDOF 1
ENDMDL
MODEL 3
REMARK VINA RESULT:      -5.9      2.891      2.988
REMARK  Name = 
REMARK  4 active torsions:
REMARK  status: ('A' for Active; 'I' for Inactive)
REMARK    1  A    between atoms: C_1  and  C_2
REMARK    2  A    between atoms: C_2  and  C_3
REMARK    3  A    between atoms: C_4  and  C_5
REMARK    4  A    between atoms: C_11  and  C_12
REMARK                            x       y       z     vdW  Elec       q    Type
REMARK                         _______ _______ _______ _____ _____    ______ ____
ROOT
ATOM      1  C   UNL     1       4.944   4.001  17.874  0.00  0.00    +0.000 C 
ATOM      2  O   UNL     1       5.548   4.908  18.428  0.00  0.00    +0.000 OA
ATOM      3  N   UNL     1       5.160   3.528  16.603  0.00  0.00    +0.000 N 
ATOM      4  C   UNL     1       6.104   4.137  15.815  0.00  0.00    +0.000 A 
ATOM      5  N   UNL     1       7.022   5.014  16.141  0.00  0.00    +0.000 NA
ATOM      6  N   UNL     1       7.710   5.482  15.045  0.00  0.00    +0.000 NA
ATOM      7  C   UNL     1       7.272   4.947  13.927  0.00  0.00    +0.000 A 
ATOM      8  C   UNL     1       7.731   5.351  12.576  0.00  0.00    +0.000 C 
ATOM      9  S   UNL     1       6.057   3.744  14.153  0.00  0.00    +0.000 S 
ATOM     10  H   UNL     1       4.553   2.848  16.176  0.00  0.00    +0.000 HD
ENDROOT
BRANCH   1  14
ATOM     11  C   UNL     1       1.535   3.143  19.489  0.00  0.00    +0.000 C 
ATOM     12  C   UNL     1       2.577   3.805  18.634  0.00  0.00    +0.000 C 
ATOM     13  C   UNL     1       2.141   5.041  17.884  0.00  0.00    +0.000 C 
ATOM     14  C   UNL     1       3.830   3.302  18.577  0.00  0.00    +0.000 C 
ENDBRANCH   1  14
TORSDOF 1
ENDMDL
MODEL 4
REMARK VINA RESULT:      -5.9      3.783      7.799
REMARK  Name = 
REMARK  4 active torsions:
REMARK  status: ('A' for Active; 'I' for Inactive)
REMARK    1  A    between atoms: C_1  and  C_2
REMARK    2  A    between atoms: C_2  and  C_3
REMARK    3  A    between atoms: C_4  and  C_5
REMARK    4  A    between atoms: C_11  and  C_12
REMARK                            x       y       z     vdW  Elec       q    Type
REMARK                         _______ _______ _______ _____ _____    ______ ____
ROOT
ATOM      1  C   UNL     1       8.679   9.657  18.580  0.00  0.00    +0.000 C 
ATOM      2  O   UNL     1       8.110  10.213  17.652  0.00  0.00    +0.000 OA
ATOM      3  N   UNL     1       8.667   8.312  18.862  0.00  0.00    +0.000 N 
ATOM      4  C   UNL     1       7.912   7.473  18.083  0.00  0.00    +0.000 A 
ATOM      5  N   UNL     1       7.319   7.708  16.937  0.00  0.00    +0.000 NA
ATOM      6  N   UNL     1       6.552   6.644  16.519  0.00  0.00    +0.000 NA
ATOM      7  C   UNL     1       6.587   5.648  17.377  0.00  0.00    +0.000 A 
ATOM      8  C   UNL     1       5.761   4.422  17.260  0.00  0.00    +0.000 C 
ATOM      9  S   UNL     1       7.654   5.903  18.707  0.00  0.00    +0.000 S 
ATOM     10  H   UNL     1       9.075   7.940  19.704  0.00  0.00    +0.000 HD
ENDROOT
BRANCH   1  14
ATOM     11  C   UNL     1      11.334  11.941  20.224  0.00  0.00    +0.000 C 
ATOM     12  C   UNL     1      10.466  11.287  19.188  0.00  0.00    +0.000 C 
ATOM     13  C   UNL     1      10.789  11.605  17.747  0.00  0.00    +0.000 C 
ATOM     14  C   UNL     1       9.470  10.454  19.562  0.00  0.00    +0.000 C 
ENDBRANCH   1  14
TORSDOF 1
ENDMDL
MODEL 5
REMARK VINA RESULT:      -5.8      3.155      3.543
REMARK  Name = 
REMARK  4 active torsions:
REMARK  status: ('A' for Active; 'I' for Inactive)
REMARK    1  A    between atoms: C_1  and  C_2
REMARK    2  A    between atoms: C_2  and  C_3
REMARK    3  A    between atoms: C_4  and  C_5
REMARK    4  A    between atoms: C_11  and  C_12
REMARK                            x       y       z     vdW  Elec       q    Type
REMARK                         _______ _______ _______ _____ _____    ______ ____
ROOT
ATOM      1  C   UNL     1       5.702   5.048  18.137  0.00  0.00    +0.000 C 
ATOM      2  O   UNL     1       6.422   6.024  18.295  0.00  0.00    +0.000 OA
ATOM      3  N   UNL     1       5.642   4.244  17.025  0.00  0.00    +0.000 N 
ATOM      4  C   UNL     1       6.410   4.557  15.933  0.00  0.00    +0.000 A 
ATOM      5  N   UNL     1       7.389   5.422  15.822  0.00  0.00    +0.000 NA
ATOM      6  N   UNL     1       7.840   5.537  14.527  0.00  0.00    +0.000 NA
ATOM      7  C   UNL     1       7.171   4.759  13.705  0.00  0.00    +0.000 A 
ATOM      8  C   UNL     1       7.344   4.762  12.232  0.00  0.00    +0.000 C 
ATOM      9  S   UNL     1       6.012   3.747  14.482  0.00  0.00    +0.000 S 
ATOM     10  H   UNL     1       4.950   3.520  16.927  0.00  0.00    +0.000 HD
ENDROOT
BRANCH   1  14
ATOM     11  C   UNL     1       2.622   4.792  20.464  0.00  0.00    +0.000 C 
ATOM     12  C   UNL     1       3.486   5.112  19.278  0.00  0.00    +0.000 C 
ATOM     13  C   UNL     1       2.864   5.987  18.215  0.00  0.00    +0.000 C 
ATOM     14  C   UNL     1       4.749   4.637  19.209  0.00  0.00    +0.000 C 
ENDBRANCH   1  14
TORSDOF 1
ENDMDL
MODEL 6
REMARK VINA RESULT:      -5.7      2.816      3.009
REMARK  Name = 
REMARK  4 active torsions:
REMARK  status: ('A' for Active; 'I' for Inactive)
REMARK    1  A    between atoms: C_1  and  C_2
REMARK    2  A    between atoms: C_2  and  C_3
REMARK    3  A    between atoms: C_4  and  C_5
REMARK    4  A    between atoms: C_11  and  C_12
REMARK                            x       y       z     vdW  Elec       q    Type
REMARK                         _______ _______ _______ _____ _____    ______ ____
ROOT
ATOM      1  C   UNL     1       3.957   4.601  17.447  0.00  0.00    +0.000 C 
ATOM      2  O   UNL     1       4.609   5.358  18.152  0.00  0.00    +0.000 OA
ATOM      3  N   UNL     1       4.332   4.088  16.229  0.00  0.00    +0.000 N 
ATOM      4  C   UNL     1       5.528   4.475  15.680  0.00  0.00    +0.000 A 
ATOM      5  N   UNL     1       6.521   5.135  16.227  0.00  0.00    +0.000 NA
ATOM      6  N   UNL     1       7.509   5.439  15.318  0.00  0.00    +0.000 NA
ATOM      7  C   UNL     1       7.213   5.007  14.111  0.00  0.00    +0.000 A 
ATOM      8  C   UNL     1       8.023   5.298  12.904  0.00  0.00    +0.000 C 
ATOM      9  S   UNL     1       5.751   4.097  14.029  0.00  0.00    +0.000 S 
ATOM     10  H   UNL     1       3.699   3.553  15.657  0.00  0.00    +0.000 HD
ENDROOT
BRANCH   1  14
ATOM     11  C   UNL     1       0.971   2.512  18.746  0.00  0.00    +0.000 C 
ATOM     12  C   UNL     1       2.376   2.976  18.483  0.00  0.00    +0.000 C 
ATOM     13  C   UNL     1       3.480   2.043  18.920  0.00  0.00    +0.000 C 
ATOM     14  C   UNL     1       2.597   4.161  17.874  0.00  0.00    +0.000 C 
ENDBRANCH   1  14
TORSDOF 1
ENDMDL
MODEL 7
REMARK VINA RESULT:      -5.7      3.077      5.632
REMARK  Name = 
REMARK  4 active torsions:
REMARK  status: ('A' for Active; 'I' for Inactive)
REMARK    1  A    between atoms: C_1  and  C_2
REMARK    2  A    between atoms: C_2  and  C_3
REMARK    3  A    between atoms: C_4  and  C_5
REMARK    4  A    between atoms: C_11  and  C_12
REMARK                            x       y       z     vdW  Elec       q    Type
REMARK                         _______ _______ _______ _____ _____    ______ ____
ROOT
ATOM      1  C   UNL     1       4.423   5.352  17.025  0.00  0.00    +0.000 C 
ATOM      2  O   UNL     1       4.557   6.374  17.683  0.00  0.00    +0.000 OA
ATOM      3  N   UNL     1       3.673   4.252  17.363  0.00  0.00    +0.000 N 
ATOM      4  C   UNL     1       3.032   4.227  18.575  0.00  0.00    +0.000 A 
ATOM      5  N   UNL     1       2.838   5.197  19.436  0.00  0.00    +0.000 NA
ATOM      6  N   UNL     1       2.251   4.753  20.599  0.00  0.00    +0.000 NA
ATOM      7  C   UNL     1       2.036   3.456  20.575  0.00  0.00    +0.000 A 
ATOM      8  C   UNL     1       1.535   2.675  21.731  0.00  0.00    +0.000 C 
ATOM      9  S   UNL     1       2.438   2.705  19.076  0.00  0.00    +0.000 S 
ATOM     10  H   UNL     1       3.694   3.405  16.819  0.00  0.00    +0.000 HD
ENDROOT
BRANCH   1  14
ATOM     11  C   UNL     1       7.144   4.903  14.312  0.00  0.00    +0.000 C 
ATOM     12  C   UNL     1       6.443   4.885  15.641  0.00  0.00    +0.000 C 
ATOM     13  C   UNL     1       7.288   4.519  16.837  0.00  0.00    +0.000 C 
ATOM     14  C   UNL     1       5.132   5.200  15.722  0.00  0.00    +0.000 C 
ENDBRANCH   1  14
TORSDOF 1
ENDMDL
MODEL 8
REMARK VINA RESULT:      -5.7      2.324      2.708
REMARK  Name = 
REMARK  4 active torsions:
REMARK  status: ('A' for Active; 'I' for Inactive)
REMARK    1  A    between atoms: C_1  and  C_2
REMARK    2  A    between atoms: C_2  and  C_3
REMARK    3  A    between atoms: C_4  and  C_5
REMARK    4  A    between atoms: C_11  and  C_12
REMARK                            x       y       z     vdW  Elec       q    Type
REMARK                         _______ _______ _______ _____ _____    ______ ____
ROOT
ATOM      1  C   UNL     1       4.698   4.990  19.021  0.00  0.00    +0.000 C 
ATOM      2  O   UNL     1       5.758   5.206  19.590  0.00  0.00    +0.000 OA
ATOM      3  N   UNL     1       4.528   4.673  17.696  0.00  0.00    +0.000 N 
ATOM      4  C   UNL     1       5.625   4.632  16.873  0.00  0.00    +0.000 A 
ATOM      5  N   UNL     1       6.899   4.655  17.180  0.00  0.00    +0.000 NA
ATOM      6  N   UNL     1       7.704   4.717  16.065  0.00  0.00    +0.000 NA
ATOM      7  C   UNL     1       7.001   4.752  14.955  0.00  0.00    +0.000 A 
ATOM      8  C   UNL     1       7.586   4.949  13.607  0.00  0.00    +0.000 C 
ATOM      9  S   UNL     1       5.300   4.599  15.195  0.00  0.00    +0.000 S 
ATOM     10  H   UNL     1       3.616   4.611  17.274  0.00  0.00    +0.000 HD
ENDROOT
BRANCH   1  14
ATOM     11  C   UNL     1       1.425   4.127  20.893  0.00  0.00    +0.000 C 
ATOM     12  C   UNL     1       2.794   3.999  20.290  0.00  0.00    +0.000 C 
ATOM     13  C   UNL     1       3.400   2.616  20.293  0.00  0.00    +0.000 C 
ATOM     14  C   UNL     1       3.412   5.083  19.770  0.00  0.00    +0.000 C 
ENDBRANCH   1  14
TORSDOF 1
ENDMDL
MODEL 9
REMARK VINA RESULT:      -5.6      2.534      2.970
REMARK  Name = 
REMARK  4 active torsions:
REMARK  status: ('A' for Active; 'I' for Inactive)
REMARK    1  A    between atoms: C_1  and  C_2
REMARK    2  A    between atoms: C_2  and  C_3
REMARK    3  A    between atoms: C_4  and  C_5
REMARK    4  A    between atoms: C_11  and  C_12
REMARK                            x       y       z     vdW  Elec       q    Type
REMARK                         _______ _______ _______ _____ _____    ______ ____
ROOT
ATOM      1  C   UNL     1       3.282   5.208  18.814  0.00  0.00    +0.000 C 
ATOM      2  O   UNL     1       2.687   6.153  18.318  0.00  0.00    +0.000 OA
ATOM      3  N   UNL     1       4.443   4.636  18.353  0.00  0.00    +0.000 N 
ATOM      4  C   UNL     1       5.003   5.105  17.192  0.00  0.00    +0.000 A 
ATOM      5  N   UNL     1       4.720   6.187  16.507  0.00  0.00    +0.000 NA
ATOM      6  N   UNL     1       5.423   6.256  15.325  0.00  0.00    +0.000 NA
ATOM      7  C   UNL     1       6.203   5.211  15.159  0.00  0.00    +0.000 A 
ATOM      8  C   UNL     1       6.982   4.944  13.926  0.00  0.00    +0.000 C 
ATOM      9  S   UNL     1       6.214   4.121  16.495  0.00  0.00    +0.000 S 
ATOM     10  H   UNL     1       4.819   3.793  18.755  0.00  0.00    +0.000 HD
ENDROOT
BRANCH   1  14
ATOM     11  C   UNL     1       1.201   3.018  21.231  0.00  0.00    +0.000 C 
ATOM     12  C   UNL     1       1.828   3.546  19.972  0.00  0.00    +0.000 C 
ATOM     13  C   UNL     1       1.362   2.919  18.679  0.00  0.00    +0.000 C 
ATOM     14  C   UNL     1       2.744   4.538  20.033  0.00  0.00    +0.000 C 
ENDBRANCH   1  14
TORSDOF 1
ENDMDL
