MODEL 1
REMARK VINA RESULT:      -7.1      0.000      0.000
REMARK  Name = 
REMARK  7 active torsions:
REMARK  status: ('A' for Active; 'I' for Inactive)
REMARK    1  A    between atoms: C_1  and  C_2
REMARK    2  A    between atoms: C_5  and  S_6
REMARK    3  A    between atoms: S_6  and  N_9
REMARK    4  A    between atoms: N_9  and  C_10
REMARK    5  A    between atoms: C_10  and  C_11
REMARK    6  A    between atoms: C_11  and  C_12
REMARK    7  A    between atoms: C_18  and  C_19
REMARK                            x       y       z     vdW  Elec       q    Type
REMARK                         _______ _______ _______ _____ _____    ______ ____
ROOT
ATOM      1  N   UNL     1       3.511   5.741  19.856  0.00  0.00    +0.000 NA
ATOM      2  H   UNL     1       3.443   6.434  20.602  0.00  0.00    +0.000 HD
ENDROOT
BRANCH   1   3
ATOM      3  S   UNL     1       3.039   6.452  18.377  0.00  0.00    +0.000 S 
ATOM      4  O   UNL     1       2.124   5.558  17.703  0.00  0.00    +0.000 OA
ATOM      5  O   UNL     1       4.252   6.921  17.744  0.00  0.00    +0.000 OA
BRANCH   3  10
ATOM      6  C   UNL     1      -0.254  11.270  20.105  0.00  0.00    +0.000 C 
ATOM      7  C   UNL     1       0.592  10.101  19.686  0.00  0.00    +0.000 A 
ATOM      8  C   UNL     1       1.002   9.955  18.355  0.00  0.00    +0.000 A 
ATOM      9  C   UNL     1       1.765   8.853  17.965  0.00  0.00    +0.000 A 
ATOM     10  C   UNL     1       2.124   7.888  18.911  0.00  0.00    +0.000 A 
ATOM     11  C   UNL     1       1.710   8.013  20.240  0.00  0.00    +0.000 A 
ATOM     12  C   UNL     1       0.953   9.123  20.626  0.00  0.00    +0.000 A 
ENDBRANCH   3  10
ENDBRANCH   1   3
BRANCH   1  13
ATOM     13  C   UNL     1       2.865   4.445  20.139  0.00  0.00    +0.000 C 
BRANCH  13  14
ATOM     14  C   UNL     1       3.826   3.267  20.005  0.00  0.00    +0.000 C 
BRANCH  14  15
ATOM     15  C   UNL     1       4.974   3.743  19.136  0.00  0.00    +0.000 C 
ATOM     16  O   UNL     1       5.943   4.299  19.653  0.00  0.00    +0.000 OA
ATOM     17  N   UNL     1       4.792   3.563  17.785  0.00  0.00    +0.000 N 
ATOM     18  C   UNL     1       5.793   3.946  16.924  0.00  0.00    +0.000 A 
ATOM     19  N   UNL     1       7.039   4.255  17.189  0.00  0.00    +0.000 NA
ATOM     20  N   UNL     1       7.714   4.700  16.075  0.00  0.00    +0.000 NA
ATOM     21  C   UNL     1       6.942   4.721  15.011  0.00  0.00    +0.000 A 
ATOM     22  C   UNL     1       7.350   5.275  13.698  0.00  0.00    +0.000 C 
ATOM     23  S   UNL     1       5.361   4.083  15.278  0.00  0.00    +0.000 S 
ATOM     24  H   UNL     1       3.908   3.277  17.392  0.00  0.00    +0.000 HD
ENDBRANCH  14  15
ENDBRANCH  13  14
ENDBRANCH   1  13
TORSDOF 5
ENDMDL
MODEL 2
REMARK VINA RESULT:      -7.0      2.354      2.649
REMARK  Name = 
REMARK  7 active torsions:
REMARK  status: ('A' for Active; 'I' for Inactive)
REMARK    1  A    between atoms: C_1  and  C_2
REMARK    2  A    between atoms: C_5  and  S_6
REMARK    3  A    between atoms: S_6  and  N_9
REMARK    4  A    between atoms: N_9  and  C_10
REMARK    5  A    between atoms: C_10  and  C_11
REMARK    6  A    between atoms: C_11  and  C_12
REMARK    7  A    between atoms: C_18  and  C_19
REMARK                            x       y       z     vdW  Elec       q    Type
REMARK                         _______ _______ _______ _____ _____    ______ ____
ROOT
ATOM      1  N   UNL     1       2.250   3.761  18.779  0.00  0.00    +0.000 NA
ATOM      2  H   UNL     1       3.095   4.169  18.376  0.00  0.00    +0.000 HD
ENDROOT
BRANCH   1   3
ATOM      3  S   UNL     1       1.822   4.625  20.189  0.00  0.00    +0.000 S 
ATOM      4  O   UNL     1       2.851   4.427  21.185  0.00  0.00    +0.000 OA
ATOM      5  O   UNL     1       0.434   4.312  20.453  0.00  0.00    +0.000 OA
BRANCH   3  10
ATOM      6  C   UNL     1       1.895  10.377  18.204  0.00  0.00    +0.000 C 
ATOM      7  C   UNL     1       1.914   8.962  18.706  0.00  0.00    +0.000 A 
ATOM      8  C   UNL     1       2.332   7.913  17.878  0.00  0.00    +0.000 A 
ATOM      9  C   UNL     1       2.322   6.596  18.340  0.00  0.00    +0.000 A 
ATOM     10  C   UNL     1       1.893   6.321  19.642  0.00  0.00    +0.000 A 
ATOM     11  C   UNL     1       1.460   7.356  20.477  0.00  0.00    +0.000 A 
ATOM     12  C   UNL     1       1.480   8.674  20.010  0.00  0.00    +0.000 A 
ENDBRANCH   3  10
ENDBRANCH   1   3
BRANCH   1  13
ATOM     13  C   UNL     1       2.278   2.297  18.951  0.00  0.00    +0.000 C 
BRANCH  13  14
ATOM     14  C   UNL     1       3.602   1.678  18.511  0.00  0.00    +0.000 C 
BRANCH  14  15
ATOM     15  C   UNL     1       4.679   2.700  18.819  0.00  0.00    +0.000 C 
ATOM     16  O   UNL     1       5.178   2.745  19.943  0.00  0.00    +0.000 OA
ATOM     17  N   UNL     1       4.968   3.565  17.790  0.00  0.00    +0.000 N 
ATOM     18  C   UNL     1       5.948   4.511  17.974  0.00  0.00    +0.000 A 
ATOM     19  N   UNL     1       6.856   4.590  18.918  0.00  0.00    +0.000 NA
ATOM     20  N   UNL     1       7.596   5.747  18.834  0.00  0.00    +0.000 NA
ATOM     21  C   UNL     1       7.208   6.505  17.832  0.00  0.00    +0.000 A 
ATOM     22  C   UNL     1       7.729   7.868  17.570  0.00  0.00    +0.000 C 
ATOM     23  S   UNL     1       5.981   5.795  16.849  0.00  0.00    +0.000 S 
ATOM     24  H   UNL     1       4.408   3.616  16.952  0.00  0.00    +0.000 HD
ENDBRANCH  14  15
ENDBRANCH  13  14
ENDBRANCH   1  13
TORSDOF 5
ENDMDL
MODEL 3
REMARK VINA RESULT:      -6.9      2.193      2.977
REMARK  Name = 
REMARK  7 active torsions:
REMARK  status: ('A' for Active; 'I' for Inactive)
REMARK    1  A    between atoms: C_1  and  C_2
REMARK    2  A    between atoms: C_5  and  S_6
REMARK    3  A    between atoms: S_6  and  N_9
REMARK    4  A    between atoms: N_9  and  C_10
REMARK    5  A    between atoms: C_10  and  C_11
REMARK    6  A    between atoms: C_11  and  C_12
REMARK    7  A    between atoms: C_18  and  C_19
REMARK                            x       y       z     vdW  Elec       q    Type
REMARK                         _______ _______ _______ _____ _____    ______ ____
ROOT
ATOM      1  N   UNL     1       5.648   4.577  19.781  0.00  0.00    +0.000 NA
ATOM      2  H   UNL     1       6.291   3.796  19.639  0.00  0.00    +0.000 HD
ENDROOT
BRANCH   1   3
ATOM      3  S   UNL     1       4.132   4.195  19.095  0.00  0.00    +0.000 S 
ATOM      4  O   UNL     1       3.352   3.466  20.070  0.00  0.00    +0.000 OA
ATOM      5  O   UNL     1       4.402   3.658  17.778  0.00  0.00    +0.000 OA
BRANCH   3  10
ATOM      6  C   UNL     1       1.455   9.589  18.214  0.00  0.00    +0.000 C 
ATOM      7  C   UNL     1       2.147   8.276  18.446  0.00  0.00    +0.000 A 
ATOM      8  C   UNL     1       2.950   7.705  17.451  0.00  0.00    +0.000 A 
ATOM      9  C   UNL     1       3.569   6.471  17.661  0.00  0.00    +0.000 A 
ATOM     10  C   UNL     1       3.389   5.802  18.875  0.00  0.00    +0.000 A 
ATOM     11  C   UNL     1       2.579   6.353  19.872  0.00  0.00    +0.000 A 
ATOM     12  C   UNL     1       1.968   7.593  19.659  0.00  0.00    +0.000 A 
ENDBRANCH   3  10
ENDBRANCH   1   3
BRANCH   1  13
ATOM     13  C   UNL     1       6.171   5.901  19.395  0.00  0.00    +0.000 C 
BRANCH  13  14
ATOM     14  C   UNL     1       7.613   5.842  18.899  0.00  0.00    +0.000 C 
BRANCH  14  15
ATOM     15  C   UNL     1       7.549   5.854  17.384  0.00  0.00    +0.000 C 
ATOM     16  O   UNL     1       7.862   6.871  16.765  0.00  0.00    +0.000 OA
ATOM     17  N   UNL     1       7.063   4.700  16.815  0.00  0.00    +0.000 N 
ATOM     18  C   UNL     1       6.991   4.615  15.445  0.00  0.00    +0.000 A 
ATOM     19  N   UNL     1       7.543   5.385  14.538  0.00  0.00    +0.000 NA
ATOM     20  N   UNL     1       7.148   5.052  13.263  0.00  0.00    +0.000 NA
ATOM     21  C   UNL     1       6.303   4.045  13.259  0.00  0.00    +0.000 A 
ATOM     22  C   UNL     1       5.606   3.548  12.047  0.00  0.00    +0.000 C 
ATOM     23  S   UNL     1       6.020   3.360  14.816  0.00  0.00    +0.000 S 
ATOM     24  H   UNL     1       6.644   3.963  17.361  0.00  0.00    +0.000 HD
ENDBRANCH  14  15
ENDBRANCH  13  14
ENDBRANCH   1  13
TORSDOF 5
ENDMDL
MODEL 4
REMARK VINA RESULT:      -6.9      2.680      5.012
REMARK  Name = 
REMARK  7 active torsions:
REMARK  status: ('A' for Active; 'I' for Inactive)
REMARK    1  A    between atoms: C_1  and  C_2
REMARK    2  A    between atoms: C_5  and  S_6
REMARK    3  A    between atoms: S_6  and  N_9
REMARK    4  A    between atoms: N_9  and  C_10
REMARK    5  A    between atoms: C_10  and  C_11
REMARK    6  A    between atoms: C_11  and  C_12
REMARK    7  A    between atoms: C_18  and  C_19
REMARK                            x       y       z     vdW  Elec       q    Type
REMARK                         _______ _______ _______ _____ _____    ______ ____
ROOT
ATOM      1  N   UNL     1       7.305   4.304  17.854  0.00  0.00    +0.000 NA
ATOM      2  H   UNL     1       6.593   3.621  18.116  0.00  0.00    +0.000 HD
ENDROOT
BRANCH   1   3
ATOM      3  S   UNL     1       7.171   5.677  18.861  0.00  0.00    +0.000 S 
ATOM      4  O   UNL     1       8.086   6.690  18.387  0.00  0.00    +0.000 OA
ATOM      5  O   UNL     1       7.211   5.189  20.223  0.00  0.00    +0.000 OA
BRANCH   3  10
ATOM      6  C   UNL     1       1.508   7.704  17.936  0.00  0.00    +0.000 C 
ATOM      7  C   UNL     1       2.898   7.173  18.141  0.00  0.00    +0.000 A 
ATOM      8  C   UNL     1       3.178   6.282  19.184  0.00  0.00    +0.000 A 
ATOM      9  C   UNL     1       4.477   5.813  19.387  0.00  0.00    +0.000 A 
ATOM     10  C   UNL     1       5.507   6.234  18.541  0.00  0.00    +0.000 A 
ATOM     11  C   UNL     1       5.246   7.134  17.504  0.00  0.00    +0.000 A 
ATOM     12  C   UNL     1       3.941   7.594  17.301  0.00  0.00    +0.000 A 
ENDBRANCH   3  10
ENDBRANCH   1   3
BRANCH   1  13
ATOM     13  C   UNL     1       7.380   4.614  16.414  0.00  0.00    +0.000 C 
BRANCH  13  14
ATOM     14  C   UNL     1       6.582   3.634  15.558  0.00  0.00    +0.000 C 
BRANCH  14  15
ATOM     15  C   UNL     1       5.138   3.743  16.010  0.00  0.00    +0.000 C 
ATOM     16  O   UNL     1       4.374   4.520  15.437  0.00  0.00    +0.000 OA
ATOM     17  N   UNL     1       4.815   2.980  17.107  0.00  0.00    +0.000 N 
ATOM     18  C   UNL     1       3.521   3.001  17.572  0.00  0.00    +0.000 A 
ATOM     19  N   UNL     1       2.440   3.461  16.989  0.00  0.00    +0.000 NA
ATOM     20  N   UNL     1       1.341   3.410  17.816  0.00  0.00    +0.000 NA
ATOM     21  C   UNL     1       1.641   2.920  18.999  0.00  0.00    +0.000 A 
ATOM     22  C   UNL     1       0.695   2.865  20.140  0.00  0.00    +0.000 C 
ATOM     23  S   UNL     1       3.273   2.380  19.143  0.00  0.00    +0.000 S 
ATOM     24  H   UNL     1       5.512   2.503  17.659  0.00  0.00    +0.000 HD
ENDBRANCH  14  15
ENDBRANCH  13  14
ENDBRANCH   1  13
TORSDOF 5
ENDMDL
MODEL 5
REMARK VINA RESULT:      -6.8      6.207      7.663
REMARK  Name = 
REMARK  7 active torsions:
REMARK  status: ('A' for Active; 'I' for Inactive)
REMARK    1  A    between atoms: C_1  and  C_2
REMARK    2  A    between atoms: C_5  and  S_6
REMARK    3  A    between atoms: S_6  and  N_9
REMARK    4  A    between atoms: N_9  and  C_10
REMARK    5  A    between atoms: C_10  and  C_11
REMARK    6  A    between atoms: C_11  and  C_12
REMARK    7  A    between atoms: C_18  and  C_19
REMARK                            x       y       z     vdW  Elec       q    Type
REMARK                         _______ _______ _______ _____ _____    ______ ____
ROOT
ATOM      1  N   UNL     1       7.123   6.923  17.264  0.00  0.00    +0.000 NA
ATOM      2  H   UNL     1       6.182   7.272  17.450  0.00  0.00    +0.000 HD
ENDROOT
BRANCH   1   3
ATOM      3  S   UNL     1       7.266   5.331  17.868  0.00  0.00    +0.000 S 
ATOM      4  O   UNL     1       7.826   5.389  19.199  0.00  0.00    +0.000 OA
ATOM      5  O   UNL     1       7.877   4.549  16.816  0.00  0.00    +0.000 OA
BRANCH   3  10
ATOM      6  C   UNL     1       1.400   3.758  18.270  0.00  0.00    +0.000 C 
ATOM      7  C   UNL     1       2.858   4.114  18.191  0.00  0.00    +0.000 A 
ATOM      8  C   UNL     1       3.460   4.891  19.188  0.00  0.00    +0.000 A 
ATOM      9  C   UNL     1       4.808   5.242  19.096  0.00  0.00    +0.000 A 
ATOM     10  C   UNL     1       5.564   4.812  18.001  0.00  0.00    +0.000 A 
ATOM     11  C   UNL     1       4.973   4.048  16.991  0.00  0.00    +0.000 A 
ATOM     12  C   UNL     1       3.624   3.693  17.093  0.00  0.00    +0.000 A 
ENDBRANCH   3  10
ENDBRANCH   1   3
BRANCH   1  13
ATOM     13  C   UNL     1       8.220   7.824  17.665  0.00  0.00    +0.000 C 
BRANCH  13  14
ATOM     14  C   UNL     1       7.792   9.288  17.711  0.00  0.00    +0.000 C 
BRANCH  14  15
ATOM     15  C   UNL     1       8.872  10.029  18.476  0.00  0.00    +0.000 C 
ATOM     16  O   UNL     1       9.219   9.629  19.588  0.00  0.00    +0.000 OA
ATOM     17  N   UNL     1       9.340  11.167  17.863  0.00  0.00    +0.000 N 
ATOM     18  C   UNL     1      10.336  11.889  18.476  0.00  0.00    +0.000 A 
ATOM     19  N   UNL     1      11.114  11.544  19.474  0.00  0.00    +0.000 NA
ATOM     20  N   UNL     1      11.919  12.580  19.889  0.00  0.00    +0.000 NA
ATOM     21  C   UNL     1      11.708  13.674  19.191  0.00  0.00    +0.000 A 
ATOM     22  C   UNL     1      12.331  14.986  19.491  0.00  0.00    +0.000 C 
ATOM     23  S   UNL     1      10.586  13.475  17.896  0.00  0.00    +0.000 S 
ATOM     24  H   UNL     1       8.900  11.561  17.045  0.00  0.00    +0.000 HD
ENDBRANCH  14  15
ENDBRANCH  13  14
ENDBRANCH   1  13
TORSDOF 5
ENDMDL
MODEL 6
REMARK VINA RESULT:      -6.7      2.689      7.716
REMARK  Name = 
REMARK  7 active torsions:
REMARK  status: ('A' for Active; 'I' for Inactive)
REMARK    1  A    between atoms: C_1  and  C_2
REMARK    2  A    between atoms: C_5  and  S_6
REMARK    3  A    between atoms: S_6  and  N_9
REMARK    4  A    between atoms: N_9  and  C_10
REMARK    5  A    between atoms: C_10  and  C_11
REMARK    6  A    between atoms: C_11  and  C_12
REMARK    7  A    between atoms: C_18  and  C_19
REMARK                            x       y       z     vdW  Elec       q    Type
REMARK                         _______ _______ _______ _____ _____    ______ ____
ROOT
ATOM      1  N   UNL     1       3.800   5.358  19.241  0.00  0.00    +0.000 NA
ATOM      2  H   UNL     1       4.630   5.917  19.446  0.00  0.00    +0.000 HD
ENDROOT
BRANCH   1   3
ATOM      3  S   UNL     1       4.279   3.795  18.746  0.00  0.00    +0.000 S 
ATOM      4  O   UNL     1       3.104   3.059  18.336  0.00  0.00    +0.000 OA
ATOM      5  O   UNL     1       5.172   3.298  19.769  0.00  0.00    +0.000 OA
BRANCH   3  10
ATOM      6  C   UNL     1       7.515   5.118  13.764  0.00  0.00    +0.000 C 
ATOM      7  C   UNL     1       6.730   4.754  14.992  0.00  0.00    +0.000 A 
ATOM      8  C   UNL     1       5.426   4.254  14.887  0.00  0.00    +0.000 A 
ATOM      9  C   UNL     1       4.691   3.944  16.032  0.00  0.00    +0.000 A 
ATOM     10  C   UNL     1       5.261   4.132  17.295  0.00  0.00    +0.000 A 
ATOM     11  C   UNL     1       6.556   4.643  17.417  0.00  0.00    +0.000 A 
ATOM     12  C   UNL     1       7.290   4.945  16.265  0.00  0.00    +0.000 A 
ENDBRANCH   3  10
ENDBRANCH   1   3
BRANCH   1  13
ATOM     13  C   UNL     1       2.812   6.000  18.354  0.00  0.00    +0.000 C 
BRANCH  13  14
ATOM     14  C   UNL     1       3.302   7.331  17.792  0.00  0.00    +0.000 C 
BRANCH  14  15
ATOM     15  C   UNL     1       2.314   8.384  18.255  0.00  0.00    +0.000 C 
ATOM     16  O   UNL     1       2.009   9.311  17.503  0.00  0.00    +0.000 OA
ATOM     17  N   UNL     1       1.878   8.241  19.551  0.00  0.00    +0.000 N 
ATOM     18  C   UNL     1       0.963   9.139  20.046  0.00  0.00    +0.000 A 
ATOM     19  N   UNL     1       0.226  10.011  19.401  0.00  0.00    +0.000 NA
ATOM     20  N   UNL     1      -0.492  10.818  20.253  0.00  0.00    +0.000 NA
ATOM     21  C   UNL     1      -0.259  10.529  21.514  0.00  0.00    +0.000 A 
ATOM     22  C   UNL     1      -0.786  11.312  22.659  0.00  0.00    +0.000 C 
ATOM     23  S   UNL     1       0.773   9.166  21.743  0.00  0.00    +0.000 S 
ATOM     24  H   UNL     1       2.292   7.580  20.191  0.00  0.00    +0.000 HD
ENDBRANCH  14  15
ENDBRANCH  13  14
ENDBRANCH   1  13
TORSDOF 5
ENDMDL
MODEL 7
REMARK VINA RESULT:      -6.7      2.672      3.437
REMARK  Name = 
REMARK  7 active torsions:
REMARK  status: ('A' for Active; 'I' for Inactive)
REMARK    1  A    between atoms: C_1  and  C_2
REMARK    2  A    between atoms: C_5  and  S_6
REMARK    3  A    between atoms: S_6  and  N_9
REMARK    4  A    between atoms: N_9  and  C_10
REMARK    5  A    between atoms: C_10  and  C_11
REMARK    6  A    between atoms: C_11  and  C_12
REMARK    7  A    between atoms: C_18  and  C_19
REMARK                            x       y       z     vdW  Elec       q    Type
REMARK                         _______ _______ _______ _____ _____    ______ ____
ROOT
ATOM      1  N   UNL     1       3.062   2.364  20.170  0.00  0.00    +0.000 NA
ATOM      2  H   UNL     1       3.126   1.865  21.058  0.00  0.00    +0.000 HD
ENDROOT
BRANCH   1   3
ATOM      3  S   UNL     1       1.490   3.010  19.994  0.00  0.00    +0.000 S 
ATOM      4  O   UNL     1       0.871   3.083  21.298  0.00  0.00    +0.000 OA
ATOM      5  O   UNL     1       0.875   2.296  18.896  0.00  0.00    +0.000 OA
BRANCH   3  10
ATOM      6  C   UNL     1       2.387   8.706  18.048  0.00  0.00    +0.000 C 
ATOM      7  C   UNL     1       2.205   7.294  18.526  0.00  0.00    +0.000 A 
ATOM      8  C   UNL     1       1.962   6.257  17.616  0.00  0.00    +0.000 A 
ATOM      9  C   UNL     1       1.765   4.950  18.067  0.00  0.00    +0.000 A 
ATOM     10  C   UNL     1       1.814   4.673  19.436  0.00  0.00    +0.000 A 
ATOM     11  C   UNL     1       2.041   5.701  20.357  0.00  0.00    +0.000 A 
ATOM     12  C   UNL     1       2.245   7.006  19.899  0.00  0.00    +0.000 A 
ENDBRANCH   3  10
ENDBRANCH   1   3
BRANCH   1  13
ATOM     13  C   UNL     1       3.546   1.620  18.992  0.00  0.00    +0.000 C 
BRANCH  13  14
ATOM     14  C   UNL     1       3.901   2.534  17.823  0.00  0.00    +0.000 C 
BRANCH  14  15
ATOM     15  C   UNL     1       5.008   3.449  18.312  0.00  0.00    +0.000 C 
ATOM     16  O   UNL     1       5.499   3.274  19.427  0.00  0.00    +0.000 OA
ATOM     17  N   UNL     1       5.332   4.475  17.456  0.00  0.00    +0.000 N 
ATOM     18  C   UNL     1       6.341   5.340  17.809  0.00  0.00    +0.000 A 
ATOM     19  N   UNL     1       7.244   5.217  18.753  0.00  0.00    +0.000 NA
ATOM     20  N   UNL     1       8.021   6.345  18.880  0.00  0.00    +0.000 NA
ATOM     21  C   UNL     1       7.665   7.283  18.030  0.00  0.00    +0.000 A 
ATOM     22  C   UNL     1       8.232   8.654  18.018  0.00  0.00    +0.000 C 
ATOM     23  S   UNL     1       6.423   6.803  16.933  0.00  0.00    +0.000 S 
ATOM     24  H   UNL     1       4.781   4.694  16.640  0.00  0.00    +0.000 HD
ENDBRANCH  14  15
ENDBRANCH  13  14
ENDBRANCH   1  13
TORSDOF 5
ENDMDL
MODEL 8
REMARK VINA RESULT:      -6.6      2.816      7.968
REMARK  Name = 
REMARK  7 active torsions:
REMARK  status: ('A' for Active; 'I' for Inactive)
REMARK    1  A    between atoms: C_1  and  C_2
REMARK    2  A    between atoms: C_5  and  S_6
REMARK    3  A    between atoms: S_6  and  N_9
REMARK    4  A    between atoms: N_9  and  C_10
REMARK    5  A    between atoms: C_10  and  C_11
REMARK    6  A    between atoms: C_11  and  C_12
REMARK    7  A    between atoms: C_18  and  C_19
REMARK                            x       y       z     vdW  Elec       q    Type
REMARK                         _______ _______ _______ _____ _____    ______ ____
ROOT
ATOM      1  N   UNL     1       3.814   5.571  19.075  0.00  0.00    +0.000 NA
ATOM      2  H   UNL     1       4.601   6.215  18.986  0.00  0.00    +0.000 HD
ENDROOT
BRANCH   1   3
ATOM      3  S   UNL     1       4.329   3.990  18.684  0.00  0.00    +0.000 S 
ATOM      4  O   UNL     1       3.172   3.200  18.329  0.00  0.00    +0.000 OA
ATOM      5  O   UNL     1       5.236   3.584  19.736  0.00  0.00    +0.000 OA
BRANCH   3  10
ATOM      6  C   UNL     1       7.550   5.069  13.635  0.00  0.00    +0.000 C 
ATOM      7  C   UNL     1       6.765   4.764  14.878  0.00  0.00    +0.000 A 
ATOM      8  C   UNL     1       5.411   4.413  14.802  0.00  0.00    +0.000 A 
ATOM      9  C   UNL     1       4.679   4.158  15.963  0.00  0.00    +0.000 A 
ATOM     10  C   UNL     1       5.301   4.251  17.211  0.00  0.00    +0.000 A 
ATOM     11  C   UNL     1       6.648   4.614  17.304  0.00  0.00    +0.000 A 
ATOM     12  C   UNL     1       7.378   4.860  16.137  0.00  0.00    +0.000 A 
ENDBRANCH   3  10
ENDBRANCH   1   3
BRANCH   1  13
ATOM     13  C   UNL     1       2.576   5.991  18.392  0.00  0.00    +0.000 C 
BRANCH  13  14
ATOM     14  C   UNL     1       2.423   7.508  18.331  0.00  0.00    +0.000 C 
BRANCH  14  15
ATOM     15  C   UNL     1       1.887   7.942  19.682  0.00  0.00    +0.000 C 
ATOM     16  O   UNL     1       1.966   7.180  20.646  0.00  0.00    +0.000 OA
ATOM     17  N   UNL     1       1.276   9.174  19.695  0.00  0.00    +0.000 N 
ATOM     18  C   UNL     1       0.781   9.656  20.883  0.00  0.00    +0.000 A 
ATOM     19  N   UNL     1       1.002   9.233  22.105  0.00  0.00    +0.000 NA
ATOM     20  N   UNL     1       0.237   9.900  23.034  0.00  0.00    +0.000 NA
ATOM     21  C   UNL     1      -0.543  10.798  22.472  0.00  0.00    +0.000 A 
ATOM     22  C   UNL     1      -1.571  11.579  23.202  0.00  0.00    +0.000 C 
ATOM     23  S   UNL     1      -0.308  10.967  20.772  0.00  0.00    +0.000 S 
ATOM     24  H   UNL     1       1.067   9.683  18.850  0.00  0.00    +0.000 HD
ENDBRANCH  14  15
ENDBRANCH  13  14
ENDBRANCH   1  13
TORSDOF 5
ENDMDL
MODEL 9
REMARK VINA RESULT:      -6.6      2.888      6.682
REMARK  Name = 
REMARK  7 active torsions:
REMARK  status: ('A' for Active; 'I' for Inactive)
REMARK    1  A    between atoms: C_1  and  C_2
REMARK    2  A    between atoms: C_5  and  S_6
REMARK    3  A    between atoms: S_6  and  N_9
REMARK    4  A    between atoms: N_9  and  C_10
REMARK    5  A    between atoms: C_10  and  C_11
REMARK    6  A    between atoms: C_11  and  C_12
REMARK    7  A    between atoms: C_18  and  C_19
REMARK                            x       y       z     vdW  Elec       q    Type
REMARK                         _______ _______ _______ _____ _____    ______ ____
ROOT
ATOM      1  N   UNL     1       1.909   3.818  18.751  0.00  0.00    +0.000 NA
ATOM      2  H   UNL     1       1.227   3.476  18.073  0.00  0.00    +0.000 HD
ENDROOT
BRANCH   1   3
ATOM      3  S   UNL     1       3.327   2.871  18.654  0.00  0.00    +0.000 S 
ATOM      4  O   UNL     1       3.220   1.991  17.512  0.00  0.00    +0.000 OA
ATOM      5  O   UNL     1       3.572   2.365  19.987  0.00  0.00    +0.000 OA
BRANCH   3  10
ATOM      6  C   UNL     1       7.465   7.174  17.470  0.00  0.00    +0.000 C 
ATOM      7  C   UNL     1       6.470   6.084  17.750  0.00  0.00    +0.000 A 
ATOM      8  C   UNL     1       5.560   5.676  16.766  0.00  0.00    +0.000 A 
ATOM      9  C   UNL     1       4.618   4.683  17.039  0.00  0.00    +0.000 A 
ATOM     10  C   UNL     1       4.584   4.088  18.304  0.00  0.00    +0.000 A 
ATOM     11  C   UNL     1       5.476   4.495  19.301  0.00  0.00    +0.000 A 
ATOM     12  C   UNL     1       6.422   5.485  19.018  0.00  0.00    +0.000 A 
ENDBRANCH   3  10
ENDBRANCH   1   3
BRANCH   1  13
ATOM     13  C   UNL     1       1.397   4.003  20.121  0.00  0.00    +0.000 C 
BRANCH  13  14
ATOM     14  C   UNL     1       2.241   4.977  20.938  0.00  0.00    +0.000 C 
BRANCH  14  15
ATOM     15  C   UNL     1       2.048   6.345  20.311  0.00  0.00    +0.000 C 
ATOM     16  O   UNL     1       2.478   6.566  19.179  0.00  0.00    +0.000 OA
ATOM     17  N   UNL     1       1.443   7.275  21.123  0.00  0.00    +0.000 N 
ATOM     18  C   UNL     1       1.209   8.536  20.628  0.00  0.00    +0.000 A 
ATOM     19  N   UNL     1       1.253   8.959  19.388  0.00  0.00    +0.000 NA
ATOM     20  N   UNL     1       1.069  10.320  19.295  0.00  0.00    +0.000 NA
ATOM     21  C   UNL     1       0.902  10.873  20.476  0.00  0.00    +0.000 A 
ATOM     22  C   UNL     1       0.812  12.336  20.704  0.00  0.00    +0.000 C 
ATOM     23  S   UNL     1       0.845   9.744  21.779  0.00  0.00    +0.000 S 
ATOM     24  H   UNL     1       1.276   7.110  22.104  0.00  0.00    +0.000 HD
ENDBRANCH  14  15
ENDBRANCH  13  14
ENDBRANCH   1  13
TORSDOF 5
ENDMDL
