MODEL 1
REMARK VINA RESULT:      -7.4      0.000      0.000
REMARK  Name = 
REMARK  5 active torsions:
REMARK  status: ('A' for Active; 'I' for Inactive)
REMARK    1  A    between atoms: C_1  and  C_2
REMARK    2  A    between atoms: C_2  and  S_3
REMARK    3  A    between atoms: C_2  and  C_13
REMARK    4  A    between atoms: S_3  and  C_4
REMARK    5  A    between atoms: N_15  and  C_16
REMARK                            x       y       z     vdW  Elec       q    Type
REMARK                         _______ _______ _______ _____ _____    ______ ____
ROOT
ATOM      1  C   UNL     1       2.124   8.252  18.698  0.00  0.00    +0.000 C 
ATOM      2  O   UNL     1       2.022   8.222  19.915  0.00  0.00    +0.000 OA
ATOM      3  N   UNL     1       2.828   7.292  17.987  0.00  0.00    +0.000 N 
ATOM      4  H   UNL     1       3.027   7.481  17.015  0.00  0.00    +0.000 HD
ENDROOT
BRANCH   3   5
ATOM      5  C   UNL     1       3.604   6.243  18.647  0.00  0.00    +0.000 C 
ATOM      6  C   UNL     1       4.970   6.053  17.966  0.00  0.00    +0.000 C 
ATOM      7  C   UNL     1       4.808   5.389  16.599  0.00  0.00    +0.000 C 
ATOM      8  C   UNL     1       4.208   3.994  16.744  0.00  0.00    +0.000 C 
ATOM      9  C   UNL     1       3.042   3.932  17.701  0.00  0.00    +0.000 A 
ATOM     10  C   UNL     1       2.226   2.789  17.694  0.00  0.00    +0.000 A 
ATOM     11  C   UNL     1       1.179   2.654  18.605  0.00  0.00    +0.000 A 
ATOM     12  C   UNL     1       0.958   3.644  19.556  0.00  0.00    +0.000 A 
ATOM     13  C   UNL     1       1.769   4.779  19.583  0.00  0.00    +0.000 A 
ATOM     14  C   UNL     1       2.803   4.950  18.646  0.00  0.00    +0.000 A 
ENDBRANCH   3   5
BRANCH   1  16
ATOM     15  C   UNL     1      -0.055   9.090  17.801  0.00  0.00    +0.000 C 
ATOM     16  C   UNL     1       1.455   9.334  17.816  0.00  0.00    +0.000 C 
BRANCH  16  17
ATOM     17  S   UNL     1       1.918  10.944  18.550  0.00  0.00    +0.000 S 
BRANCH  17  18
ATOM     18  C   UNL     1       0.612  11.358  19.626  0.00  0.00    +0.000 A 
ATOM     19  N   UNL     1       0.493  10.909  20.854  0.00  0.00    +0.000 NA
ATOM     20  C   UNL     1      -0.655  11.455  21.429  0.00  0.00    +0.000 A 
ATOM     21  C   UNL     1      -1.111  11.257  22.751  0.00  0.00    +0.000 A 
ATOM     22  C   UNL     1      -2.292  11.874  23.187  0.00  0.00    +0.000 A 
ATOM     23  C   UNL     1      -3.027  12.684  22.327  0.00  0.00    +0.000 A 
ATOM     24  C   UNL     1      -2.596  12.905  21.018  0.00  0.00    +0.000 A 
ATOM     25  C   UNL     1      -1.410  12.284  20.594  0.00  0.00    +0.000 A 
ATOM     26  S   UNL     1      -0.641  12.382  19.065  0.00  0.00    +0.000 S 
ENDBRANCH  17  18
ENDBRANCH  16  17
ENDBRANCH   1  16
TORSDOF 4
ENDMDL
MODEL 2
REMARK VINA RESULT:      -7.3      2.756      8.612
REMARK  Name = 
REMARK  5 active torsions:
REMARK  status: ('A' for Active; 'I' for Inactive)
REMARK    1  A    between atoms: C_1  and  C_2
REMARK    2  A    between atoms: C_2  and  S_3
REMARK    3  A    between atoms: C_2  and  C_13
REMARK    4  A    between atoms: S_3  and  C_4
REMARK    5  A    between atoms: N_15  and  C_16
REMARK                            x       y       z     vdW  Elec       q    Type
REMARK                         _______ _______ _______ _____ _____    ______ ____
ROOT
ATOM      1  C   UNL     1       1.859   8.418  18.925  0.00  0.00    +0.000 C 
ATOM      2  O   UNL     1       2.319   8.286  17.801  0.00  0.00    +0.000 OA
ATOM      3  N   UNL     1       1.020   9.467  19.267  0.00  0.00    +0.000 N 
ATOM      4  H   UNL     1       0.832   9.617  20.247  0.00  0.00    +0.000 HD
ENDROOT
BRANCH   3   5
ATOM      5  C   UNL     1       0.721  10.562  18.344  0.00  0.00    +0.000 C 
ATOM      6  C   UNL     1       1.350  11.880  18.826  0.00  0.00    +0.000 C 
ATOM      7  C   UNL     1       0.617  12.414  20.056  0.00  0.00    +0.000 C 
ATOM      8  C   UNL     1      -0.837  12.734  19.722  0.00  0.00    +0.000 C 
ATOM      9  C   UNL     1      -1.520  11.667  18.902  0.00  0.00    +0.000 A 
ATOM     10  C   UNL     1      -2.919  11.699  18.785  0.00  0.00    +0.000 A 
ATOM     11  C   UNL     1      -3.590  10.778  17.983  0.00  0.00    +0.000 A 
ATOM     12  C   UNL     1      -2.868   9.833  17.262  0.00  0.00    +0.000 A 
ATOM     13  C   UNL     1      -1.476   9.798  17.358  0.00  0.00    +0.000 A 
ATOM     14  C   UNL     1      -0.786  10.694  18.192  0.00  0.00    +0.000 A 
ENDBRANCH   3   5
BRANCH   1  16
ATOM     15  C   UNL     1       1.184   7.738  21.235  0.00  0.00    +0.000 C 
ATOM     16  C   UNL     1       2.129   7.418  20.076  0.00  0.00    +0.000 C 
BRANCH  16  17
ATOM     17  S   UNL     1       1.866   5.750  19.370  0.00  0.00    +0.000 S 
BRANCH  17  18
ATOM     18  C   UNL     1       3.340   5.368  18.523  0.00  0.00    +0.000 A 
ATOM     19  N   UNL     1       3.396   4.995  17.265  0.00  0.00    +0.000 NA
ATOM     20  C   UNL     1       4.730   4.789  16.910  0.00  0.00    +0.000 A 
ATOM     21  C   UNL     1       5.215   4.425  15.635  0.00  0.00    +0.000 A 
ATOM     22  C   UNL     1       6.592   4.251  15.432  0.00  0.00    +0.000 A 
ATOM     23  C   UNL     1       7.491   4.431  16.477  0.00  0.00    +0.000 A 
ATOM     24  C   UNL     1       7.040   4.799  17.746  0.00  0.00    +0.000 A 
ATOM     25  C   UNL     1       5.660   4.975  17.937  0.00  0.00    +0.000 A 
ATOM     26  S   UNL     1       4.830   5.431  19.366  0.00  0.00    +0.000 S 
ENDBRANCH  17  18
ENDBRANCH  16  17
ENDBRANCH   1  16
TORSDOF 4
ENDMDL
MODEL 3
REMARK VINA RESULT:      -7.3      5.663      7.999
REMARK  Name = 
REMARK  5 active torsions:
REMARK  status: ('A' for Active; 'I' for Inactive)
REMARK    1  A    between atoms: C_1  and  C_2
REMARK    2  A    between atoms: C_2  and  S_3
REMARK    3  A    between atoms: C_2  and  C_13
REMARK    4  A    between atoms: S_3  and  C_4
REMARK    5  A    between atoms: N_15  and  C_16
REMARK                            x       y       z     vdW  Elec       q    Type
REMARK                         _______ _______ _______ _____ _____    ______ ____
ROOT
ATOM      1  C   UNL     1      -4.503  13.173  22.319  0.00  0.00    +0.000 C 
ATOM      2  O   UNL     1      -4.512  14.033  23.188  0.00  0.00    +0.000 OA
ATOM      3  N   UNL     1      -3.339  12.534  21.917  0.00  0.00    +0.000 N 
ATOM      4  H   UNL     1      -3.376  11.978  21.076  0.00  0.00    +0.000 HD
ENDROOT
BRANCH   3   5
ATOM      5  C   UNL     1      -2.020  12.927  22.413  0.00  0.00    +0.000 C 
ATOM      6  C   UNL     1      -1.498  14.170  21.674  0.00  0.00    +0.000 C 
ATOM      7  C   UNL     1      -1.107  13.824  20.238  0.00  0.00    +0.000 C 
ATOM      8  C   UNL     1       0.032  12.808  20.219  0.00  0.00    +0.000 C 
ATOM      9  C   UNL     1      -0.153  11.671  21.193  0.00  0.00    +0.000 A 
ATOM     10  C   UNL     1       0.659  10.533  21.062  0.00  0.00    +0.000 A 
ATOM     11  C   UNL     1       0.575   9.486  21.979  0.00  0.00    +0.000 A 
ATOM     12  C   UNL     1      -0.300   9.579  23.056  0.00  0.00    +0.000 A 
ATOM     13  C   UNL     1      -1.105  10.709  23.205  0.00  0.00    +0.000 A 
ATOM     14  C   UNL     1      -1.061  11.756  22.269  0.00  0.00    +0.000 A 
ENDBRANCH   3   5
BRANCH   1  16
ATOM     15  C   UNL     1      -6.988  12.958  22.498  0.00  0.00    +0.000 C 
ATOM     16  C   UNL     1      -5.781  12.678  21.601  0.00  0.00    +0.000 C 
BRANCH  16  17
ATOM     17  S   UNL     1      -5.844  13.571  20.005  0.00  0.00    +0.000 S 
BRANCH  17  18
ATOM     18  C   UNL     1      -4.967  12.572  18.879  0.00  0.00    +0.000 A 
ATOM     19  N   UNL     1      -3.784  12.054  19.114  0.00  0.00    +0.000 NA
ATOM     20  C   UNL     1      -3.390  11.299  18.009  0.00  0.00    +0.000 A 
ATOM     21  C   UNL     1      -2.202  10.546  17.884  0.00  0.00    +0.000 A 
ATOM     22  C   UNL     1      -1.941   9.836  16.703  0.00  0.00    +0.000 A 
ATOM     23  C   UNL     1      -2.844   9.866  15.645  0.00  0.00    +0.000 A 
ATOM     24  C   UNL     1      -4.031  10.595  15.744  0.00  0.00    +0.000 A 
ATOM     25  C   UNL     1      -4.282  11.299  16.933  0.00  0.00    +0.000 A 
ATOM     26  S   UNL     1      -5.644  12.257  17.338  0.00  0.00    +0.000 S 
ENDBRANCH  17  18
ENDBRANCH  16  17
ENDBRANCH   1  16
TORSDOF 4
ENDMDL
MODEL 4
REMARK VINA RESULT:      -7.3      2.891      5.062
REMARK  Name = 
REMARK  5 active torsions:
REMARK  status: ('A' for Active; 'I' for Inactive)
REMARK    1  A    between atoms: C_1  and  C_2
REMARK    2  A    between atoms: C_2  and  S_3
REMARK    3  A    between atoms: C_2  and  C_13
REMARK    4  A    between atoms: S_3  and  C_4
REMARK    5  A    between atoms: N_15  and  C_16
REMARK                            x       y       z     vdW  Elec       q    Type
REMARK                         _______ _______ _______ _____ _____    ______ ____
ROOT
ATOM      1  C   UNL     1       3.518   3.582  18.511  0.00  0.00    +0.000 C 
ATOM      2  O   UNL     1       3.725   2.383  18.393  0.00  0.00    +0.000 OA
ATOM      3  N   UNL     1       4.510   4.530  18.310  0.00  0.00    +0.000 N 
ATOM      4  H   UNL     1       4.320   5.477  18.605  0.00  0.00    +0.000 HD
ENDROOT
BRANCH   3   5
ATOM      5  C   UNL     1       5.904   4.164  18.063  0.00  0.00    +0.000 C 
ATOM      6  C   UNL     1       6.856   4.974  18.959  0.00  0.00    +0.000 C 
ATOM      7  C   UNL     1       6.921   6.432  18.504  0.00  0.00    +0.000 C 
ATOM      8  C   UNL     1       7.481   6.532  17.089  0.00  0.00    +0.000 C 
ATOM      9  C   UNL     1       6.897   5.521  16.133  0.00  0.00    +0.000 A 
ATOM     10  C   UNL     1       7.102   5.700  14.755  0.00  0.00    +0.000 A 
ATOM     11  C   UNL     1       6.643   4.757  13.836  0.00  0.00    +0.000 A 
ATOM     12  C   UNL     1       6.002   3.608  14.286  0.00  0.00    +0.000 A 
ATOM     13  C   UNL     1       5.803   3.411  15.653  0.00  0.00    +0.000 A 
ATOM     14  C   UNL     1       6.224   4.369  16.590  0.00  0.00    +0.000 A 
ENDBRANCH   3   5
BRANCH   1  16
ATOM     15  C   UNL     1       1.121   3.031  18.962  0.00  0.00    +0.000 C 
ATOM     16  C   UNL     1       2.132   4.174  18.860  0.00  0.00    +0.000 C 
BRANCH  16  17
ATOM     17  S   UNL     1       2.351   5.086  20.431  0.00  0.00    +0.000 S 
BRANCH  17  18
ATOM     18  C   UNL     1       1.972   6.746  20.060  0.00  0.00    +0.000 A 
ATOM     19  N   UNL     1       1.392   7.578  20.895  0.00  0.00    +0.000 NA
ATOM     20  C   UNL     1       1.259   8.823  20.278  0.00  0.00    +0.000 A 
ATOM     21  C   UNL     1       0.726   9.996  20.855  0.00  0.00    +0.000 A 
ATOM     22  C   UNL     1       0.655  11.178  20.105  0.00  0.00    +0.000 A 
ATOM     23  C   UNL     1       1.103  11.209  18.788  0.00  0.00    +0.000 A 
ATOM     24  C   UNL     1       1.643  10.067  18.194  0.00  0.00    +0.000 A 
ATOM     25  C   UNL     1       1.712   8.890  18.957  0.00  0.00    +0.000 A 
ATOM     26  S   UNL     1       2.329   7.357  18.500  0.00  0.00    +0.000 S 
ENDBRANCH  17  18
ENDBRANCH  16  17
ENDBRANCH   1  16
TORSDOF 4
ENDMDL
MODEL 5
REMARK VINA RESULT:      -7.3      2.775      8.435
REMARK  Name = 
REMARK  5 active torsions:
REMARK  status: ('A' for Active; 'I' for Inactive)
REMARK    1  A    between atoms: C_1  and  C_2
REMARK    2  A    between atoms: C_2  and  S_3
REMARK    3  A    between atoms: C_2  and  C_13
REMARK    4  A    between atoms: S_3  and  C_4
REMARK    5  A    between atoms: N_15  and  C_16
REMARK                            x       y       z     vdW  Elec       q    Type
REMARK                         _______ _______ _______ _____ _____    ______ ____
ROOT
ATOM      1  C   UNL     1       1.722   8.511  19.252  0.00  0.00    +0.000 C 
ATOM      2  O   UNL     1       2.233   8.292  18.164  0.00  0.00    +0.000 OA
ATOM      3  N   UNL     1       0.879   9.590  19.474  0.00  0.00    +0.000 N 
ATOM      4  H   UNL     1       0.647   9.815  20.430  0.00  0.00    +0.000 HD
ENDROOT
BRANCH   3   5
ATOM      5  C   UNL     1       0.636  10.614  18.458  0.00  0.00    +0.000 C 
ATOM      6  C   UNL     1       1.246  11.963  18.875  0.00  0.00    +0.000 C 
ATOM      7  C   UNL     1       0.451  12.588  20.021  0.00  0.00    +0.000 C 
ATOM      8  C   UNL     1      -0.981  12.884  19.586  0.00  0.00    +0.000 C 
ATOM      9  C   UNL     1      -1.625  11.760  18.812  0.00  0.00    +0.000 A 
ATOM     10  C   UNL     1      -3.016  11.786  18.618  0.00  0.00    +0.000 A 
ATOM     11  C   UNL     1      -3.648  10.809  17.851  0.00  0.00    +0.000 A 
ATOM     12  C   UNL     1      -2.893   9.813  17.241  0.00  0.00    +0.000 A 
ATOM     13  C   UNL     1      -1.509   9.782  17.414  0.00  0.00    +0.000 A 
ATOM     14  C   UNL     1      -0.860  10.736  18.216  0.00  0.00    +0.000 A 
ENDBRANCH   3   5
BRANCH   1  16
ATOM     15  C   UNL     1       0.895   7.976  21.551  0.00  0.00    +0.000 C 
ATOM     16  C   UNL     1       1.927   7.600  20.486  0.00  0.00    +0.000 C 
BRANCH  16  17
ATOM     17  S   UNL     1       1.747   5.882  19.883  0.00  0.00    +0.000 S 
BRANCH  17  18
ATOM     18  C   UNL     1       3.248   5.512  19.080  0.00  0.00    +0.000 A 
ATOM     19  N   UNL     1       4.436   5.771  19.575  0.00  0.00    +0.000 NA
ATOM     20  C   UNL     1       5.410   5.327  18.678  0.00  0.00    +0.000 A 
ATOM     21  C   UNL     1       6.809   5.380  18.861  0.00  0.00    +0.000 A 
ATOM     22  C   UNL     1       7.666   4.894  17.862  0.00  0.00    +0.000 A 
ATOM     23  C   UNL     1       7.151   4.359  16.686  0.00  0.00    +0.000 A 
ATOM     24  C   UNL     1       5.772   4.286  16.483  0.00  0.00    +0.000 A 
ATOM     25  C   UNL     1       4.924   4.772  17.491  0.00  0.00    +0.000 A 
ATOM     26  S   UNL     1       3.211   4.801  17.522  0.00  0.00    +0.000 S 
ENDBRANCH  17  18
ENDBRANCH  16  17
ENDBRANCH   1  16
TORSDOF 4
ENDMDL
MODEL 6
REMARK VINA RESULT:      -7.2      2.742      4.217
REMARK  Name = 
REMARK  5 active torsions:
REMARK  status: ('A' for Active; 'I' for Inactive)
REMARK    1  A    between atoms: C_1  and  C_2
REMARK    2  A    between atoms: C_2  and  S_3
REMARK    3  A    between atoms: C_2  and  C_13
REMARK    4  A    between atoms: S_3  and  C_4
REMARK    5  A    between atoms: N_15  and  C_16
REMARK                            x       y       z     vdW  Elec       q    Type
REMARK                         _______ _______ _______ _____ _____    ______ ____
ROOT
ATOM      1  C   UNL     1       5.732   5.305  18.737  0.00  0.00    +0.000 C 
ATOM      2  O   UNL     1       6.580   4.849  19.489  0.00  0.00    +0.000 OA
ATOM      3  N   UNL     1       4.604   4.588  18.366  0.00  0.00    +0.000 N 
ATOM      4  H   UNL     1       4.049   4.948  17.604  0.00  0.00    +0.000 HD
ENDROOT
BRANCH   3   5
ATOM      5  C   UNL     1       4.406   3.189  18.746  0.00  0.00    +0.000 C 
ATOM      6  C   UNL     1       4.207   2.301  17.507  0.00  0.00    +0.000 C 
ATOM      7  C   UNL     1       2.841   2.557  16.870  0.00  0.00    +0.000 C 
ATOM      8  C   UNL     1       1.717   2.197  17.837  0.00  0.00    +0.000 C 
ATOM      9  C   UNL     1       1.944   2.697  19.243  0.00  0.00    +0.000 A 
ATOM     10  C   UNL     1       0.865   2.693  20.141  0.00  0.00    +0.000 A 
ATOM     11  C   UNL     1       1.040   3.078  21.470  0.00  0.00    +0.000 A 
ATOM     12  C   UNL     1       2.303   3.441  21.924  0.00  0.00    +0.000 A 
ATOM     13  C   UNL     1       3.387   3.438  21.045  0.00  0.00    +0.000 A 
ATOM     14  C   UNL     1       3.221   3.089  19.694  0.00  0.00    +0.000 A 
ENDBRANCH   3   5
BRANCH   1  16
ATOM     15  C   UNL     1       7.098   6.875  17.350  0.00  0.00    +0.000 C 
ATOM     16  C   UNL     1       5.799   6.734  18.146  0.00  0.00    +0.000 C 
BRANCH  16  17
ATOM     17  S   UNL     1       4.298   6.930  17.119  0.00  0.00    +0.000 S 
BRANCH  17  18
ATOM     18  C   UNL     1       3.092   7.600  18.183  0.00  0.00    +0.000 A 
ATOM     19  N   UNL     1       2.742   7.071  19.333  0.00  0.00    +0.000 NA
ATOM     20  C   UNL     1       1.768   7.876  19.927  0.00  0.00    +0.000 A 
ATOM     21  C   UNL     1       1.166   7.676  21.188  0.00  0.00    +0.000 A 
ATOM     22  C   UNL     1       0.194   8.575  21.652  0.00  0.00    +0.000 A 
ATOM     23  C   UNL     1      -0.187   9.666  20.880  0.00  0.00    +0.000 A 
ATOM     24  C   UNL     1       0.398   9.893  19.632  0.00  0.00    +0.000 A 
ATOM     25  C   UNL     1       1.372   8.989  19.180  0.00  0.00    +0.000 A 
ATOM     26  S   UNL     1       2.258   9.021  17.713  0.00  0.00    +0.000 S 
ENDBRANCH  17  18
ENDBRANCH  16  17
ENDBRANCH   1  16
TORSDOF 4
ENDMDL
MODEL 7
REMARK VINA RESULT:      -7.2      4.149      6.017
REMARK  Name = 
REMARK  5 active torsions:
REMARK  status: ('A' for Active; 'I' for Inactive)
REMARK    1  A    between atoms: C_1  and  C_2
REMARK    2  A    between atoms: C_2  and  S_3
REMARK    3  A    between atoms: C_2  and  C_13
REMARK    4  A    between atoms: S_3  and  C_4
REMARK    5  A    between atoms: N_15  and  C_16
REMARK                            x       y       z     vdW  Elec       q    Type
REMARK                         _______ _______ _______ _____ _____    ______ ____
ROOT
ATOM      1  C   UNL     1      -2.023  11.105  17.583  0.00  0.00    +0.000 C 
ATOM      2  O   UNL     1      -1.660  12.206  17.197  0.00  0.00    +0.000 OA
ATOM      3  N   UNL     1      -1.383  10.429  18.610  0.00  0.00    +0.000 N 
ATOM      4  H   UNL     1      -1.615   9.457  18.749  0.00  0.00    +0.000 HD
ENDROOT
BRANCH   3   5
ATOM      5  C   UNL     1      -0.151  10.926  19.225  0.00  0.00    +0.000 C 
ATOM      6  C   UNL     1       1.086  10.464  18.437  0.00  0.00    +0.000 C 
ATOM      7  C   UNL     1       1.324   8.966  18.630  0.00  0.00    +0.000 C 
ATOM      8  C   UNL     1       1.610   8.649  20.095  0.00  0.00    +0.000 C 
ATOM      9  C   UNL     1       0.679   9.345  21.059  0.00  0.00    +0.000 A 
ATOM     10  C   UNL     1       0.644   8.911  22.393  0.00  0.00    +0.000 A 
ATOM     11  C   UNL     1      -0.146   9.565  23.337  0.00  0.00    +0.000 A 
ATOM     12  C   UNL     1      -0.885  10.683  22.964  0.00  0.00    +0.000 A 
ATOM     13  C   UNL     1      -0.850  11.133  21.644  0.00  0.00    +0.000 A 
ATOM     14  C   UNL     1      -0.090  10.462  20.672  0.00  0.00    +0.000 A 
ENDBRANCH   3   5
BRANCH   1  16
ATOM     15  C   UNL     1      -3.639   9.233  17.956  0.00  0.00    +0.000 C 
ATOM     16  C   UNL     1      -3.250  10.362  17.001  0.00  0.00    +0.000 C 
BRANCH  16  17
ATOM     17  S   UNL     1      -4.560  11.624  16.803  0.00  0.00    +0.000 S 
BRANCH  17  18
ATOM     18  C   UNL     1      -5.287  11.788  18.378  0.00  0.00    +0.000 A 
ATOM     19  N   UNL     1      -4.734  12.420  19.388  0.00  0.00    +0.000 NA
ATOM     20  C   UNL     1      -5.597  12.372  20.483  0.00  0.00    +0.000 A 
ATOM     21  C   UNL     1      -5.390  12.970  21.745  0.00  0.00    +0.000 A 
ATOM     22  C   UNL     1      -6.353  12.831  22.755  0.00  0.00    +0.000 A 
ATOM     23  C   UNL     1      -7.517  12.104  22.528  0.00  0.00    +0.000 A 
ATOM     24  C   UNL     1      -7.752  11.509  21.288  0.00  0.00    +0.000 A 
ATOM     25  C   UNL     1      -6.782  11.658  20.283  0.00  0.00    +0.000 A 
ATOM     26  S   UNL     1      -6.806  11.055  18.679  0.00  0.00    +0.000 S 
ENDBRANCH  17  18
ENDBRANCH  16  17
ENDBRANCH   1  16
TORSDOF 4
ENDMDL
MODEL 8
REMARK VINA RESULT:      -7.2      3.070      5.283
REMARK  Name = 
REMARK  5 active torsions:
REMARK  status: ('A' for Active; 'I' for Inactive)
REMARK    1  A    between atoms: C_1  and  C_2
REMARK    2  A    between atoms: C_2  and  S_3
REMARK    3  A    between atoms: C_2  and  C_13
REMARK    4  A    between atoms: S_3  and  C_4
REMARK    5  A    between atoms: N_15  and  C_16
REMARK                            x       y       z     vdW  Elec       q    Type
REMARK                         _______ _______ _______ _____ _____    ______ ____
ROOT
ATOM      1  C   UNL     1       3.477   3.439  18.403  0.00  0.00    +0.000 C 
ATOM      2  O   UNL     1       3.724   2.268  18.159  0.00  0.00    +0.000 OA
ATOM      3  N   UNL     1       4.441   4.433  18.330  0.00  0.00    +0.000 N 
ATOM      4  H   UNL     1       4.215   5.335  18.723  0.00  0.00    +0.000 HD
ENDROOT
BRANCH   3   5
ATOM      5  C   UNL     1       5.851   4.138  18.076  0.00  0.00    +0.000 C 
ATOM      6  C   UNL     1       6.765   4.995  18.968  0.00  0.00    +0.000 C 
ATOM      7  C   UNL     1       6.754   6.454  18.513  0.00  0.00    +0.000 C 
ATOM      8  C   UNL     1       7.301   6.583  17.095  0.00  0.00    +0.000 C 
ATOM      9  C   UNL     1       6.765   5.543  16.142  0.00  0.00    +0.000 A 
ATOM     10  C   UNL     1       6.954   5.732  14.763  0.00  0.00    +0.000 A 
ATOM     11  C   UNL     1       6.538   4.768  13.846  0.00  0.00    +0.000 A 
ATOM     12  C   UNL     1       5.959   3.587  14.299  0.00  0.00    +0.000 A 
ATOM     13  C   UNL     1       5.776   3.381  15.667  0.00  0.00    +0.000 A 
ATOM     14  C   UNL     1       6.153   4.359  16.602  0.00  0.00    +0.000 A 
ENDBRANCH   3   5
BRANCH   1  16
ATOM     15  C   UNL     1       1.122   2.749  18.885  0.00  0.00    +0.000 C 
ATOM     16  C   UNL     1       2.065   3.949  18.784  0.00  0.00    +0.000 C 
BRANCH  16  17
ATOM     17  S   UNL     1       2.260   4.849  20.364  0.00  0.00    +0.000 S 
BRANCH  17  18
ATOM     18  C   UNL     1       1.979   6.525  19.981  0.00  0.00    +0.000 A 
ATOM     19  N   UNL     1       2.393   7.114  18.883  0.00  0.00    +0.000 NA
ATOM     20  C   UNL     1       1.977   8.446  18.897  0.00  0.00    +0.000 A 
ATOM     21  C   UNL     1       2.183   9.402  17.878  0.00  0.00    +0.000 A 
ATOM     22  C   UNL     1       1.707  10.712  18.038  0.00  0.00    +0.000 A 
ATOM     23  C   UNL     1       1.032  11.084  19.196  0.00  0.00    +0.000 A 
ATOM     24  C   UNL     1       0.806  10.157  20.215  0.00  0.00    +0.000 A 
ATOM     25  C   UNL     1       1.285   8.848  20.042  0.00  0.00    +0.000 A 
ATOM     26  S   UNL     1       1.146   7.512  21.107  0.00  0.00    +0.000 S 
ENDBRANCH  17  18
ENDBRANCH  16  17
ENDBRANCH   1  16
TORSDOF 4
ENDMDL
MODEL 9
REMARK VINA RESULT:      -7.2      1.790      1.899
REMARK  Name = 
REMARK  5 active torsions:
REMARK  status: ('A' for Active; 'I' for Inactive)
REMARK    1  A    between atoms: C_1  and  C_2
REMARK    2  A    between atoms: C_2  and  S_3
REMARK    3  A    between atoms: C_2  and  C_13
REMARK    4  A    between atoms: S_3  and  C_4
REMARK    5  A    between atoms: N_15  and  C_16
REMARK                            x       y       z     vdW  Elec       q    Type
REMARK                         _______ _______ _______ _____ _____    ______ ____
ROOT
ATOM      1  C   UNL     1       1.902   8.139  19.946  0.00  0.00    +0.000 C 
ATOM      2  O   UNL     1       1.898   7.913  21.147  0.00  0.00    +0.000 OA
ATOM      3  N   UNL     1       2.509   7.291  19.032  0.00  0.00    +0.000 N 
ATOM      4  H   UNL     1       2.636   7.631  18.090  0.00  0.00    +0.000 HD
ENDROOT
BRANCH   3   5
ATOM      5  C   UNL     1       3.296   6.129  19.445  0.00  0.00    +0.000 C 
ATOM      6  C   UNL     1       4.595   6.021  18.628  0.00  0.00    +0.000 C 
ATOM      7  C   UNL     1       4.299   5.595  17.191  0.00  0.00    +0.000 C 
ATOM      8  C   UNL     1       3.660   4.210  17.159  0.00  0.00    +0.000 C 
ATOM      9  C   UNL     1       2.573   4.019  18.189  0.00  0.00    +0.000 A 
ATOM     10  C   UNL     1       1.716   2.914  18.067  0.00  0.00    +0.000 A 
ATOM     11  C   UNL     1       0.742   2.655  19.031  0.00  0.00    +0.000 A 
ATOM     12  C   UNL     1       0.635   3.481  20.144  0.00  0.00    +0.000 A 
ATOM     13  C   UNL     1       1.488   4.577  20.285  0.00  0.00    +0.000 A 
ATOM     14  C   UNL     1       2.449   4.874  19.304  0.00  0.00    +0.000 A 
ENDBRANCH   3   5
BRANCH   1  16
ATOM     15  C   UNL     1       1.052   9.121  17.809  0.00  0.00    +0.000 C 
ATOM     16  C   UNL     1       1.206   9.367  19.311  0.00  0.00    +0.000 C 
BRANCH  16  17
ATOM     17  S   UNL     1      -0.394   9.548  20.180  0.00  0.00    +0.000 S 
BRANCH  17  18
ATOM     18  C   UNL     1      -0.336  11.117  20.936  0.00  0.00    +0.000 A 
ATOM     19  N   UNL     1      -1.142  11.507  21.897  0.00  0.00    +0.000 NA
ATOM     20  C   UNL     1      -0.802  12.806  22.276  0.00  0.00    +0.000 A 
ATOM     21  C   UNL     1      -1.400  13.566  23.305  0.00  0.00    +0.000 A 
ATOM     22  C   UNL     1      -0.949  14.868  23.569  0.00  0.00    +0.000 A 
ATOM     23  C   UNL     1       0.084  15.424  22.824  0.00  0.00    +0.000 A 
ATOM     24  C   UNL     1       0.700  14.693  21.806  0.00  0.00    +0.000 A 
ATOM     25  C   UNL     1       0.242  13.390  21.553  0.00  0.00    +0.000 A 
ATOM     26  S   UNL     1       0.809  12.267  20.388  0.00  0.00    +0.000 S 
ENDBRANCH  17  18
ENDBRANCH  16  17
ENDBRANCH   1  16
TORSDOF 4
ENDMDL
