MODEL 1
REMARK VINA RESULT:      -7.1      0.000      0.000
REMARK  Name = 
REMARK  9 active torsions:
REMARK  status: ('A' for Active; 'I' for Inactive)
REMARK    1  A    between atoms: C_1  and  C_2
REMARK    2  A    between atoms: C_2  and  C_3
REMARK    3  A    between atoms: C_8  and  S_9
REMARK    4  A    between atoms: S_9  and  C_12
REMARK    5  A    between atoms: C_12  and  C_13
REMARK    6  A    between atoms: C_16  and  C_17
REMARK    7  A    between atoms: N_19  and  C_20
REMARK    8  A    between atoms: C_20  and  C_21
REMARK    9  A    between atoms: C_20  and  C_22
REMARK                            x       y       z     vdW  Elec       q    Type
REMARK                         _______ _______ _______ _____ _____    ______ ____
ROOT
ATOM      1  C   UNL     1       3.397   5.769  19.622  0.00  0.00    +0.000 C 
ENDROOT
BRANCH   1   2
ATOM      2  C   UNL     1       2.953   7.028  18.997  0.00  0.00    +0.000 A 
ATOM      3  C   UNL     1       3.224   7.576  17.760  0.00  0.00    +0.000 A 
ATOM      4  C   UNL     1       2.391   8.708  17.634  0.00  0.00    +0.000 A 
ATOM      5  C   UNL     1       1.647   8.780  18.805  0.00  0.00    +0.000 A 
ATOM      6  O   UNL     1       1.990   7.741  19.631  0.00  0.00    +0.000 OA
BRANCH   5   7
ATOM      7  C   UNL     1       0.633   9.713  19.256  0.00  0.00    +0.000 C 
ATOM      8  O   UNL     1       0.295   9.832  20.432  0.00  0.00    +0.000 OA
ATOM      9  N   UNL     1       0.068  10.458  18.239  0.00  0.00    +0.000 N 
ATOM     10  H   UNL     1       0.429  10.340  17.297  0.00  0.00    +0.000 HD
BRANCH   9  11
ATOM     11  C   UNL     1      -0.953  11.451  18.495  0.00  0.00    +0.000 C 
ATOM     12  C   UNL     1      -0.394  12.866  18.367  0.00  0.00    +0.000 C 
ATOM     13  C   UNL     1      -2.118  11.247  17.537  0.00  0.00    +0.000 C 
ENDBRANCH   9  11
ENDBRANCH   5   7
ENDBRANCH   1   2
BRANCH   1  14
ATOM     14  S   UNL     1       3.431   4.363  18.535  0.00  0.00    +0.000 S 
ATOM     15  O   UNL     1       2.208   4.393  17.746  0.00  0.00    +0.000 OA
ATOM     16  O   UNL     1       3.678   3.199  19.371  0.00  0.00    +0.000 OA
BRANCH  14  22
ATOM     17  C   UNL     1       6.139   4.920  17.814  0.00  0.00    +0.000 A 
ATOM     18  C   UNL     1       7.124   4.998  16.810  0.00  0.00    +0.000 A 
ATOM     19  C   UNL     1       6.846   4.668  15.487  0.00  0.00    +0.000 A 
ATOM     20  C   UNL     1       5.571   4.250  15.135  0.00  0.00    +0.000 A 
ATOM     21  C   UNL     1       4.570   4.179  16.101  0.00  0.00    +0.000 A 
ATOM     22  C   UNL     1       4.839   4.498  17.441  0.00  0.00    +0.000 A 
BRANCH  17  24
ATOM     23  C   UNL     1       7.916   6.030  19.183  0.00  0.00    +0.000 C 
ATOM     24  C   UNL     1       6.621   5.223  19.215  0.00  0.00    +0.000 C 
ENDBRANCH  17  24
ENDBRANCH  14  22
ENDBRANCH   1  14
TORSDOF 6
ENDMDL
MODEL 2
REMARK VINA RESULT:      -7.1      1.458      2.110
REMARK  Name = 
REMARK  9 active torsions:
REMARK  status: ('A' for Active; 'I' for Inactive)
REMARK    1  A    between atoms: C_1  and  C_2
REMARK    2  A    between atoms: C_2  and  C_3
REMARK    3  A    between atoms: C_8  and  S_9
REMARK    4  A    between atoms: S_9  and  C_12
REMARK    5  A    between atoms: C_12  and  C_13
REMARK    6  A    between atoms: C_16  and  C_17
REMARK    7  A    between atoms: N_19  and  C_20
REMARK    8  A    between atoms: C_20  and  C_21
REMARK    9  A    between atoms: C_20  and  C_22
REMARK                            x       y       z     vdW  Elec       q    Type
REMARK                         _______ _______ _______ _____ _____    ______ ____
ROOT
ATOM      1  C   UNL     1       2.964   4.367  18.814  0.00  0.00    +0.000 C 
ENDROOT
BRANCH   1   2
ATOM      2  C   UNL     1       2.358   5.612  19.320  0.00  0.00    +0.000 A 
ATOM      3  C   UNL     1       1.920   5.963  20.580  0.00  0.00    +0.000 A 
ATOM      4  C   UNL     1       1.596   7.336  20.521  0.00  0.00    +0.000 A 
ATOM      5  C   UNL     1       1.867   7.747  19.222  0.00  0.00    +0.000 A 
ATOM      6  O   UNL     1       2.344   6.687  18.495  0.00  0.00    +0.000 OA
BRANCH   5   7
ATOM      7  C   UNL     1       1.738   9.032  18.563  0.00  0.00    +0.000 C 
ATOM      8  O   UNL     1       2.174   9.264  17.437  0.00  0.00    +0.000 OA
ATOM      9  N   UNL     1       1.084   9.985  19.320  0.00  0.00    +0.000 N 
ATOM     10  H   UNL     1       0.710   9.709  20.223  0.00  0.00    +0.000 HD
BRANCH   9  11
ATOM     11  C   UNL     1       0.849  11.325  18.826  0.00  0.00    +0.000 C 
ATOM     12  C   UNL     1      -0.643  11.588  18.629  0.00  0.00    +0.000 C 
ATOM     13  C   UNL     1       1.449  12.339  19.789  0.00  0.00    +0.000 C 
ENDBRANCH   9  11
ENDBRANCH   5   7
ENDBRANCH   1   2
BRANCH   1  14
ATOM     14  S   UNL     1       4.723   4.242  19.039  0.00  0.00    +0.000 S 
ATOM     15  O   UNL     1       4.997   2.927  19.603  0.00  0.00    +0.000 OA
ATOM     16  O   UNL     1       5.128   5.411  19.803  0.00  0.00    +0.000 OA
BRANCH  14  22
ATOM     17  C   UNL     1       6.876   4.773  17.238  0.00  0.00    +0.000 A 
ATOM     18  C   UNL     1       7.339   4.858  15.910  0.00  0.00    +0.000 A 
ATOM     19  C   UNL     1       6.515   4.563  14.829  0.00  0.00    +0.000 A 
ATOM     20  C   UNL     1       5.203   4.172  15.050  0.00  0.00    +0.000 A 
ATOM     21  C   UNL     1       4.709   4.095  16.350  0.00  0.00    +0.000 A 
ATOM     22  C   UNL     1       5.532   4.380  17.451  0.00  0.00    +0.000 A 
BRANCH  17  24
ATOM     23  C   UNL     1       7.973   6.521  18.653  0.00  0.00    +0.000 C 
ATOM     24  C   UNL     1       7.917   5.038  18.303  0.00  0.00    +0.000 C 
ENDBRANCH  17  24
ENDBRANCH  14  22
ENDBRANCH   1  14
TORSDOF 6
ENDMDL
MODEL 3
REMARK VINA RESULT:      -7.0      3.840      7.785
REMARK  Name = 
REMARK  9 active torsions:
REMARK  status: ('A' for Active; 'I' for Inactive)
REMARK    1  A    between atoms: C_1  and  C_2
REMARK    2  A    between atoms: C_2  and  C_3
REMARK    3  A    between atoms: C_8  and  S_9
REMARK    4  A    between atoms: S_9  and  C_12
REMARK    5  A    between atoms: C_12  and  C_13
REMARK    6  A    between atoms: C_16  and  C_17
REMARK    7  A    between atoms: N_19  and  C_20
REMARK    8  A    between atoms: C_20  and  C_21
REMARK    9  A    between atoms: C_20  and  C_22
REMARK                            x       y       z     vdW  Elec       q    Type
REMARK                         _______ _______ _______ _____ _____    ______ ____
ROOT
ATOM      1  C   UNL     1       5.333   3.856  17.663  0.00  0.00    +0.000 C 
ENDROOT
BRANCH   1   2
ATOM      2  C   UNL     1       6.117   4.377  16.528  0.00  0.00    +0.000 A 
ATOM      3  C   UNL     1       7.247   5.168  16.490  0.00  0.00    +0.000 A 
ATOM      4  C   UNL     1       7.661   5.206  15.141  0.00  0.00    +0.000 A 
ATOM      5  C   UNL     1       6.761   4.422  14.432  0.00  0.00    +0.000 A 
ATOM      6  O   UNL     1       5.823   3.908  15.291  0.00  0.00    +0.000 OA
BRANCH   5   7
ATOM      7  C   UNL     1       6.667   4.081  13.027  0.00  0.00    +0.000 C 
ATOM      8  O   UNL     1       7.410   4.545  12.164  0.00  0.00    +0.000 OA
ATOM      9  N   UNL     1       5.655   3.186  12.735  0.00  0.00    +0.000 N 
ATOM     10  H   UNL     1       5.109   2.809  13.504  0.00  0.00    +0.000 HD
BRANCH   9  11
ATOM     11  C   UNL     1       5.413   2.716  11.388  0.00  0.00    +0.000 C 
ATOM     12  C   UNL     1       5.828   1.255  11.229  0.00  0.00    +0.000 C 
ATOM     13  C   UNL     1       3.943   2.897  11.038  0.00  0.00    +0.000 C 
ENDBRANCH   9  11
ENDBRANCH   5   7
ENDBRANCH   1   2
BRANCH   1  14
ATOM     14  S   UNL     1       4.434   5.084  18.581  0.00  0.00    +0.000 S 
ATOM     15  O   UNL     1       4.137   6.180  17.669  0.00  0.00    +0.000 OA
ATOM     16  O   UNL     1       5.223   5.376  19.767  0.00  0.00    +0.000 OA
BRANCH  14  22
ATOM     17  C   UNL     1       2.055   4.936  20.156  0.00  0.00    +0.000 A 
ATOM     18  C   UNL     1       0.896   4.222  20.519  0.00  0.00    +0.000 A 
ATOM     19  C   UNL     1       0.573   3.005  19.927  0.00  0.00    +0.000 A 
ATOM     20  C   UNL     1       1.404   2.470  18.954  0.00  0.00    +0.000 A 
ATOM     21  C   UNL     1       2.567   3.143  18.586  0.00  0.00    +0.000 A 
ATOM     22  C   UNL     1       2.900   4.376  19.166  0.00  0.00    +0.000 A 
BRANCH  17  24
ATOM     23  C   UNL     1       1.839   7.412  19.870  0.00  0.00    +0.000 C 
ATOM     24  C   UNL     1       2.217   6.283  20.823  0.00  0.00    +0.000 C 
ENDBRANCH  17  24
ENDBRANCH  14  22
ENDBRANCH   1  14
TORSDOF 6
ENDMDL
MODEL 4
REMARK VINA RESULT:      -7.0      4.101      7.254
REMARK  Name = 
REMARK  9 active torsions:
REMARK  status: ('A' for Active; 'I' for Inactive)
REMARK    1  A    between atoms: C_1  and  C_2
REMARK    2  A    between atoms: C_2  and  C_3
REMARK    3  A    between atoms: C_8  and  S_9
REMARK    4  A    between atoms: S_9  and  C_12
REMARK    5  A    between atoms: C_12  and  C_13
REMARK    6  A    between atoms: C_16  and  C_17
REMARK    7  A    between atoms: N_19  and  C_20
REMARK    8  A    between atoms: C_20  and  C_21
REMARK    9  A    between atoms: C_20  and  C_22
REMARK                            x       y       z     vdW  Elec       q    Type
REMARK                         _______ _______ _______ _____ _____    ______ ____
ROOT
ATOM      1  C   UNL     1       4.249   6.607  17.548  0.00  0.00    +0.000 C 
ENDROOT
BRANCH   1   2
ATOM      2  C   UNL     1       5.394   5.943  16.901  0.00  0.00    +0.000 A 
ATOM      3  C   UNL     1       6.488   5.292  17.434  0.00  0.00    +0.000 A 
ATOM      4  C   UNL     1       7.168   4.701  16.347  0.00  0.00    +0.000 A 
ATOM      5  C   UNL     1       6.439   5.019  15.208  0.00  0.00    +0.000 A 
ATOM      6  O   UNL     1       5.348   5.771  15.558  0.00  0.00    +0.000 OA
BRANCH   5   7
ATOM      7  C   UNL     1       6.635   4.698  13.809  0.00  0.00    +0.000 C 
ATOM      8  O   UNL     1       7.546   5.162  13.126  0.00  0.00    +0.000 OA
ATOM      9  N   UNL     1       5.695   3.822  13.300  0.00  0.00    +0.000 N 
ATOM     10  H   UNL     1       4.997   3.443  13.933  0.00  0.00    +0.000 HD
BRANCH   9  11
ATOM     11  C   UNL     1       5.733   3.374  11.924  0.00  0.00    +0.000 C 
ATOM     12  C   UNL     1       6.488   2.053  11.794  0.00  0.00    +0.000 C 
ATOM     13  C   UNL     1       4.313   3.235  11.392  0.00  0.00    +0.000 C 
ENDBRANCH   9  11
ENDBRANCH   5   7
ENDBRANCH   1   2
BRANCH   1  14
ATOM     14  S   UNL     1       3.758   5.910  19.108  0.00  0.00    +0.000 S 
ATOM     15  O   UNL     1       2.760   6.798  19.688  0.00  0.00    +0.000 OA
ATOM     16  O   UNL     1       4.980   5.670  19.858  0.00  0.00    +0.000 OA
BRANCH  14  22
ATOM     17  C   UNL     1       2.450   3.472  19.822  0.00  0.00    +0.000 A 
ATOM     18  C   UNL     1       1.942   2.219  19.426  0.00  0.00    +0.000 A 
ATOM     19  C   UNL     1       1.990   1.798  18.101  0.00  0.00    +0.000 A 
ATOM     20  C   UNL     1       2.547   2.624  17.136  0.00  0.00    +0.000 A 
ATOM     21  C   UNL     1       3.073   3.862  17.498  0.00  0.00    +0.000 A 
ATOM     22  C   UNL     1       3.022   4.304  18.829  0.00  0.00    +0.000 A 
BRANCH  17  24
ATOM     23  C   UNL     1       1.434   2.739  21.989  0.00  0.00    +0.000 C 
ATOM     24  C   UNL     1       2.241   3.821  21.279  0.00  0.00    +0.000 C 
ENDBRANCH  17  24
ENDBRANCH  14  22
ENDBRANCH   1  14
TORSDOF 6
ENDMDL
MODEL 5
REMARK VINA RESULT:      -7.0      3.968      7.575
REMARK  Name = 
REMARK  9 active torsions:
REMARK  status: ('A' for Active; 'I' for Inactive)
REMARK    1  A    between atoms: C_1  and  C_2
REMARK    2  A    between atoms: C_2  and  C_3
REMARK    3  A    between atoms: C_8  and  S_9
REMARK    4  A    between atoms: S_9  and  C_12
REMARK    5  A    between atoms: C_12  and  C_13
REMARK    6  A    between atoms: C_16  and  C_17
REMARK    7  A    between atoms: N_19  and  C_20
REMARK    8  A    between atoms: C_20  and  C_21
REMARK    9  A    between atoms: C_20  and  C_22
REMARK                            x       y       z     vdW  Elec       q    Type
REMARK                         _______ _______ _______ _____ _____    ______ ____
ROOT
ATOM      1  C   UNL     1       5.230   3.563  18.125  0.00  0.00    +0.000 C 
ENDROOT
BRANCH   1   2
ATOM      2  C   UNL     1       5.775   4.360  17.012  0.00  0.00    +0.000 A 
ATOM      3  C   UNL     1       6.487   5.542  17.002  0.00  0.00    +0.000 A 
ATOM      4  C   UNL     1       6.898   5.749  15.667  0.00  0.00    +0.000 A 
ATOM      5  C   UNL     1       6.419   4.669  14.937  0.00  0.00    +0.000 A 
ATOM      6  O   UNL     1       5.740   3.817  15.771  0.00  0.00    +0.000 OA
BRANCH   5   7
ATOM      7  C   UNL     1       6.520   4.323  13.534  0.00  0.00    +0.000 C 
ATOM      8  O   UNL     1       7.463   4.658  12.818  0.00  0.00    +0.000 OA
ATOM      9  N   UNL     1       5.453   3.584  13.061  0.00  0.00    +0.000 N 
ATOM     10  H   UNL     1       4.732   3.304  13.720  0.00  0.00    +0.000 HD
BRANCH   9  11
ATOM     11  C   UNL     1       5.382   3.134  11.688  0.00  0.00    +0.000 C 
ATOM     12  C   UNL     1       5.936   1.719  11.540  0.00  0.00    +0.000 C 
ATOM     13  C   UNL     1       3.941   3.199  11.201  0.00  0.00    +0.000 C 
ENDBRANCH   9  11
ENDBRANCH   5   7
ENDBRANCH   1   2
BRANCH   1  14
ATOM     14  S   UNL     1       3.467   3.341  18.097  0.00  0.00    +0.000 S 
ATOM     15  O   UNL     1       3.183   2.034  18.675  0.00  0.00    +0.000 OA
ATOM     16  O   UNL     1       3.038   3.592  16.731  0.00  0.00    +0.000 OA
BRANCH  14  22
ATOM     17  C   UNL     1       1.666   4.396  20.049  0.00  0.00    +0.000 A 
ATOM     18  C   UNL     1       1.154   5.518  20.730  0.00  0.00    +0.000 A 
ATOM     19  C   UNL     1       1.640   6.800  20.494  0.00  0.00    +0.000 A 
ATOM     20  C   UNL     1       2.655   6.992  19.567  0.00  0.00    +0.000 A 
ATOM     21  C   UNL     1       3.171   5.905  18.865  0.00  0.00    +0.000 A 
ATOM     22  C   UNL     1       2.698   4.606  19.101  0.00  0.00    +0.000 A 
BRANCH  17  24
ATOM     23  C   UNL     1       1.680   2.634  21.825  0.00  0.00    +0.000 C 
ATOM     24  C   UNL     1       1.098   3.063  20.483  0.00  0.00    +0.000 C 
ENDBRANCH  17  24
ENDBRANCH  14  22
ENDBRANCH   1  14
TORSDOF 6
ENDMDL
MODEL 6
REMARK VINA RESULT:      -6.9      1.353      1.563
REMARK  Name = 
REMARK  9 active torsions:
REMARK  status: ('A' for Active; 'I' for Inactive)
REMARK    1  A    between atoms: C_1  and  C_2
REMARK    2  A    between atoms: C_2  and  C_3
REMARK    3  A    between atoms: C_8  and  S_9
REMARK    4  A    between atoms: S_9  and  C_12
REMARK    5  A    between atoms: C_12  and  C_13
REMARK    6  A    between atoms: C_16  and  C_17
REMARK    7  A    between atoms: N_19  and  C_20
REMARK    8  A    between atoms: C_20  and  C_21
REMARK    9  A    between atoms: C_20  and  C_22
REMARK                            x       y       z     vdW  Elec       q    Type
REMARK                         _______ _______ _______ _____ _____    ______ ____
ROOT
ATOM      1  C   UNL     1       2.933   4.849  18.720  0.00  0.00    +0.000 C 
ENDROOT
BRANCH   1   2
ATOM      2  C   UNL     1       2.718   6.307  18.682  0.00  0.00    +0.000 A 
ATOM      3  C   UNL     1       2.946   7.234  17.686  0.00  0.00    +0.000 A 
ATOM      4  C   UNL     1       2.393   8.450  18.140  0.00  0.00    +0.000 A 
ATOM      5  C   UNL     1       1.846   8.190  19.390  0.00  0.00    +0.000 A 
ATOM      6  O   UNL     1       2.041   6.871  19.710  0.00  0.00    +0.000 OA
BRANCH   5   7
ATOM      7  C   UNL     1       1.148   9.034  20.339  0.00  0.00    +0.000 C 
ATOM      8  O   UNL     1       1.087   8.795  21.544  0.00  0.00    +0.000 OA
ATOM      9  N   UNL     1       0.542  10.137  19.767  0.00  0.00    +0.000 N 
ATOM     10  H   UNL     1       0.673  10.295  18.772  0.00  0.00    +0.000 HD
BRANCH   9  11
ATOM     11  C   UNL     1      -0.192  11.102  20.556  0.00  0.00    +0.000 C 
ATOM     12  C   UNL     1       0.686  12.296  20.925  0.00  0.00    +0.000 C 
ATOM     13  C   UNL     1      -1.425  11.559  19.789  0.00  0.00    +0.000 C 
ENDBRANCH   9  11
ENDBRANCH   5   7
ENDBRANCH   1   2
BRANCH   1  14
ATOM     14  S   UNL     1       4.621   4.344  18.952  0.00  0.00    +0.000 S 
ATOM     15  O   UNL     1       4.605   2.947  19.364  0.00  0.00    +0.000 OA
ATOM     16  O   UNL     1       5.226   5.315  19.850  0.00  0.00    +0.000 OA
BRANCH  14  22
ATOM     17  C   UNL     1       6.805   5.007  17.233  0.00  0.00    +0.000 A 
ATOM     18  C   UNL     1       7.329   5.076  15.927  0.00  0.00    +0.000 A 
ATOM     19  C   UNL     1       6.599   4.645  14.823  0.00  0.00    +0.000 A 
ATOM     20  C   UNL     1       5.323   4.132  15.000  0.00  0.00    +0.000 A 
ATOM     21  C   UNL     1       4.769   4.067  16.277  0.00  0.00    +0.000 A 
ATOM     22  C   UNL     1       5.497   4.488  17.400  0.00  0.00    +0.000 A 
BRANCH  17  24
ATOM     23  C   UNL     1       7.930   6.944  18.349  0.00  0.00    +0.000 C 
ATOM     24  C   UNL     1       7.754   5.429  18.332  0.00  0.00    +0.000 C 
ENDBRANCH  17  24
ENDBRANCH  14  22
ENDBRANCH   1  14
TORSDOF 6
ENDMDL
MODEL 7
REMARK VINA RESULT:      -6.9      0.606      1.990
REMARK  Name = 
REMARK  9 active torsions:
REMARK  status: ('A' for Active; 'I' for Inactive)
REMARK    1  A    between atoms: C_1  and  C_2
REMARK    2  A    between atoms: C_2  and  C_3
REMARK    3  A    between atoms: C_8  and  S_9
REMARK    4  A    between atoms: S_9  and  C_12
REMARK    5  A    between atoms: C_12  and  C_13
REMARK    6  A    between atoms: C_16  and  C_17
REMARK    7  A    between atoms: N_19  and  C_20
REMARK    8  A    between atoms: C_20  and  C_21
REMARK    9  A    between atoms: C_20  and  C_22
REMARK                            x       y       z     vdW  Elec       q    Type
REMARK                         _______ _______ _______ _____ _____    ______ ____
ROOT
ATOM      1  C   UNL     1       2.784   5.797  19.815  0.00  0.00    +0.000 C 
ENDROOT
BRANCH   1   2
ATOM      2  C   UNL     1       2.520   7.108  19.196  0.00  0.00    +0.000 A 
ATOM      3  C   UNL     1       2.922   7.642  17.988  0.00  0.00    +0.000 A 
ATOM      4  C   UNL     1       2.228   8.863  17.842  0.00  0.00    +0.000 A 
ATOM      5  C   UNL     1       1.430   8.999  18.971  0.00  0.00    +0.000 A 
ATOM      6  O   UNL     1       1.607   7.914  19.790  0.00  0.00    +0.000 OA
BRANCH   5   7
ATOM      7  C   UNL     1       0.502  10.032  19.385  0.00  0.00    +0.000 C 
ATOM      8  O   UNL     1       0.176  10.222  20.555  0.00  0.00    +0.000 OA
ATOM      9  N   UNL     1       0.004  10.787  18.341  0.00  0.00    +0.000 N 
ATOM     10  H   UNL     1       0.353  10.604  17.405  0.00  0.00    +0.000 HD
BRANCH   9  11
ATOM     11  C   UNL     1      -0.927  11.874  18.558  0.00  0.00    +0.000 C 
ATOM     12  C   UNL     1      -0.276  13.225  18.270  0.00  0.00    +0.000 C 
ATOM     13  C   UNL     1      -2.159  11.676  17.686  0.00  0.00    +0.000 C 
ENDBRANCH   9  11
ENDBRANCH   5   7
ENDBRANCH   1   2
BRANCH   1  14
ATOM     14  S   UNL     1       3.341   4.535  18.694  0.00  0.00    +0.000 S 
ATOM     15  O   UNL     1       2.569   4.671  17.467  0.00  0.00    +0.000 OA
ATOM     16  O   UNL     1       3.263   3.275  19.416  0.00  0.00    +0.000 OA
BRANCH  14  22
ATOM     17  C   UNL     1       5.714   4.493  17.103  0.00  0.00    +0.000 A 
ATOM     18  C   UNL     1       7.098   4.733  17.003  0.00  0.00    +0.000 A 
ATOM     19  C   UNL     1       7.828   5.255  18.066  0.00  0.00    +0.000 A 
ATOM     20  C   UNL     1       7.188   5.551  19.260  0.00  0.00    +0.000 A 
ATOM     21  C   UNL     1       5.823   5.309  19.398  0.00  0.00    +0.000 A 
ATOM     22  C   UNL     1       5.073   4.794  18.330  0.00  0.00    +0.000 A 
BRANCH  17  24
ATOM     23  C   UNL     1       6.051   3.944  14.685  0.00  0.00    +0.000 C 
ATOM     24  C   UNL     1       5.049   4.011  15.833  0.00  0.00    +0.000 C 
ENDBRANCH  17  24
ENDBRANCH  14  22
ENDBRANCH   1  14
TORSDOF 6
ENDMDL
MODEL 8
REMARK VINA RESULT:      -6.8      1.105      2.238
REMARK  Name = 
REMARK  9 active torsions:
REMARK  status: ('A' for Active; 'I' for Inactive)
REMARK    1  A    between atoms: C_1  and  C_2
REMARK    2  A    between atoms: C_2  and  C_3
REMARK    3  A    between atoms: C_8  and  S_9
REMARK    4  A    between atoms: S_9  and  C_12
REMARK    5  A    between atoms: C_12  and  C_13
REMARK    6  A    between atoms: C_16  and  C_17
REMARK    7  A    between atoms: N_19  and  C_20
REMARK    8  A    between atoms: C_20  and  C_21
REMARK    9  A    between atoms: C_20  and  C_22
REMARK                            x       y       z     vdW  Elec       q    Type
REMARK                         _______ _______ _______ _____ _____    ______ ____
ROOT
ATOM      1  C   UNL     1       3.149   4.651  19.987  0.00  0.00    +0.000 C 
ENDROOT
BRANCH   1   2
ATOM      2  C   UNL     1       2.833   5.962  19.391  0.00  0.00    +0.000 A 
ATOM      3  C   UNL     1       2.901   6.409  18.087  0.00  0.00    +0.000 A 
ATOM      4  C   UNL     1       2.311   7.691  18.075  0.00  0.00    +0.000 A 
ATOM      5  C   UNL     1       1.904   7.949  19.378  0.00  0.00    +0.000 A 
ATOM      6  O   UNL     1       2.218   6.880  20.176  0.00  0.00    +0.000 OA
BRANCH   5   7
ATOM      7  C   UNL     1       1.242   9.088  19.981  0.00  0.00    +0.000 C 
ATOM      8  O   UNL     1       1.180   9.273  21.195  0.00  0.00    +0.000 OA
ATOM      9  N   UNL     1       0.675   9.954  19.066  0.00  0.00    +0.000 N 
ATOM     10  H   UNL     1       0.806   9.763  18.077  0.00  0.00    +0.000 HD
BRANCH   9  11
ATOM     11  C   UNL     1      -0.019  11.156  19.477  0.00  0.00    +0.000 C 
ATOM     12  C   UNL     1       0.634  12.402  18.882  0.00  0.00    +0.000 C 
ATOM     13  C   UNL     1      -1.482  11.069  19.066  0.00  0.00    +0.000 C 
ENDBRANCH   9  11
ENDBRANCH   5   7
ENDBRANCH   1   2
BRANCH   1  14
ATOM     14  S   UNL     1       4.244   3.633  19.026  0.00  0.00    +0.000 S 
ATOM     15  O   UNL     1       3.463   3.062  17.937  0.00  0.00    +0.000 OA
ATOM     16  O   UNL     1       4.888   2.721  19.957  0.00  0.00    +0.000 OA
BRANCH  14  22
ATOM     17  C   UNL     1       5.838   4.807  16.966  0.00  0.00    +0.000 A 
ATOM     18  C   UNL     1       6.926   5.627  16.608  0.00  0.00    +0.000 A 
ATOM     19  C   UNL     1       7.699   6.275  17.567  0.00  0.00    +0.000 A 
ATOM     20  C   UNL     1       7.400   6.118  18.912  0.00  0.00    +0.000 A 
ATOM     21  C   UNL     1       6.341   5.301  19.300  0.00  0.00    +0.000 A 
ATOM     22  C   UNL     1       5.547   4.650  18.343  0.00  0.00    +0.000 A 
BRANCH  17  24
ATOM     23  C   UNL     1       5.788   4.445  14.490  0.00  0.00    +0.000 C 
ATOM     24  C   UNL     1       5.043   4.248  15.807  0.00  0.00    +0.000 C 
ENDBRANCH  17  24
ENDBRANCH  14  22
ENDBRANCH   1  14
TORSDOF 6
ENDMDL
MODEL 9
REMARK VINA RESULT:      -6.7      1.300      2.319
REMARK  Name = 
REMARK  9 active torsions:
REMARK  status: ('A' for Active; 'I' for Inactive)
REMARK    1  A    between atoms: C_1  and  C_2
REMARK    2  A    between atoms: C_2  and  C_3
REMARK    3  A    between atoms: C_8  and  S_9
REMARK    4  A    between atoms: S_9  and  C_12
REMARK    5  A    between atoms: C_12  and  C_13
REMARK    6  A    between atoms: C_16  and  C_17
REMARK    7  A    between atoms: N_19  and  C_20
REMARK    8  A    between atoms: C_20  and  C_21
REMARK    9  A    between atoms: C_20  and  C_22
REMARK                            x       y       z     vdW  Elec       q    Type
REMARK                         _______ _______ _______ _____ _____    ______ ____
ROOT
ATOM      1  C   UNL     1       3.514   5.094  19.585  0.00  0.00    +0.000 C 
ENDROOT
BRANCH   1   2
ATOM      2  C   UNL     1       3.174   6.425  19.051  0.00  0.00    +0.000 A 
ATOM      3  C   UNL     1       3.468   7.023  17.843  0.00  0.00    +0.000 A 
ATOM      4  C   UNL     1       2.739   8.231  17.809  0.00  0.00    +0.000 A 
ATOM      5  C   UNL     1       2.030   8.296  19.001  0.00  0.00    +0.000 A 
ATOM      6  O   UNL     1       2.293   7.179  19.752  0.00  0.00    +0.000 OA
BRANCH   5   7
ATOM      7  C   UNL     1       1.115   9.285  19.535  0.00  0.00    +0.000 C 
ATOM      8  O   UNL     1       0.839   9.380  20.729  0.00  0.00    +0.000 OA
ATOM      9  N   UNL     1       0.568  10.116  18.575  0.00  0.00    +0.000 N 
ATOM     10  H   UNL     1       0.877  10.009  17.614  0.00  0.00    +0.000 HD
BRANCH   9  11
ATOM     11  C   UNL     1      -0.357  11.174  18.917  0.00  0.00    +0.000 C 
ATOM     12  C   UNL     1       0.266  12.550  18.687  0.00  0.00    +0.000 C 
ATOM     13  C   UNL     1      -1.634  11.021  18.103  0.00  0.00    +0.000 C 
ENDBRANCH   9  11
ENDBRANCH   5   7
ENDBRANCH   1   2
BRANCH   1  14
ATOM     14  S   UNL     1       5.180   4.562  19.270  0.00  0.00    +0.000 S 
ATOM     15  O   UNL     1       5.341   3.248  19.878  0.00  0.00    +0.000 OA
ATOM     16  O   UNL     1       6.052   5.635  19.720  0.00  0.00    +0.000 OA
BRANCH  14  22
ATOM     17  C   UNL     1       4.513   3.869  16.579  0.00  0.00    +0.000 A 
ATOM     18  C   UNL     1       4.891   3.813  15.223  0.00  0.00    +0.000 A 
ATOM     19  C   UNL     1       6.123   4.291  14.788  0.00  0.00    +0.000 A 
ATOM     20  C   UNL     1       7.010   4.840  15.702  0.00  0.00    +0.000 A 
ATOM     21  C   UNL     1       6.674   4.893  17.053  0.00  0.00    +0.000 A 
ATOM     22  C   UNL     1       5.431   4.425  17.505  0.00  0.00    +0.000 A 
BRANCH  17  24
ATOM     23  C   UNL     1       3.129   2.040  17.580  0.00  0.00    +0.000 C 
ATOM     24  C   UNL     1       3.109   3.393  16.878  0.00  0.00    +0.000 C 
ENDBRANCH  17  24
ENDBRANCH  14  22
ENDBRANCH   1  14
TORSDOF 6
ENDMDL
