MODEL 1
REMARK VINA RESULT:      -8.0      0.000      0.000
REMARK  Name = 
REMARK  3 active torsions:
REMARK  status: ('A' for Active; 'I' for Inactive)
REMARK    1  A    between atoms: C_2  and  C_3
REMARK    2  A    between atoms: C_2  and  C_9
REMARK    3  A    between atoms: C_12  and  C_13
REMARK                            x       y       z     vdW  Elec       q    Type
REMARK                         _______ _______ _______ _____ _____    ______ ____
ROOT
ATOM      1  C   UNL     1       4.116   4.859  17.219  0.00  0.00    +0.000 A 
ATOM      2  N   UNL     1       4.125   3.493  17.271  0.00  0.00    +0.000 NA
ATOM      3  C   UNL     1       3.128   2.874  17.937  0.00  0.00    +0.000 A 
ATOM      4  C   UNL     1       2.123   3.547  18.610  0.00  0.00    +0.000 A 
ATOM      5  C   UNL     1       2.153   4.949  18.583  0.00  0.00    +0.000 A 
ATOM      6  C   UNL     1       3.155   5.624  17.877  0.00  0.00    +0.000 A 
ATOM      7 CL   UNL     1       3.083   7.345  17.852  0.00  0.00    +0.000 Cl
ENDROOT
BRANCH   4   8
ATOM      8  C   UNL     1       1.054   2.792  19.338  0.00  0.00    +0.000 C 
ATOM      9  F   UNL     1       0.171   2.169  18.512  0.00  0.00    +0.000 F 
ATOM     10  F   UNL     1       1.565   1.821  20.142  0.00  0.00    +0.000 F 
ATOM     11  F   UNL     1       0.309   3.595  20.144  0.00  0.00    +0.000 F 
ENDBRANCH   4   8
BRANCH   1  13
ATOM     12  O   UNL     1       5.312   5.440  15.250  0.00  0.00    +0.000 OA
ATOM     13  C   UNL     1       5.261   5.459  16.478  0.00  0.00    +0.000 C 
BRANCH  13  14
ATOM     14  C   UNL     1       6.316   6.173  17.246  0.00  0.00    +0.000 A 
ATOM     15  C   UNL     1       6.900   5.539  18.337  0.00  0.00    +0.000 A 
ATOM     16  C   UNL     1       7.931   6.190  19.006  0.00  0.00    +0.000 A 
ATOM     17  C   UNL     1       8.334   7.450  18.574  0.00  0.00    +0.000 A 
ATOM     18  C   UNL     1       7.670   8.021  17.498  0.00  0.00    +0.000 A 
ATOM     19  N   UNL     1       6.660   7.420  16.832  0.00  0.00    +0.000 NA
ENDBRANCH  13  14
ENDBRANCH   1  13
TORSDOF 3
ENDMDL
MODEL 2
REMARK VINA RESULT:      -7.8      2.129      2.882
REMARK  Name = 
REMARK  3 active torsions:
REMARK  status: ('A' for Active; 'I' for Inactive)
REMARK    1  A    between atoms: C_2  and  C_3
REMARK    2  A    between atoms: C_2  and  C_9
REMARK    3  A    between atoms: C_12  and  C_13
REMARK                            x       y       z     vdW  Elec       q    Type
REMARK                         _______ _______ _______ _____ _____    ______ ____
ROOT
ATOM      1  C   UNL     1       5.115   4.493  18.505  0.00  0.00    +0.000 A 
ATOM      2  N   UNL     1       4.973   3.368  19.269  0.00  0.00    +0.000 NA
ATOM      3  C   UNL     1       3.796   3.170  19.898  0.00  0.00    +0.000 A 
ATOM      4  C   UNL     1       2.742   4.065  19.852  0.00  0.00    +0.000 A 
ATOM      5  C   UNL     1       2.919   5.235  19.099  0.00  0.00    +0.000 A 
ATOM      6  C   UNL     1       4.115   5.459  18.408  0.00  0.00    +0.000 A 
ATOM      7 CL   UNL     1       4.226   6.896  17.464  0.00  0.00    +0.000 Cl
ENDROOT
BRANCH   4   8
ATOM      8  C   UNL     1       1.468   3.783  20.587  0.00  0.00    +0.000 C 
ATOM      9  F   UNL     1       0.680   2.859  19.974  0.00  0.00    +0.000 F 
ATOM     10  F   UNL     1       1.691   3.312  21.844  0.00  0.00    +0.000 F 
ATOM     11  F   UNL     1       0.696   4.894  20.732  0.00  0.00    +0.000 F 
ENDBRANCH   4   8
BRANCH   1  13
ATOM     12  O   UNL     1       7.476   4.753  18.526  0.00  0.00    +0.000 OA
ATOM     13  C   UNL     1       6.449   4.640  17.859  0.00  0.00    +0.000 C 
BRANCH  13  14
ATOM     14  C   UNL     1       6.542   4.561  16.377  0.00  0.00    +0.000 A 
ATOM     15  C   UNL     1       5.699   3.689  15.696  0.00  0.00    +0.000 A 
ATOM     16  C   UNL     1       5.750   3.672  14.306  0.00  0.00    +0.000 A 
ATOM     17  C   UNL     1       6.642   4.511  13.647  0.00  0.00    +0.000 A 
ATOM     18  C   UNL     1       7.469   5.322  14.410  0.00  0.00    +0.000 A 
ATOM     19  N   UNL     1       7.452   5.357  15.759  0.00  0.00    +0.000 NA
ENDBRANCH  13  14
ENDBRANCH   1  13
TORSDOF 3
ENDMDL
MODEL 3
REMARK VINA RESULT:      -7.6      0.760      1.156
REMARK  Name = 
REMARK  3 active torsions:
REMARK  status: ('A' for Active; 'I' for Inactive)
REMARK    1  A    between atoms: C_2  and  C_3
REMARK    2  A    between atoms: C_2  and  C_9
REMARK    3  A    between atoms: C_12  and  C_13
REMARK                            x       y       z     vdW  Elec       q    Type
REMARK                         _______ _______ _______ _____ _____    ______ ____
ROOT
ATOM      1  C   UNL     1       4.209   4.544  17.316  0.00  0.00    +0.000 A 
ATOM      2  N   UNL     1       4.145   3.189  17.485  0.00  0.00    +0.000 NA
ATOM      3  C   UNL     1       3.089   2.680  18.154  0.00  0.00    +0.000 A 
ATOM      4  C   UNL     1       2.094   3.458  18.720  0.00  0.00    +0.000 A 
ATOM      5  C   UNL     1       2.197   4.849  18.575  0.00  0.00    +0.000 A 
ATOM      6  C   UNL     1       3.262   5.410  17.861  0.00  0.00    +0.000 A 
ATOM      7 CL   UNL     1       3.282   7.124  17.686  0.00  0.00    +0.000 Cl
ENDROOT
BRANCH   4   8
ATOM      8  C   UNL     1       0.957   2.822  19.460  0.00  0.00    +0.000 C 
ATOM      9  F   UNL     1       0.090   2.152  18.652  0.00  0.00    +0.000 F 
ATOM     10  F   UNL     1       1.383   1.919  20.383  0.00  0.00    +0.000 F 
ATOM     11  F   UNL     1       0.207   3.731  20.139  0.00  0.00    +0.000 F 
ENDBRANCH   4   8
BRANCH   1  13
ATOM     12  O   UNL     1       5.519   4.885  15.364  0.00  0.00    +0.000 OA
ATOM     13  C   UNL     1       5.414   5.021  16.581  0.00  0.00    +0.000 C 
BRANCH  13  14
ATOM     14  C   UNL     1       6.467   5.756  17.331  0.00  0.00    +0.000 A 
ATOM     15  C   UNL     1       6.816   7.038  16.920  0.00  0.00    +0.000 A 
ATOM     16  C   UNL     1       7.755   7.739  17.669  0.00  0.00    +0.000 A 
ATOM     17  C   UNL     1       8.320   7.137  18.789  0.00  0.00    +0.000 A 
ATOM     18  C   UNL     1       7.938   5.842  19.103  0.00  0.00    +0.000 A 
ATOM     19  N   UNL     1       7.037   5.129  18.393  0.00  0.00    +0.000 NA
ENDBRANCH  13  14
ENDBRANCH   1  13
TORSDOF 3
ENDMDL
MODEL 4
REMARK VINA RESULT:      -7.4      2.293      3.244
REMARK  Name = 
REMARK  3 active torsions:
REMARK  status: ('A' for Active; 'I' for Inactive)
REMARK    1  A    between atoms: C_2  and  C_3
REMARK    2  A    between atoms: C_2  and  C_9
REMARK    3  A    between atoms: C_12  and  C_13
REMARK                            x       y       z     vdW  Elec       q    Type
REMARK                         _______ _______ _______ _____ _____    ______ ____
ROOT
ATOM      1  C   UNL     1       5.469   4.769  18.104  0.00  0.00    +0.000 A 
ATOM      2  N   UNL     1       5.463   3.646  18.884  0.00  0.00    +0.000 NA
ATOM      3  C   UNL     1       4.374   3.404  19.643  0.00  0.00    +0.000 A 
ATOM      4  C   UNL     1       3.284   4.255  19.713  0.00  0.00    +0.000 A 
ATOM      5  C   UNL     1       3.326   5.424  18.940  0.00  0.00    +0.000 A 
ATOM      6  C   UNL     1       4.426   5.692  18.117  0.00  0.00    +0.000 A 
ATOM      7 CL   UNL     1       4.369   7.124  17.162  0.00  0.00    +0.000 Cl
ENDROOT
BRANCH   4   8
ATOM      8  C   UNL     1       2.115   3.926  20.588  0.00  0.00    +0.000 C 
ATOM      9  F   UNL     1       2.292   4.283  21.889  0.00  0.00    +0.000 F 
ATOM     10  F   UNL     1       0.975   4.548  20.182  0.00  0.00    +0.000 F 
ATOM     11  F   UNL     1       1.834   2.595  20.602  0.00  0.00    +0.000 F 
ENDBRANCH   4   8
BRANCH   1  13
ATOM     12  O   UNL     1       7.777   5.275  17.849  0.00  0.00    +0.000 OA
ATOM     13  C   UNL     1       6.715   4.966  17.311  0.00  0.00    +0.000 C 
BRANCH  13  14
ATOM     14  C   UNL     1       6.685   4.697  15.849  0.00  0.00    +0.000 A 
ATOM     15  C   UNL     1       5.720   3.832  15.344  0.00  0.00    +0.000 A 
ATOM     16  C   UNL     1       5.660   3.640  13.968  0.00  0.00    +0.000 A 
ATOM     17  C   UNL     1       6.568   4.304  13.148  0.00  0.00    +0.000 A 
ATOM     18  C   UNL     1       7.518   5.120  13.742  0.00  0.00    +0.000 A 
ATOM     19  N   UNL     1       7.610   5.321  15.075  0.00  0.00    +0.000 NA
ENDBRANCH  13  14
ENDBRANCH   1  13
TORSDOF 3
ENDMDL
MODEL 5
REMARK VINA RESULT:      -7.3      2.710      3.576
REMARK  Name = 
REMARK  3 active torsions:
REMARK  status: ('A' for Active; 'I' for Inactive)
REMARK    1  A    between atoms: C_2  and  C_3
REMARK    2  A    between atoms: C_2  and  C_9
REMARK    3  A    between atoms: C_12  and  C_13
REMARK                            x       y       z     vdW  Elec       q    Type
REMARK                         _______ _______ _______ _____ _____    ______ ____
ROOT
ATOM      1  C   UNL     1       5.605   4.595  16.727  0.00  0.00    +0.000 A 
ATOM      2  N   UNL     1       4.984   3.382  16.840  0.00  0.00    +0.000 NA
ATOM      3  C   UNL     1       3.752   3.346  17.388  0.00  0.00    +0.000 A 
ATOM      4  C   UNL     1       3.101   4.462  17.886  0.00  0.00    +0.000 A 
ATOM      5  C   UNL     1       3.770   5.692  17.802  0.00  0.00    +0.000 A 
ATOM      6  C   UNL     1       5.036   5.772  17.212  0.00  0.00    +0.000 A 
ATOM      7 CL   UNL     1       5.761   7.331  17.102  0.00  0.00    +0.000 Cl
ENDROOT
BRANCH   4   8
ATOM      8  C   UNL     1       1.737   4.343  18.492  0.00  0.00    +0.000 C 
ATOM      9  F   UNL     1       1.580   3.233  19.262  0.00  0.00    +0.000 F 
ATOM     10  F   UNL     1       1.434   5.401  19.293  0.00  0.00    +0.000 F 
ATOM     11  F   UNL     1       0.755   4.288  17.552  0.00  0.00    +0.000 F 
ENDBRANCH   4   8
BRANCH   1  13
ATOM     12  O   UNL     1       7.970   4.393  16.822  0.00  0.00    +0.000 OA
ATOM     13  C   UNL     1       6.967   4.542  16.127  0.00  0.00    +0.000 C 
BRANCH  13  14
ATOM     14  C   UNL     1       7.100   4.582  14.646  0.00  0.00    +0.000 A 
ATOM     15  C   UNL     1       6.315   3.729  13.876  0.00  0.00    +0.000 A 
ATOM     16  C   UNL     1       6.401   3.823  12.491  0.00  0.00    +0.000 A 
ATOM     17  C   UNL     1       7.271   4.750  11.924  0.00  0.00    +0.000 A 
ATOM     18  C   UNL     1       8.040   5.535  12.770  0.00  0.00    +0.000 A 
ATOM     19  N   UNL     1       7.988   5.463  14.117  0.00  0.00    +0.000 NA
ENDBRANCH  13  14
ENDBRANCH   1  13
TORSDOF 3
ENDMDL
MODEL 6
REMARK VINA RESULT:      -7.3      1.785      2.851
REMARK  Name = 
REMARK  3 active torsions:
REMARK  status: ('A' for Active; 'I' for Inactive)
REMARK    1  A    between atoms: C_2  and  C_3
REMARK    2  A    between atoms: C_2  and  C_9
REMARK    3  A    between atoms: C_12  and  C_13
REMARK                            x       y       z     vdW  Elec       q    Type
REMARK                         _______ _______ _______ _____ _____    ______ ____
ROOT
ATOM      1  C   UNL     1       4.499   5.040  17.762  0.00  0.00    +0.000 A 
ATOM      2  N   UNL     1       4.575   3.731  18.146  0.00  0.00    +0.000 NA
ATOM      3  C   UNL     1       3.499   3.179  18.746  0.00  0.00    +0.000 A 
ATOM      4  C   UNL     1       2.342   3.880  19.038  0.00  0.00    +0.000 A 
ATOM      5  C   UNL     1       2.297   5.234  18.676  0.00  0.00    +0.000 A 
ATOM      6  C   UNL     1       3.382   5.831  18.025  0.00  0.00    +0.000 A 
ATOM      7 CL   UNL     1       3.219   7.484  17.569  0.00  0.00    +0.000 Cl
ENDROOT
BRANCH   4   8
ATOM      8  C   UNL     1       1.192   3.204  19.717  0.00  0.00    +0.000 C 
ATOM      9  F   UNL     1       1.572   2.319  20.679  0.00  0.00    +0.000 F 
ATOM     10  F   UNL     1       0.361   4.090  20.331  0.00  0.00    +0.000 F 
ATOM     11  F   UNL     1       0.417   2.500  18.849  0.00  0.00    +0.000 F 
ENDBRANCH   4   8
BRANCH   1  13
ATOM     12  O   UNL     1       6.490   6.335  17.721  0.00  0.00    +0.000 OA
ATOM     13  C   UNL     1       5.735   5.572  17.122  0.00  0.00    +0.000 C 
BRANCH  13  14
ATOM     14  C   UNL     1       6.100   5.096  15.762  0.00  0.00    +0.000 A 
ATOM     15  C   UNL     1       5.179   4.341  15.043  0.00  0.00    +0.000 A 
ATOM     16  C   UNL     1       5.507   3.957  13.747  0.00  0.00    +0.000 A 
ATOM     17  C   UNL     1       6.741   4.327  13.219  0.00  0.00    +0.000 A 
ATOM     18  C   UNL     1       7.610   5.050  14.022  0.00  0.00    +0.000 A 
ATOM     19  N   UNL     1       7.328   5.430  15.286  0.00  0.00    +0.000 NA
ENDBRANCH  13  14
ENDBRANCH   1  13
TORSDOF 3
ENDMDL
MODEL 7
REMARK VINA RESULT:      -7.3      4.238      6.530
REMARK  Name = 
REMARK  3 active torsions:
REMARK  status: ('A' for Active; 'I' for Inactive)
REMARK    1  A    between atoms: C_2  and  C_3
REMARK    2  A    between atoms: C_2  and  C_9
REMARK    3  A    between atoms: C_12  and  C_13
REMARK                            x       y       z     vdW  Elec       q    Type
REMARK                         _______ _______ _______ _____ _____    ______ ____
ROOT
ATOM      1  C   UNL     1       5.272   4.153  19.021  0.00  0.00    +0.000 A 
ATOM      2  N   UNL     1       6.233   4.678  19.839  0.00  0.00    +0.000 NA
ATOM      3  C   UNL     1       6.943   5.734  19.391  0.00  0.00    +0.000 A 
ATOM      4  C   UNL     1       6.785   6.285  18.131  0.00  0.00    +0.000 A 
ATOM      5  C   UNL     1       5.825   5.707  17.288  0.00  0.00    +0.000 A 
ATOM      6  C   UNL     1       5.049   4.630  17.731  0.00  0.00    +0.000 A 
ATOM      7 CL   UNL     1       3.855   4.018  16.649  0.00  0.00    +0.000 Cl
ENDROOT
BRANCH   4   8
ATOM      8  C   UNL     1       7.619   7.451  17.698  0.00  0.00    +0.000 C 
ATOM      9  F   UNL     1       8.182   7.290  16.470  0.00  0.00    +0.000 F 
ATOM     10  F   UNL     1       6.900   8.604  17.632  0.00  0.00    +0.000 F 
ATOM     11  F   UNL     1       8.649   7.698  18.552  0.00  0.00    +0.000 F 
ENDBRANCH   4   8
BRANCH   1  13
ATOM     12  O   UNL     1       5.151   2.018  20.054  0.00  0.00    +0.000 OA
ATOM     13  C   UNL     1       4.547   2.981  19.587  0.00  0.00    +0.000 C 
BRANCH  13  14
ATOM     14  C   UNL     1       3.063   3.025  19.664  0.00  0.00    +0.000 A 
ATOM     15  C   UNL     1       2.457   4.022  20.422  0.00  0.00    +0.000 A 
ATOM     16  C   UNL     1       1.068   4.091  20.433  0.00  0.00    +0.000 A 
ATOM     17  C   UNL     1       0.334   3.161  19.702  0.00  0.00    +0.000 A 
ATOM     18  C   UNL     1       1.022   2.181  19.004  0.00  0.00    +0.000 A 
ATOM     19  N   UNL     1       2.369   2.079  18.979  0.00  0.00    +0.000 NA
ENDBRANCH  13  14
ENDBRANCH   1  13
TORSDOF 3
ENDMDL
MODEL 8
REMARK VINA RESULT:      -7.2      2.214      3.109
REMARK  Name = 
REMARK  3 active torsions:
REMARK  status: ('A' for Active; 'I' for Inactive)
REMARK    1  A    between atoms: C_2  and  C_3
REMARK    2  A    between atoms: C_2  and  C_9
REMARK    3  A    between atoms: C_12  and  C_13
REMARK                            x       y       z     vdW  Elec       q    Type
REMARK                         _______ _______ _______ _____ _____    ______ ____
ROOT
ATOM      1  C   UNL     1       4.996   4.387  18.590  0.00  0.00    +0.000 A 
ATOM      2  N   UNL     1       4.859   3.245  19.329  0.00  0.00    +0.000 NA
ATOM      3  C   UNL     1       3.686   3.034  19.962  0.00  0.00    +0.000 A 
ATOM      4  C   UNL     1       2.633   3.931  19.945  0.00  0.00    +0.000 A 
ATOM      5  C   UNL     1       2.806   5.118  19.218  0.00  0.00    +0.000 A 
ATOM      6  C   UNL     1       3.998   5.357  18.524  0.00  0.00    +0.000 A 
ATOM      7 CL   UNL     1       4.103   6.815  17.613  0.00  0.00    +0.000 Cl
ENDROOT
BRANCH   4   8
ATOM      8  C   UNL     1       1.364   3.634  20.683  0.00  0.00    +0.000 C 
ATOM      9  F   UNL     1       1.565   3.219  21.963  0.00  0.00    +0.000 F 
ATOM     10  F   UNL     1       0.547   4.719  20.763  0.00  0.00    +0.000 F 
ATOM     11  F   UNL     1       0.633   2.655  20.084  0.00  0.00    +0.000 F 
ENDBRANCH   4   8
BRANCH   1  13
ATOM     12  O   UNL     1       7.358   4.639  18.600  0.00  0.00    +0.000 OA
ATOM     13  C   UNL     1       6.326   4.548  17.939  0.00  0.00    +0.000 C 
BRANCH  13  14
ATOM     14  C   UNL     1       6.406   4.509  16.454  0.00  0.00    +0.000 A 
ATOM     15  C   UNL     1       7.313   5.342  15.807  0.00  0.00    +0.000 A 
ATOM     16  C   UNL     1       7.425   5.249  14.424  0.00  0.00    +0.000 A 
ATOM     17  C   UNL     1       6.625   4.342  13.735  0.00  0.00    +0.000 A 
ATOM     18  C   UNL     1       5.724   3.576  14.460  0.00  0.00    +0.000 A 
ATOM     19  N   UNL     1       5.583   3.648  15.801  0.00  0.00    +0.000 NA
ENDBRANCH  13  14
ENDBRANCH   1  13
TORSDOF 3
ENDMDL
MODEL 9
REMARK VINA RESULT:      -7.2      2.424      3.269
REMARK  Name = 
REMARK  3 active torsions:
REMARK  status: ('A' for Active; 'I' for Inactive)
REMARK    1  A    between atoms: C_2  and  C_3
REMARK    2  A    between atoms: C_2  and  C_9
REMARK    3  A    between atoms: C_12  and  C_13
REMARK                            x       y       z     vdW  Elec       q    Type
REMARK                         _______ _______ _______ _____ _____    ______ ____
ROOT
ATOM      1  C   UNL     1       5.279   4.771  16.815  0.00  0.00    +0.000 A 
ATOM      2  N   UNL     1       5.123   3.447  17.119  0.00  0.00    +0.000 NA
ATOM      3  C   UNL     1       3.977   3.063  17.720  0.00  0.00    +0.000 A 
ATOM      4  C   UNL     1       2.974   3.942  18.089  0.00  0.00    +0.000 A 
ATOM      5  C   UNL     1       3.169   5.302  17.809  0.00  0.00    +0.000 A 
ATOM      6  C   UNL     1       4.331   5.732  17.159  0.00  0.00    +0.000 A 
ATOM      7 CL   UNL     1       4.463   7.414  16.806  0.00  0.00    +0.000 Cl
ENDROOT
BRANCH   4   8
ATOM      8  C   UNL     1       1.734   3.443  18.765  0.00  0.00    +0.000 C 
ATOM      9  F   UNL     1       0.661   3.351  17.932  0.00  0.00    +0.000 F 
ATOM     10  F   UNL     1       1.900   2.204  19.300  0.00  0.00    +0.000 F 
ATOM     11  F   UNL     1       1.342   4.247  19.789  0.00  0.00    +0.000 F 
ENDBRANCH   4   8
BRANCH   1  13
ATOM     12  O   UNL     1       7.509   5.590  16.811  0.00  0.00    +0.000 OA
ATOM     13  C   UNL     1       6.578   5.110  16.168  0.00  0.00    +0.000 C 
BRANCH  13  14
ATOM     14  C   UNL     1       6.773   4.775  14.732  0.00  0.00    +0.000 A 
ATOM     15  C   UNL     1       5.928   3.843  14.138  0.00  0.00    +0.000 A 
ATOM     16  C   UNL     1       6.079   3.588  12.779  0.00  0.00    +0.000 A 
ATOM     17  C   UNL     1       7.069   4.258  12.066  0.00  0.00    +0.000 A 
ATOM     18  C   UNL     1       7.887   5.144  12.749  0.00  0.00    +0.000 A 
ATOM     19  N   UNL     1       7.775   5.408  14.069  0.00  0.00    +0.000 NA
ENDBRANCH  13  14
ENDBRANCH   1  13
TORSDOF 3
ENDMDL
