MODEL 1
REMARK VINA RESULT:      -8.9      0.000      0.000
REMARK  Name = 
REMARK  9 active torsions:
REMARK  status: ('A' for Active; 'I' for Inactive)
REMARK    1  A    between atoms: C_1  and  C_2
REMARK    2  A    between atoms: C_2  and  C_3
REMARK    3  A    between atoms: N_5  and  C_6
REMARK    4  A    between atoms: C_6  and  C_7
REMARK    5  A    between atoms: C_7  and  C_8
REMARK    6  A    between atoms: C_8  and  N_9
REMARK    7  A    between atoms: N_9  and  C_10
REMARK    8  A    between atoms: C_13  and  C_14
REMARK    9  A    between atoms: C_25  and  C_27
REMARK                            x       y       z     vdW  Elec       q    Type
REMARK                         _______ _______ _______ _____ _____    ______ ____
ROOT
ATOM      1  C   UNL     1       6.699   6.607  16.904  0.00  0.00    +0.000 C 
ATOM      2  O   UNL     1       5.987   7.193  16.085  0.00  0.00    +0.000 OA
ATOM      3  N   UNL     1       7.603   7.279  17.707  0.00  0.00    +0.000 N 
ATOM      4  H   UNL     1       8.075   6.736  18.416  0.00  0.00    +0.000 HD
ENDROOT
BRANCH   1   6
ATOM      5  C   UNL     1       7.848   4.550  17.874  0.00  0.00    +0.000 C 
ATOM      6  C   UNL     1       6.601   5.065  17.148  0.00  0.00    +0.000 C 
ATOM      7  C   UNL     1       6.541   4.407  15.783  0.00  0.00    +0.000 C 
ATOM      8  C   UNL     1       5.376   3.793  15.567  0.00  0.00    +0.000 C 
ATOM      9  C   UNL     1       4.464   3.967  16.721  0.00  0.00    +0.000 C 
ATOM     10  N   UNL     1       5.298   4.626  17.721  0.00  0.00    +0.000 N 
ATOM     11  C   UNL     1       5.019   4.760  19.079  0.00  0.00    +0.000 C 
ATOM     12  O   UNL     1       5.822   5.261  19.862  0.00  0.00    +0.000 OA
BRANCH  11  13
ATOM     13  C   UNL     1       3.704   4.327  19.647  0.00  0.00    +0.000 A 
ATOM     14  C   UNL     1       2.740   5.317  19.908  0.00  0.00    +0.000 A 
ATOM     15  C   UNL     1       1.481   4.967  20.408  0.00  0.00    +0.000 A 
ATOM     16  C   UNL     1       1.175   3.636  20.662  0.00  0.00    +0.000 A 
ATOM     17  C   UNL     1       2.107   2.646  20.381  0.00  0.00    +0.000 A 
ATOM     18  C   UNL     1       3.352   2.987  19.844  0.00  0.00    +0.000 A 
ENDBRANCH  11  13
ENDBRANCH   1   6
BRANCH   3  19
ATOM     19  C   UNL     1       7.757   8.718  17.676  0.00  0.00    +0.000 C 
BRANCH  19  20
ATOM     20  C   UNL     1       8.762   9.231  18.707  0.00  0.00    +0.000 C 
BRANCH  20  21
ATOM     21  C   UNL     1       9.334  10.586  18.300  0.00  0.00    +0.000 C 
BRANCH  21  22
ATOM     22  N   UNL     1       9.308  11.519  19.432  0.00  0.00    +0.000 N 
ATOM     23  H   UNL     1       9.797  11.167  20.253  0.00  0.00    +0.000 HD
BRANCH  22  24
ATOM     24  C   UNL     1       9.846  12.786  19.107  0.00  0.00    +0.000 A 
ATOM     25  N   UNL     1       9.008  13.743  18.639  0.00  0.00    +0.000 NA
ATOM     26  C   UNL     1       9.500  14.957  18.322  0.00  0.00    +0.000 A 
ATOM     27  C   UNL     1      10.830  15.309  18.470  0.00  0.00    +0.000 A 
ATOM     28  C   UNL     1      11.695  14.339  18.978  0.00  0.00    +0.000 A 
ATOM     29  C   UNL     1      11.205  13.067  19.297  0.00  0.00    +0.000 A 
ATOM     30 CL   UNL     1      12.310  11.881  19.895  0.00  0.00    +0.000 Cl
BRANCH  27  31
ATOM     31  C   UNL     1      11.296  16.679  18.093  0.00  0.00    +0.000 C 
ATOM     32  F   UNL     1      12.106  17.257  19.021  0.00  0.00    +0.000 F 
ATOM     33  F   UNL     1      12.000  16.688  16.927  0.00  0.00    +0.000 F 
ATOM     34  F   UNL     1      10.262  17.545  17.910  0.00  0.00    +0.000 F 
ENDBRANCH  27  31
ENDBRANCH  22  24
ENDBRANCH  21  22
ENDBRANCH  20  21
ENDBRANCH  19  20
ENDBRANCH   3  19
TORSDOF 8
ENDMDL
MODEL 2
REMARK VINA RESULT:      -8.7      1.186      1.540
REMARK  Name = 
REMARK  9 active torsions:
REMARK  status: ('A' for Active; 'I' for Inactive)
REMARK    1  A    between atoms: C_1  and  C_2
REMARK    2  A    between atoms: C_2  and  C_3
REMARK    3  A    between atoms: N_5  and  C_6
REMARK    4  A    between atoms: C_6  and  C_7
REMARK    5  A    between atoms: C_7  and  C_8
REMARK    6  A    between atoms: C_8  and  N_9
REMARK    7  A    between atoms: N_9  and  C_10
REMARK    8  A    between atoms: C_13  and  C_14
REMARK    9  A    between atoms: C_25  and  C_27
REMARK                            x       y       z     vdW  Elec       q    Type
REMARK                         _______ _______ _______ _____ _____    ______ ____
ROOT
ATOM      1  C   UNL     1       6.709   6.684  16.913  0.00  0.00    +0.000 C 
ATOM      2  O   UNL     1       5.842   7.259  16.251  0.00  0.00    +0.000 OA
ATOM      3  N   UNL     1       7.660   7.378  17.640  0.00  0.00    +0.000 N 
ATOM      4  H   UNL     1       8.272   6.830  18.229  0.00  0.00    +0.000 HD
ENDROOT
BRANCH   1   6
ATOM      5  C   UNL     1       7.824   4.706  18.070  0.00  0.00    +0.000 C 
ATOM      6  C   UNL     1       6.776   5.126  17.033  0.00  0.00    +0.000 C 
ATOM      7  C   UNL     1       7.208   4.597  15.680  0.00  0.00    +0.000 C 
ATOM      8  C   UNL     1       6.258   3.864  15.095  0.00  0.00    +0.000 C 
ATOM      9  C   UNL     1       5.038   3.813  15.933  0.00  0.00    +0.000 C 
ATOM     10  N   UNL     1       5.443   4.474  17.169  0.00  0.00    +0.000 N 
ATOM     11  C   UNL     1       4.769   4.443  18.388  0.00  0.00    +0.000 C 
ATOM     12  O   UNL     1       5.230   4.964  19.400  0.00  0.00    +0.000 OA
BRANCH  11  13
ATOM     13  C   UNL     1       3.426   3.796  18.515  0.00  0.00    +0.000 A 
ATOM     14  C   UNL     1       3.354   2.545  19.155  0.00  0.00    +0.000 A 
ATOM     15  C   UNL     1       2.121   1.909  19.333  0.00  0.00    +0.000 A 
ATOM     16  C   UNL     1       0.954   2.504  18.867  0.00  0.00    +0.000 A 
ATOM     17  C   UNL     1       1.008   3.751  18.260  0.00  0.00    +0.000 A 
ATOM     18  C   UNL     1       2.233   4.409  18.116  0.00  0.00    +0.000 A 
ENDBRANCH  11  13
ENDBRANCH   1   6
BRANCH   3  19
ATOM     19  C   UNL     1       7.688   8.823  17.712  0.00  0.00    +0.000 C 
BRANCH  19  20
ATOM     20  C   UNL     1       8.782   9.351  18.641  0.00  0.00    +0.000 C 
BRANCH  20  21
ATOM     21  C   UNL     1       9.279  10.721  18.192  0.00  0.00    +0.000 C 
BRANCH  21  22
ATOM     22  N   UNL     1       9.953  11.414  19.295  0.00  0.00    +0.000 N 
ATOM     23  H   UNL     1      10.809  10.952  19.596  0.00  0.00    +0.000 HD
BRANCH  22  24
ATOM     24  C   UNL     1      10.262  12.759  18.987  0.00  0.00    +0.000 A 
ATOM     25  N   UNL     1      10.544  13.081  17.701  0.00  0.00    +0.000 NA
ATOM     26  C   UNL     1      10.842  14.357  17.387  0.00  0.00    +0.000 A 
ATOM     27  C   UNL     1      10.854  15.391  18.306  0.00  0.00    +0.000 A 
ATOM     28  C   UNL     1      10.537  15.075  19.628  0.00  0.00    +0.000 A 
ATOM     29  C   UNL     1      10.241  13.752  19.976  0.00  0.00    +0.000 A 
ATOM     30 CL   UNL     1       9.883  13.392  21.628  0.00  0.00    +0.000 Cl
BRANCH  27  31
ATOM     31  C   UNL     1      11.198  16.781  17.876  0.00  0.00    +0.000 C 
ATOM     32  F   UNL     1      12.333  16.859  17.129  0.00  0.00    +0.000 F 
ATOM     33  F   UNL     1      10.217  17.352  17.124  0.00  0.00    +0.000 F 
ATOM     34  F   UNL     1      11.390  17.617  18.933  0.00  0.00    +0.000 F 
ENDBRANCH  27  31
ENDBRANCH  22  24
ENDBRANCH  21  22
ENDBRANCH  20  21
ENDBRANCH  19  20
ENDBRANCH   3  19
TORSDOF 8
ENDMDL
MODEL 3
REMARK VINA RESULT:      -8.4      6.044     11.928
REMARK  Name = 
REMARK  9 active torsions:
REMARK  status: ('A' for Active; 'I' for Inactive)
REMARK    1  A    between atoms: C_1  and  C_2
REMARK    2  A    between atoms: C_2  and  C_3
REMARK    3  A    between atoms: N_5  and  C_6
REMARK    4  A    between atoms: C_6  and  C_7
REMARK    5  A    between atoms: C_7  and  C_8
REMARK    6  A    between atoms: C_8  and  N_9
REMARK    7  A    between atoms: N_9  and  C_10
REMARK    8  A    between atoms: C_13  and  C_14
REMARK    9  A    between atoms: C_25  and  C_27
REMARK                            x       y       z     vdW  Elec       q    Type
REMARK                         _______ _______ _______ _____ _____    ______ ____
ROOT
ATOM      1  C   UNL     1       9.146  11.347  18.322  0.00  0.00    +0.000 C 
ATOM      2  O   UNL     1       8.399  11.981  17.574  0.00  0.00    +0.000 OA
ATOM      3  N   UNL     1       8.993   9.989  18.536  0.00  0.00    +0.000 N 
ATOM      4  H   UNL     1       9.706   9.531  19.086  0.00  0.00    +0.000 HD
ENDROOT
BRANCH   1   6
ATOM      5  C   UNL     1      11.685  11.481  18.482  0.00  0.00    +0.000 C 
ATOM      6  C   UNL     1      10.363  12.009  19.049  0.00  0.00    +0.000 C 
ATOM      7  C   UNL     1      10.277  11.607  20.508  0.00  0.00    +0.000 C 
ATOM      8  C   UNL     1      10.059  12.652  21.309  0.00  0.00    +0.000 C 
ATOM      9  C   UNL     1       9.930  13.902  20.526  0.00  0.00    +0.000 C 
ATOM     10  N   UNL     1      10.262  13.490  19.166  0.00  0.00    +0.000 N 
ATOM     11  C   UNL     1      10.569  14.328  18.097  0.00  0.00    +0.000 C 
ATOM     12  O   UNL     1      10.918  13.887  17.004  0.00  0.00    +0.000 OA
BRANCH  11  13
ATOM     13  C   UNL     1      10.456  15.815  18.218  0.00  0.00    +0.000 A 
ATOM     14  C   UNL     1       9.255  16.421  17.807  0.00  0.00    +0.000 A 
ATOM     15  C   UNL     1       9.080  17.804  17.929  0.00  0.00    +0.000 A 
ATOM     16  C   UNL     1      10.099  18.594  18.447  0.00  0.00    +0.000 A 
ATOM     17  C   UNL     1      11.278  18.005  18.882  0.00  0.00    +0.000 A 
ATOM     18  C   UNL     1      11.442  16.619  18.799  0.00  0.00    +0.000 A 
ENDBRANCH  11  13
ENDBRANCH   1   6
BRANCH   3  19
ATOM     19  C   UNL     1       7.974   9.203  17.873  0.00  0.00    +0.000 C 
BRANCH  19  20
ATOM     20  C   UNL     1       8.038   7.719  18.235  0.00  0.00    +0.000 C 
BRANCH  20  21
ATOM     21  C   UNL     1       7.300   6.864  17.210  0.00  0.00    +0.000 C 
BRANCH  21  22
ATOM     22  N   UNL     1       7.540   5.438  17.457  0.00  0.00    +0.000 N 
ATOM     23  H   UNL     1       8.153   5.266  18.251  0.00  0.00    +0.000 HD
BRANCH  22  24
ATOM     24  C   UNL     1       6.344   4.710  17.656  0.00  0.00    +0.000 A 
ATOM     25  N   UNL     1       6.061   4.259  18.902  0.00  0.00    +0.000 NA
ATOM     26  C   UNL     1       4.926   3.561  19.112  0.00  0.00    +0.000 A 
ATOM     27  C   UNL     1       3.997   3.291  18.124  0.00  0.00    +0.000 A 
ATOM     28  C   UNL     1       4.266   3.777  16.844  0.00  0.00    +0.000 A 
ATOM     29  C   UNL     1       5.447   4.488  16.602  0.00  0.00    +0.000 A 
ATOM     30 CL   UNL     1       5.762   5.048  14.998  0.00  0.00    +0.000 Cl
BRANCH  27  31
ATOM     31  C   UNL     1       2.763   2.508  18.440  0.00  0.00    +0.000 C 
ATOM     32  F   UNL     1       2.999   1.383  19.168  0.00  0.00    +0.000 F 
ATOM     33  F   UNL     1       1.856   3.230  19.153  0.00  0.00    +0.000 F 
ATOM     34  F   UNL     1       2.111   2.095  17.318  0.00  0.00    +0.000 F 
ENDBRANCH  27  31
ENDBRANCH  22  24
ENDBRANCH  21  22
ENDBRANCH  20  21
ENDBRANCH  19  20
ENDBRANCH   3  19
TORSDOF 8
ENDMDL
MODEL 4
REMARK VINA RESULT:      -8.4      1.503      1.776
REMARK  Name = 
REMARK  9 active torsions:
REMARK  status: ('A' for Active; 'I' for Inactive)
REMARK    1  A    between atoms: C_1  and  C_2
REMARK    2  A    between atoms: C_2  and  C_3
REMARK    3  A    between atoms: N_5  and  C_6
REMARK    4  A    between atoms: C_6  and  C_7
REMARK    5  A    between atoms: C_7  and  C_8
REMARK    6  A    between atoms: C_8  and  N_9
REMARK    7  A    between atoms: N_9  and  C_10
REMARK    8  A    between atoms: C_13  and  C_14
REMARK    9  A    between atoms: C_25  and  C_27
REMARK                            x       y       z     vdW  Elec       q    Type
REMARK                         _______ _______ _______ _____ _____    ______ ____
ROOT
ATOM      1  C   UNL     1       6.747   6.715  17.038  0.00  0.00    +0.000 C 
ATOM      2  O   UNL     1       5.890   7.313  16.385  0.00  0.00    +0.000 OA
ATOM      3  N   UNL     1       7.783   7.376  17.673  0.00  0.00    +0.000 N 
ATOM      4  H   UNL     1       8.384   6.820  18.266  0.00  0.00    +0.000 HD
ENDROOT
BRANCH   1   6
ATOM      5  C   UNL     1       7.935   4.695  18.041  0.00  0.00    +0.000 C 
ATOM      6  C   UNL     1       6.707   5.165  17.253  0.00  0.00    +0.000 C 
ATOM      7  C   UNL     1       6.753   4.529  15.878  0.00  0.00    +0.000 C 
ATOM      8  C   UNL     1       5.630   3.867  15.589  0.00  0.00    +0.000 C 
ATOM      9  C   UNL     1       4.650   3.980  16.692  0.00  0.00    +0.000 C 
ATOM     10  N   UNL     1       5.396   4.659  17.746  0.00  0.00    +0.000 N 
ATOM     11  C   UNL     1       5.036   4.757  19.088  0.00  0.00    +0.000 C 
ATOM     12  O   UNL     1       5.771   5.279  19.923  0.00  0.00    +0.000 OA
BRANCH  11  13
ATOM     13  C   UNL     1       3.713   4.255  19.576  0.00  0.00    +0.000 A 
ATOM     14  C   UNL     1       2.735   5.205  19.920  0.00  0.00    +0.000 A 
ATOM     15  C   UNL     1       1.468   4.794  20.350  0.00  0.00    +0.000 A 
ATOM     16  C   UNL     1       1.169   3.441  20.452  0.00  0.00    +0.000 A 
ATOM     17  C   UNL     1       2.117   2.494  20.087  0.00  0.00    +0.000 A 
ATOM     18  C   UNL     1       3.370   2.900  19.619  0.00  0.00    +0.000 A 
ENDBRANCH  11  13
ENDBRANCH   1   6
BRANCH   3  19
ATOM     19  C   UNL     1       7.919   8.817  17.653  0.00  0.00    +0.000 C 
BRANCH  19  20
ATOM     20  C   UNL     1       8.756   9.351  18.815  0.00  0.00    +0.000 C 
BRANCH  20  21
ATOM     21  C   UNL     1       9.704  10.455  18.357  0.00  0.00    +0.000 C 
BRANCH  21  22
ATOM     22  N   UNL     1       8.971  11.704  18.125  0.00  0.00    +0.000 N 
ATOM     23  H   UNL     1       7.971  11.620  18.298  0.00  0.00    +0.000 HD
BRANCH  22  24
ATOM     24  C   UNL     1       9.464  12.778  18.902  0.00  0.00    +0.000 A 
ATOM     25  N   UNL     1       8.995  12.933  20.164  0.00  0.00    +0.000 NA
ATOM     26  C   UNL     1       9.451  13.952  20.920  0.00  0.00    +0.000 A 
ATOM     27  C   UNL     1      10.408  14.855  20.494  0.00  0.00    +0.000 A 
ATOM     28  C   UNL     1      10.919  14.686  19.206  0.00  0.00    +0.000 A 
ATOM     29  C   UNL     1      10.445  13.645  18.400  0.00  0.00    +0.000 A 
ATOM     30 CL   UNL     1      11.077  13.483  16.800  0.00  0.00    +0.000 Cl
BRANCH  27  31
ATOM     31  C   UNL     1      10.860  15.960  21.395  0.00  0.00    +0.000 C 
ATOM     32  F   UNL     1      12.155  16.331  21.201  0.00  0.00    +0.000 F 
ATOM     33  F   UNL     1      10.121  17.092  21.244  0.00  0.00    +0.000 F 
ATOM     34  F   UNL     1      10.764  15.625  22.711  0.00  0.00    +0.000 F 
ENDBRANCH  27  31
ENDBRANCH  22  24
ENDBRANCH  21  22
ENDBRANCH  20  21
ENDBRANCH  19  20
ENDBRANCH   3  19
TORSDOF 8
ENDMDL
MODEL 5
REMARK VINA RESULT:      -8.3      6.063     11.744
REMARK  Name = 
REMARK  9 active torsions:
REMARK  status: ('A' for Active; 'I' for Inactive)
REMARK    1  A    between atoms: C_1  and  C_2
REMARK    2  A    between atoms: C_2  and  C_3
REMARK    3  A    between atoms: N_5  and  C_6
REMARK    4  A    between atoms: C_6  and  C_7
REMARK    5  A    between atoms: C_7  and  C_8
REMARK    6  A    between atoms: C_8  and  N_9
REMARK    7  A    between atoms: N_9  and  C_10
REMARK    8  A    between atoms: C_13  and  C_14
REMARK    9  A    between atoms: C_25  and  C_27
REMARK                            x       y       z     vdW  Elec       q    Type
REMARK                         _______ _______ _______ _____ _____    ______ ____
ROOT
ATOM      1  C   UNL     1       9.025  11.252  18.357  0.00  0.00    +0.000 C 
ATOM      2  O   UNL     1       8.287  11.858  17.577  0.00  0.00    +0.000 OA
ATOM      3  N   UNL     1       8.929   9.885  18.548  0.00  0.00    +0.000 N 
ATOM      4  H   UNL     1       9.635   9.456  19.131  0.00  0.00    +0.000 HD
ENDROOT
BRANCH   1   6
ATOM      5  C   UNL     1      11.542  11.528  18.638  0.00  0.00    +0.000 C 
ATOM      6  C   UNL     1      10.167  11.964  19.155  0.00  0.00    +0.000 C 
ATOM      7  C   UNL     1      10.039  11.520  20.599  0.00  0.00    +0.000 C 
ATOM      8  C   UNL     1       9.724  12.530  21.413  0.00  0.00    +0.000 C 
ATOM      9  C   UNL     1       9.557  13.790  20.654  0.00  0.00    +0.000 C 
ATOM     10  N   UNL     1       9.974  13.434  19.302  0.00  0.00    +0.000 N 
ATOM     11  C   UNL     1      10.279  14.315  18.267  0.00  0.00    +0.000 C 
ATOM     12  O   UNL     1      10.702  13.924  17.182  0.00  0.00    +0.000 OA
BRANCH  11  13
ATOM     13  C   UNL     1      10.073  15.790  18.417  0.00  0.00    +0.000 A 
ATOM     14  C   UNL     1       8.795  16.308  18.143  0.00  0.00    +0.000 A 
ATOM     15  C   UNL     1       8.535  17.675  18.299  0.00  0.00    +0.000 A 
ATOM     16  C   UNL     1       9.544  18.534  18.716  0.00  0.00    +0.000 A 
ATOM     17  C   UNL     1      10.802  18.031  19.018  0.00  0.00    +0.000 A 
ATOM     18  C   UNL     1      11.055  16.660  18.902  0.00  0.00    +0.000 A 
ENDBRANCH  11  13
ENDBRANCH   1   6
BRANCH   3  19
ATOM     19  C   UNL     1       7.988   9.058  17.823  0.00  0.00    +0.000 C 
BRANCH  19  20
ATOM     20  C   UNL     1       8.061   7.585  18.222  0.00  0.00    +0.000 C 
BRANCH  20  21
ATOM     21  C   UNL     1       7.236   6.712  17.281  0.00  0.00    +0.000 C 
BRANCH  21  22
ATOM     22  N   UNL     1       5.848   7.183  17.224  0.00  0.00    +0.000 N 
ATOM     23  H   UNL     1       5.610   7.622  16.337  0.00  0.00    +0.000 HD
BRANCH  22  24
ATOM     24  C   UNL     1       4.912   6.152  17.471  0.00  0.00    +0.000 A 
ATOM     25  N   UNL     1       5.334   4.866  17.411  0.00  0.00    +0.000 NA
ATOM     26  C   UNL     1       4.457   3.869  17.642  0.00  0.00    +0.000 A 
ATOM     27  C   UNL     1       3.129   4.075  17.971  0.00  0.00    +0.000 A 
ATOM     28  C   UNL     1       2.692   5.397  18.065  0.00  0.00    +0.000 A 
ATOM     29  C   UNL     1       3.584   6.446  17.811  0.00  0.00    +0.000 A 
ATOM     30 CL   UNL     1       3.001   8.069  17.906  0.00  0.00    +0.000 Cl
BRANCH  27  31
ATOM     31  C   UNL     1       2.220   2.913  18.211  0.00  0.00    +0.000 C 
ATOM     32  F   UNL     1       2.535   1.810  17.478  0.00  0.00    +0.000 F 
ATOM     33  F   UNL     1       2.222   2.509  19.511  0.00  0.00    +0.000 F 
ATOM     34  F   UNL     1       0.924   3.200  17.912  0.00  0.00    +0.000 F 
ENDBRANCH  27  31
ENDBRANCH  22  24
ENDBRANCH  21  22
ENDBRANCH  20  21
ENDBRANCH  19  20
ENDBRANCH   3  19
TORSDOF 8
ENDMDL
MODEL 6
REMARK VINA RESULT:      -8.2      1.167      1.340
REMARK  Name = 
REMARK  9 active torsions:
REMARK  status: ('A' for Active; 'I' for Inactive)
REMARK    1  A    between atoms: C_1  and  C_2
REMARK    2  A    between atoms: C_2  and  C_3
REMARK    3  A    between atoms: N_5  and  C_6
REMARK    4  A    between atoms: C_6  and  C_7
REMARK    5  A    between atoms: C_7  and  C_8
REMARK    6  A    between atoms: C_8  and  N_9
REMARK    7  A    between atoms: N_9  and  C_10
REMARK    8  A    between atoms: C_13  and  C_14
REMARK    9  A    between atoms: C_25  and  C_27
REMARK                            x       y       z     vdW  Elec       q    Type
REMARK                         _______ _______ _______ _____ _____    ______ ____
ROOT
ATOM      1  C   UNL     1       6.329   6.969  17.282  0.00  0.00    +0.000 C 
ATOM      2  O   UNL     1       5.265   7.575  17.141  0.00  0.00    +0.000 OA
ATOM      3  N   UNL     1       7.519   7.624  17.543  0.00  0.00    +0.000 N 
ATOM      4  H   UNL     1       8.324   7.046  17.740  0.00  0.00    +0.000 HD
ENDROOT
BRANCH   1   6
ATOM      5  C   UNL     1       7.651   4.911  17.998  0.00  0.00    +0.000 C 
ATOM      6  C   UNL     1       6.417   5.408  17.236  0.00  0.00    +0.000 C 
ATOM      7  C   UNL     1       6.571   5.018  15.779  0.00  0.00    +0.000 C 
ATOM      8  C   UNL     1       5.523   4.327  15.326  0.00  0.00    +0.000 C 
ATOM      9  C   UNL     1       4.495   4.173  16.381  0.00  0.00    +0.000 C 
ATOM     10  N   UNL     1       5.138   4.722  17.570  0.00  0.00    +0.000 N 
ATOM     11  C   UNL     1       4.721   4.562  18.889  0.00  0.00    +0.000 C 
ATOM     12  O   UNL     1       5.375   4.994  19.835  0.00  0.00    +0.000 OA
BRANCH  11  13
ATOM     13  C   UNL     1       3.430   3.881  19.218  0.00  0.00    +0.000 A 
ATOM     14  C   UNL     1       2.401   4.655  19.784  0.00  0.00    +0.000 A 
ATOM     15  C   UNL     1       1.161   4.079  20.080  0.00  0.00    +0.000 A 
ATOM     16  C   UNL     1       0.939   2.730  19.828  0.00  0.00    +0.000 A 
ATOM     17  C   UNL     1       1.936   1.962  19.243  0.00  0.00    +0.000 A 
ATOM     18  C   UNL     1       3.163   2.542  18.908  0.00  0.00    +0.000 A 
ENDBRANCH  11  13
ENDBRANCH   1   6
BRANCH   3  19
ATOM     19  C   UNL     1       7.602   9.060  17.707  0.00  0.00    +0.000 C 
BRANCH  19  20
ATOM     20  C   UNL     1       9.026   9.548  17.972  0.00  0.00    +0.000 C 
BRANCH  20  21
ATOM     21  C   UNL     1       9.127  10.270  19.312  0.00  0.00    +0.000 C 
BRANCH  21  22
ATOM     22  N   UNL     1      10.448  10.887  19.470  0.00  0.00    +0.000 N 
ATOM     23  H   UNL     1      11.192  10.364  19.012  0.00  0.00    +0.000 HD
BRANCH  22  24
ATOM     24  C   UNL     1      10.488  12.219  18.996  0.00  0.00    +0.000 A 
ATOM     25  N   UNL     1      10.761  12.432  17.686  0.00  0.00    +0.000 NA
ATOM     26  C   UNL     1      10.805  13.695  17.216  0.00  0.00    +0.000 A 
ATOM     27  C   UNL     1      10.559  14.813  17.992  0.00  0.00    +0.000 A 
ATOM     28  C   UNL     1      10.247  14.601  19.336  0.00  0.00    +0.000 A 
ATOM     29  C   UNL     1      10.214  13.298  19.847  0.00  0.00    +0.000 A 
ATOM     30 CL   UNL     1       9.856  13.076  21.522  0.00  0.00    +0.000 Cl
BRANCH  27  31
ATOM     31  C   UNL     1      10.629  16.180  17.392  0.00  0.00    +0.000 C 
ATOM     32  F   UNL     1       9.463  16.877  17.479  0.00  0.00    +0.000 F 
ATOM     33  F   UNL     1      11.574  16.961  17.983  0.00  0.00    +0.000 F 
ATOM     34  F   UNL     1      10.946  16.149  16.069  0.00  0.00    +0.000 F 
ENDBRANCH  27  31
ENDBRANCH  22  24
ENDBRANCH  21  22
ENDBRANCH  20  21
ENDBRANCH  19  20
ENDBRANCH   3  19
TORSDOF 8
ENDMDL
MODEL 7
REMARK VINA RESULT:      -8.2      6.312      8.624
REMARK  Name = 
REMARK  9 active torsions:
REMARK  status: ('A' for Active; 'I' for Inactive)
REMARK    1  A    between atoms: C_1  and  C_2
REMARK    2  A    between atoms: C_2  and  C_3
REMARK    3  A    between atoms: N_5  and  C_6
REMARK    4  A    between atoms: C_6  and  C_7
REMARK    5  A    between atoms: C_7  and  C_8
REMARK    6  A    between atoms: C_8  and  N_9
REMARK    7  A    between atoms: N_9  and  C_10
REMARK    8  A    between atoms: C_13  and  C_14
REMARK    9  A    between atoms: C_25  and  C_27
REMARK                            x       y       z     vdW  Elec       q    Type
REMARK                         _______ _______ _______ _____ _____    ______ ____
ROOT
ATOM      1  C   UNL     1       5.421   5.017  18.775  0.00  0.00    +0.000 C 
ATOM      2  O   UNL     1       6.026   4.081  19.301  0.00  0.00    +0.000 OA
ATOM      3  N   UNL     1       4.074   5.241  18.999  0.00  0.00    +0.000 N 
ATOM      4  H   UNL     1       3.681   6.085  18.606  0.00  0.00    +0.000 HD
ENDROOT
BRANCH   1   6
ATOM      5  C   UNL     1       7.523   6.408  18.402  0.00  0.00    +0.000 C 
ATOM      6  C   UNL     1       6.133   6.064  17.856  0.00  0.00    +0.000 C 
ATOM      7  C   UNL     1       5.287   7.322  17.884  0.00  0.00    +0.000 C 
ATOM      8  C   UNL     1       4.756   7.601  16.692  0.00  0.00    +0.000 C 
ATOM      9  C   UNL     1       5.123   6.571  15.694  0.00  0.00    +0.000 C 
ATOM     10  N   UNL     1       6.079   5.729  16.406  0.00  0.00    +0.000 N 
ATOM     11  C   UNL     1       6.942   4.793  15.843  0.00  0.00    +0.000 C 
ATOM     12  O   UNL     1       7.773   4.186  16.514  0.00  0.00    +0.000 OA
BRANCH  11  13
ATOM     13  C   UNL     1       6.876   4.453  14.387  0.00  0.00    +0.000 A 
ATOM     14  C   UNL     1       5.889   3.543  13.966  0.00  0.00    +0.000 A 
ATOM     15  C   UNL     1       5.758   3.215  12.612  0.00  0.00    +0.000 A 
ATOM     16  C   UNL     1       6.612   3.776  11.671  0.00  0.00    +0.000 A 
ATOM     17  C   UNL     1       7.571   4.697  12.069  0.00  0.00    +0.000 A 
ATOM     18  C   UNL     1       7.680   5.059  13.416  0.00  0.00    +0.000 A 
ENDBRANCH  11  13
ENDBRANCH   1   6
BRANCH   3  19
ATOM     19  C   UNL     1       3.283   4.422  19.893  0.00  0.00    +0.000 C 
BRANCH  19  20
ATOM     20  C   UNL     1       2.167   5.205  20.585  0.00  0.00    +0.000 C 
BRANCH  20  21
ATOM     21  C   UNL     1       2.077   6.632  20.054  0.00  0.00    +0.000 C 
BRANCH  21  22
ATOM     22  N   UNL     1       1.661   7.554  21.116  0.00  0.00    +0.000 N 
ATOM     23  H   UNL     1       2.416   7.799  21.753  0.00  0.00    +0.000 HD
BRANCH  22  24
ATOM     24  C   UNL     1       1.101   8.750  20.612  0.00  0.00    +0.000 A 
ATOM     25  N   UNL     1       1.268   9.039  19.299  0.00  0.00    +0.000 NA
ATOM     26  C   UNL     1       0.743  10.176  18.798  0.00  0.00    +0.000 A 
ATOM     27  C   UNL     1       0.007  11.076  19.547  0.00  0.00    +0.000 A 
ATOM     28  C   UNL     1      -0.195  10.772  20.894  0.00  0.00    +0.000 A 
ATOM     29  C   UNL     1       0.356   9.605  21.436  0.00  0.00    +0.000 A 
ATOM     30 CL   UNL     1       0.112   9.277  23.114  0.00  0.00    +0.000 Cl
BRANCH  27  31
ATOM     31  C   UNL     1      -0.540  12.316  18.916  0.00  0.00    +0.000 C 
ATOM     32  F   UNL     1      -1.196  12.092  17.744  0.00  0.00    +0.000 F 
ATOM     33  F   UNL     1      -1.426  12.965  19.720  0.00  0.00    +0.000 F 
ATOM     34  F   UNL     1       0.434  13.223  18.628  0.00  0.00    +0.000 F 
ENDBRANCH  27  31
ENDBRANCH  22  24
ENDBRANCH  21  22
ENDBRANCH  20  21
ENDBRANCH  19  20
ENDBRANCH   3  19
TORSDOF 8
ENDMDL
MODEL 8
REMARK VINA RESULT:      -8.2      1.662      2.115
REMARK  Name = 
REMARK  9 active torsions:
REMARK  status: ('A' for Active; 'I' for Inactive)
REMARK    1  A    between atoms: C_1  and  C_2
REMARK    2  A    between atoms: C_2  and  C_3
REMARK    3  A    between atoms: N_5  and  C_6
REMARK    4  A    between atoms: C_6  and  C_7
REMARK    5  A    between atoms: C_7  and  C_8
REMARK    6  A    between atoms: C_8  and  N_9
REMARK    7  A    between atoms: N_9  and  C_10
REMARK    8  A    between atoms: C_13  and  C_14
REMARK    9  A    between atoms: C_25  and  C_27
REMARK                            x       y       z     vdW  Elec       q    Type
REMARK                         _______ _______ _______ _____ _____    ______ ____
ROOT
ATOM      1  C   UNL     1       6.683   6.820  17.031  0.00  0.00    +0.000 C 
ATOM      2  O   UNL     1       5.658   7.428  16.714  0.00  0.00    +0.000 OA
ATOM      3  N   UNL     1       7.834   7.476  17.430  0.00  0.00    +0.000 N 
ATOM      4  H   UNL     1       8.594   6.899  17.764  0.00  0.00    +0.000 HD
ENDROOT
BRANCH   1   6
ATOM      5  C   UNL     1       7.815   4.783  18.062  0.00  0.00    +0.000 C 
ATOM      6  C   UNL     1       6.753   5.257  17.063  0.00  0.00    +0.000 C 
ATOM      7  C   UNL     1       7.170   4.806  15.677  0.00  0.00    +0.000 C 
ATOM      8  C   UNL     1       6.214   4.105  15.064  0.00  0.00    +0.000 C 
ATOM      9  C   UNL     1       5.005   4.003  15.913  0.00  0.00    +0.000 C 
ATOM     10  N   UNL     1       5.424   4.596  17.179  0.00  0.00    +0.000 N 
ATOM     11  C   UNL     1       4.765   4.495  18.402  0.00  0.00    +0.000 C 
ATOM     12  O   UNL     1       5.237   4.960  19.436  0.00  0.00    +0.000 OA
BRANCH  11  13
ATOM     13  C   UNL     1       3.425   3.838  18.510  0.00  0.00    +0.000 A 
ATOM     14  C   UNL     1       3.328   2.657  19.267  0.00  0.00    +0.000 A 
ATOM     15  C   UNL     1       2.094   2.018  19.431  0.00  0.00    +0.000 A 
ATOM     16  C   UNL     1       0.952   2.541  18.834  0.00  0.00    +0.000 A 
ATOM     17  C   UNL     1       1.029   3.721  18.109  0.00  0.00    +0.000 A 
ATOM     18  C   UNL     1       2.253   4.385  17.976  0.00  0.00    +0.000 A 
ENDBRANCH  11  13
ENDBRANCH   1   6
BRANCH   3  19
ATOM     19  C   UNL     1       7.913   8.917  17.544  0.00  0.00    +0.000 C 
BRANCH  19  20
ATOM     20  C   UNL     1       8.603   9.374  18.829  0.00  0.00    +0.000 C 
BRANCH  20  21
ATOM     21  C   UNL     1       9.704  10.389  18.538  0.00  0.00    +0.000 C 
BRANCH  21  22
ATOM     22  N   UNL     1       9.128  11.670  18.115  0.00  0.00    +0.000 N 
ATOM     23  H   UNL     1       8.111  11.688  18.161  0.00  0.00    +0.000 HD
BRANCH  22  24
ATOM     24  C   UNL     1       9.622  12.764  18.863  0.00  0.00    +0.000 A 
ATOM     25  N   UNL     1       9.148  12.958  20.117  0.00  0.00    +0.000 NA
ATOM     26  C   UNL     1       9.605  13.996  20.846  0.00  0.00    +0.000 A 
ATOM     27  C   UNL     1      10.568  14.882  20.399  0.00  0.00    +0.000 A 
ATOM     28  C   UNL     1      11.085  14.673  19.120  0.00  0.00    +0.000 A 
ATOM     29  C   UNL     1      10.609  13.611  18.341  0.00  0.00    +0.000 A 
ATOM     30 CL   UNL     1      11.249  13.401  16.750  0.00  0.00    +0.000 Cl
BRANCH  27  31
ATOM     31  C   UNL     1      11.021  16.009  21.271  0.00  0.00    +0.000 C 
ATOM     32  F   UNL     1      10.335  17.168  21.069  0.00  0.00    +0.000 F 
ATOM     33  F   UNL     1      10.895  15.728  22.596  0.00  0.00    +0.000 F 
ATOM     34  F   UNL     1      12.333  16.317  21.078  0.00  0.00    +0.000 F 
ENDBRANCH  27  31
ENDBRANCH  22  24
ENDBRANCH  21  22
ENDBRANCH  20  21
ENDBRANCH  19  20
ENDBRANCH   3  19
TORSDOF 8
ENDMDL
MODEL 9
REMARK VINA RESULT:      -8.2      6.473      8.861
REMARK  Name = 
REMARK  9 active torsions:
REMARK  status: ('A' for Active; 'I' for Inactive)
REMARK    1  A    between atoms: C_1  and  C_2
REMARK    2  A    between atoms: C_2  and  C_3
REMARK    3  A    between atoms: N_5  and  C_6
REMARK    4  A    between atoms: C_6  and  C_7
REMARK    5  A    between atoms: C_7  and  C_8
REMARK    6  A    between atoms: C_8  and  N_9
REMARK    7  A    between atoms: N_9  and  C_10
REMARK    8  A    between atoms: C_13  and  C_14
REMARK    9  A    between atoms: C_25  and  C_27
REMARK                            x       y       z     vdW  Elec       q    Type
REMARK                         _______ _______ _______ _____ _____    ______ ____
ROOT
ATOM      1  C   UNL     1       5.332   4.760  18.625  0.00  0.00    +0.000 C 
ATOM      2  O   UNL     1       5.953   3.784  19.052  0.00  0.00    +0.000 OA
ATOM      3  N   UNL     1       3.988   4.951  18.892  0.00  0.00    +0.000 N 
ATOM      4  H   UNL     1       3.582   5.824  18.586  0.00  0.00    +0.000 HD
ENDROOT
BRANCH   1   6
ATOM      5  C   UNL     1       7.369   6.277  18.415  0.00  0.00    +0.000 C 
ATOM      6  C   UNL     1       6.020   5.894  17.795  0.00  0.00    +0.000 C 
ATOM      7  C   UNL     1       5.107   7.103  17.860  0.00  0.00    +0.000 C 
ATOM      8  C   UNL     1       4.605   7.422  16.665  0.00  0.00    +0.000 C 
ATOM      9  C   UNL     1       5.065   6.472  15.626  0.00  0.00    +0.000 C 
ATOM     10  N   UNL     1       6.037   5.641  16.328  0.00  0.00    +0.000 N 
ATOM     11  C   UNL     1       6.970   4.784  15.748  0.00  0.00    +0.000 C 
ATOM     12  O   UNL     1       7.807   4.184  16.417  0.00  0.00    +0.000 OA
BRANCH  11  13
ATOM     13  C   UNL     1       6.975   4.526  14.274  0.00  0.00    +0.000 A 
ATOM     14  C   UNL     1       6.084   3.562  13.770  0.00  0.00    +0.000 A 
ATOM     15  C   UNL     1       6.022   3.303  12.396  0.00  0.00    +0.000 A 
ATOM     16  C   UNL     1       6.851   3.990  11.517  0.00  0.00    +0.000 A 
ATOM     17  C   UNL     1       7.714   4.965  11.999  0.00  0.00    +0.000 A 
ATOM     18  C   UNL     1       7.752   5.255  13.366  0.00  0.00    +0.000 A 
ENDBRANCH  11  13
ENDBRANCH   1   6
BRANCH   3  19
ATOM     19  C   UNL     1       3.219   4.046  19.720  0.00  0.00    +0.000 C 
BRANCH  19  20
ATOM     20  C   UNL     1       1.859   4.617  20.121  0.00  0.00    +0.000 C 
BRANCH  20  21
ATOM     21  C   UNL     1       2.010   5.926  20.890  0.00  0.00    +0.000 C 
BRANCH  21  22
ATOM     22  N   UNL     1       2.102   7.061  19.966  0.00  0.00    +0.000 N 
ATOM     23  H   UNL     1       1.753   6.849  19.033  0.00  0.00    +0.000 HD
BRANCH  22  24
ATOM     24  C   UNL     1       1.424   8.207  20.441  0.00  0.00    +0.000 A 
ATOM     25  N   UNL     1       1.090   8.264  21.753  0.00  0.00    +0.000 NA
ATOM     26  C   UNL     1       0.442   9.348  22.226  0.00  0.00    +0.000 A 
ATOM     27  C   UNL     1       0.110  10.443  21.449  0.00  0.00    +0.000 A 
ATOM     28  C   UNL     1       0.476  10.407  20.103  0.00  0.00    +0.000 A 
ATOM     29  C   UNL     1       1.134   9.282  19.590  0.00  0.00    +0.000 A 
ATOM     30 CL   UNL     1       1.544   9.259  17.912  0.00  0.00    +0.000 Cl
BRANCH  27  31
ATOM     31  C   UNL     1      -0.612  11.606  22.051  0.00  0.00    +0.000 C 
ATOM     32  F   UNL     1      -1.742  11.958  21.379  0.00  0.00    +0.000 F 
ATOM     33  F   UNL     1      -0.999  11.372  23.335  0.00  0.00    +0.000 F 
ATOM     34  F   UNL     1       0.159  12.727  22.093  0.00  0.00    +0.000 F 
ENDBRANCH  27  31
ENDBRANCH  22  24
ENDBRANCH  21  22
ENDBRANCH  20  21
ENDBRANCH  19  20
ENDBRANCH   3  19
TORSDOF 8
ENDMDL
