MODEL 1
REMARK VINA RESULT:      -8.3      0.000      0.000
REMARK  Name = 
REMARK  6 active torsions:
REMARK  status: ('A' for Active; 'I' for Inactive)
REMARK    1  A    between atoms: C_1  and  C_2
REMARK    2  A    between atoms: C_6  and  C_7
REMARK    3  A    between atoms: C_7  and  O_9
REMARK    4  A    between atoms: O_9  and  C_10
REMARK    5  A    between atoms: C_13  and  N_14
REMARK    6  A    between atoms: C_18  and  N_19
REMARK                            x       y       z     vdW  Elec       q    Type
REMARK                         _______ _______ _______ _____ _____    ______ ____
ROOT
ATOM      1  C   UNL     1       4.781   6.172  17.766  0.00  0.00    +0.000 A 
ATOM      2  C   UNL     1       4.574   6.753  16.505  0.00  0.00    +0.000 A 
ATOM      3  C   UNL     1       5.253   6.294  15.378  0.00  0.00    +0.000 A 
ATOM      4  C   UNL     1       6.196   5.275  15.517  0.00  0.00    +0.000 A 
ATOM      5  C   UNL     1       6.447   4.698  16.771  0.00  0.00    +0.000 A 
ATOM      6  C   UNL     1       5.732   5.144  17.905  0.00  0.00    +0.000 A 
ENDROOT
BRANCH   4   7
ATOM      7  N   UNL     1       6.935   4.826  14.331  0.00  0.00    +0.000 N 
ATOM      8  O   UNL     1       7.947   5.457  14.005  0.00  0.00    +0.000 OA
ATOM      9  O   UNL     1       6.504   3.828  13.730  0.00  0.00    +0.000 OA
ENDBRANCH   4   7
BRANCH   6  10
ATOM     10  N   UNL     1       6.023   4.505  19.198  0.00  0.00    +0.000 N 
ATOM     11  O   UNL     1       5.387   3.494  19.518  0.00  0.00    +0.000 OA
ATOM     12  O   UNL     1       6.904   5.024  19.898  0.00  0.00    +0.000 OA
ENDBRANCH   6  10
BRANCH   1  13
ATOM     13  O   UNL     1       4.106   6.747  18.862  0.00  0.00    +0.000 OA
BRANCH  13  14
ATOM     14  C   UNL     1       2.718   6.716  18.801  0.00  0.00    +0.000 C 
ATOM     15  O   UNL     1       1.984   7.689  18.692  0.00  0.00    +0.000 OA
BRANCH  14  21
ATOM     16  C   UNL     1       1.583   2.780  21.756  0.00  0.00    +0.000 C 
ATOM     17  C   UNL     1       1.632   3.427  20.403  0.00  0.00    +0.000 A 
ATOM     18  C   UNL     1       1.243   2.717  19.259  0.00  0.00    +0.000 A 
ATOM     19  C   UNL     1       1.300   3.317  18.003  0.00  0.00    +0.000 A 
ATOM     20  C   UNL     1       1.772   4.623  17.878  0.00  0.00    +0.000 A 
ATOM     21  C   UNL     1       2.193   5.340  19.010  0.00  0.00    +0.000 A 
ATOM     22  C   UNL     1       2.094   4.746  20.274  0.00  0.00    +0.000 A 
ENDBRANCH  14  21
ENDBRANCH  13  14
ENDBRANCH   1  13
TORSDOF 5
ENDMDL
MODEL 2
REMARK VINA RESULT:      -7.9      0.490      1.362
REMARK  Name = 
REMARK  6 active torsions:
REMARK  status: ('A' for Active; 'I' for Inactive)
REMARK    1  A    between atoms: C_1  and  C_2
REMARK    2  A    between atoms: C_6  and  C_7
REMARK    3  A    between atoms: C_7  and  O_9
REMARK    4  A    between atoms: O_9  and  C_10
REMARK    5  A    between atoms: C_13  and  N_14
REMARK    6  A    between atoms: C_18  and  N_19
REMARK                            x       y       z     vdW  Elec       q    Type
REMARK                         _______ _______ _______ _____ _____    ______ ____
ROOT
ATOM      1  C   UNL     1       4.756   6.248  17.634  0.00  0.00    +0.000 A 
ATOM      2  C   UNL     1       4.600   6.823  16.362  0.00  0.00    +0.000 A 
ATOM      3  C   UNL     1       5.292   6.329  15.257  0.00  0.00    +0.000 A 
ATOM      4  C   UNL     1       6.196   5.281  15.430  0.00  0.00    +0.000 A 
ATOM      5  C   UNL     1       6.396   4.709  16.696  0.00  0.00    +0.000 A 
ATOM      6  C   UNL     1       5.668   5.190  17.806  0.00  0.00    +0.000 A 
ENDROOT
BRANCH   4   7
ATOM      7  N   UNL     1       6.948   4.796  14.267  0.00  0.00    +0.000 N 
ATOM      8  O   UNL     1       7.951   5.430  13.919  0.00  0.00    +0.000 OA
ATOM      9  O   UNL     1       6.539   3.765  13.708  0.00  0.00    +0.000 OA
ENDBRANCH   4   7
BRANCH   6  10
ATOM     10  N   UNL     1       5.905   4.555  19.113  0.00  0.00    +0.000 N 
ATOM     11  O   UNL     1       5.277   3.529  19.397  0.00  0.00    +0.000 OA
ATOM     12  O   UNL     1       6.736   5.093  19.859  0.00  0.00    +0.000 OA
ENDBRANCH   6  10
BRANCH   1  13
ATOM     13  O   UNL     1       4.073   6.857  18.707  0.00  0.00    +0.000 OA
BRANCH  13  14
ATOM     14  C   UNL     1       2.691   6.708  18.707  0.00  0.00    +0.000 C 
ATOM     15  O   UNL     1       1.882   7.540  18.319  0.00  0.00    +0.000 OA
BRANCH  14  21
ATOM     16  C   UNL     1       0.640   2.095  18.575  0.00  0.00    +0.000 C 
ATOM     17  C   UNL     1       1.300   3.210  19.331  0.00  0.00    +0.000 A 
ATOM     18  C   UNL     1       1.490   3.117  20.717  0.00  0.00    +0.000 A 
ATOM     19  C   UNL     1       2.094   4.160  21.417  0.00  0.00    +0.000 A 
ATOM     20  C   UNL     1       2.488   5.314  20.742  0.00  0.00    +0.000 A 
ATOM     21  C   UNL     1       2.279   5.437  19.359  0.00  0.00    +0.000 A 
ATOM     22  C   UNL     1       1.711   4.369  18.653  0.00  0.00    +0.000 A 
ENDBRANCH  14  21
ENDBRANCH  13  14
ENDBRANCH   1  13
TORSDOF 5
ENDMDL
MODEL 3
REMARK VINA RESULT:      -7.9      0.992      1.445
REMARK  Name = 
REMARK  6 active torsions:
REMARK  status: ('A' for Active; 'I' for Inactive)
REMARK    1  A    between atoms: C_1  and  C_2
REMARK    2  A    between atoms: C_6  and  C_7
REMARK    3  A    between atoms: C_7  and  O_9
REMARK    4  A    between atoms: O_9  and  C_10
REMARK    5  A    between atoms: C_13  and  N_14
REMARK    6  A    between atoms: C_18  and  N_19
REMARK                            x       y       z     vdW  Elec       q    Type
REMARK                         _______ _______ _______ _____ _____    ______ ____
ROOT
ATOM      1  C   UNL     1       5.225   5.597  17.960  0.00  0.00    +0.000 A 
ATOM      2  C   UNL     1       4.460   5.293  16.823  0.00  0.00    +0.000 A 
ATOM      3  C   UNL     1       5.064   5.018  15.597  0.00  0.00    +0.000 A 
ATOM      4  C   UNL     1       6.452   5.102  15.487  0.00  0.00    +0.000 A 
ATOM      5  C   UNL     1       7.240   5.437  16.599  0.00  0.00    +0.000 A 
ATOM      6  C   UNL     1       6.625   5.681  17.847  0.00  0.00    +0.000 A 
ENDROOT
BRANCH   4   7
ATOM      7  N   UNL     1       7.076   4.851  14.182  0.00  0.00    +0.000 N 
ATOM      8  O   UNL     1       6.618   3.937  13.487  0.00  0.00    +0.000 OA
ATOM      9  O   UNL     1       8.022   5.584  13.848  0.00  0.00    +0.000 OA
ENDBRANCH   4   7
BRANCH   6  10
ATOM     10  N   UNL     1       7.492   6.021  18.987  0.00  0.00    +0.000 N 
ATOM     11  O   UNL     1       8.281   6.966  18.872  0.00  0.00    +0.000 OA
ATOM     12  O   UNL     1       7.375   5.332  20.010  0.00  0.00    +0.000 OA
ENDBRANCH   6  10
BRANCH   1  13
ATOM     13  O   UNL     1       4.528   5.932  19.139  0.00  0.00    +0.000 OA
BRANCH  13  14
ATOM     14  C   UNL     1       3.167   6.175  18.989  0.00  0.00    +0.000 C 
ATOM     15  O   UNL     1       2.654   7.265  18.773  0.00  0.00    +0.000 OA
BRANCH  14  21
ATOM     16  C   UNL     1       1.485   2.501  22.019  0.00  0.00    +0.000 C 
ATOM     17  C   UNL     1       1.531   3.168  20.675  0.00  0.00    +0.000 A 
ATOM     18  C   UNL     1       0.860   2.610  19.579  0.00  0.00    +0.000 A 
ATOM     19  C   UNL     1       0.914   3.227  18.331  0.00  0.00    +0.000 A 
ATOM     20  C   UNL     1       1.661   4.393  18.164  0.00  0.00    +0.000 A 
ATOM     21  C   UNL     1       2.363   4.950  19.244  0.00  0.00    +0.000 A 
ATOM     22  C   UNL     1       2.271   4.349  20.506  0.00  0.00    +0.000 A 
ENDBRANCH  14  21
ENDBRANCH  13  14
ENDBRANCH   1  13
TORSDOF 5
ENDMDL
MODEL 4
REMARK VINA RESULT:      -7.9      1.533      2.067
REMARK  Name = 
REMARK  6 active torsions:
REMARK  status: ('A' for Active; 'I' for Inactive)
REMARK    1  A    between atoms: C_1  and  C_2
REMARK    2  A    between atoms: C_6  and  C_7
REMARK    3  A    between atoms: C_7  and  O_9
REMARK    4  A    between atoms: O_9  and  C_10
REMARK    5  A    between atoms: C_13  and  N_14
REMARK    6  A    between atoms: C_18  and  N_19
REMARK                            x       y       z     vdW  Elec       q    Type
REMARK                         _______ _______ _______ _____ _____    ______ ____
ROOT
ATOM      1  C   UNL     1       5.784   4.934  17.134  0.00  0.00    +0.000 A 
ATOM      2  C   UNL     1       5.220   4.040  16.209  0.00  0.00    +0.000 A 
ATOM      3  C   UNL     1       5.709   3.944  14.907  0.00  0.00    +0.000 A 
ATOM      4  C   UNL     1       6.739   4.792  14.501  0.00  0.00    +0.000 A 
ATOM      5  C   UNL     1       7.299   5.719  15.394  0.00  0.00    +0.000 A 
ATOM      6  C   UNL     1       6.824   5.788  16.723  0.00  0.00    +0.000 A 
ENDROOT
BRANCH   4   7
ATOM      7  N   UNL     1       7.218   4.712  13.116  0.00  0.00    +0.000 N 
ATOM      8  O   UNL     1       6.761   3.818  12.394  0.00  0.00    +0.000 OA
ATOM      9  O   UNL     1       8.049   5.558  12.746  0.00  0.00    +0.000 OA
ENDBRANCH   4   7
BRANCH   6  10
ATOM     10  N   UNL     1       7.446   6.769  17.626  0.00  0.00    +0.000 N 
ATOM     11  O   UNL     1       7.945   6.370  18.684  0.00  0.00    +0.000 OA
ATOM     12  O   UNL     1       7.436   7.955  17.264  0.00  0.00    +0.000 OA
ENDBRANCH   6  10
BRANCH   1  13
ATOM     13  O   UNL     1       5.180   5.015  18.406  0.00  0.00    +0.000 OA
BRANCH  13  14
ATOM     14  C   UNL     1       3.930   5.622  18.445  0.00  0.00    +0.000 C 
ATOM     15  O   UNL     1       3.706   6.811  18.262  0.00  0.00    +0.000 OA
BRANCH  14  21
ATOM     16  C   UNL     1       1.697   2.668  21.880  0.00  0.00    +0.000 C 
ATOM     17  C   UNL     1       1.770   3.233  20.492  0.00  0.00    +0.000 A 
ATOM     18  C   UNL     1       0.866   2.818  19.505  0.00  0.00    +0.000 A 
ATOM     19  C   UNL     1       0.942   3.337  18.214  0.00  0.00    +0.000 A 
ATOM     20  C   UNL     1       1.940   4.257  17.894  0.00  0.00    +0.000 A 
ATOM     21  C   UNL     1       2.872   4.664  18.862  0.00  0.00    +0.000 A 
ATOM     22  C   UNL     1       2.764   4.171  20.168  0.00  0.00    +0.000 A 
ENDBRANCH  14  21
ENDBRANCH  13  14
ENDBRANCH   1  13
TORSDOF 5
ENDMDL
MODEL 5
REMARK VINA RESULT:      -7.7      1.644      2.018
REMARK  Name = 
REMARK  6 active torsions:
REMARK  status: ('A' for Active; 'I' for Inactive)
REMARK    1  A    between atoms: C_1  and  C_2
REMARK    2  A    between atoms: C_6  and  C_7
REMARK    3  A    between atoms: C_7  and  O_9
REMARK    4  A    between atoms: O_9  and  C_10
REMARK    5  A    between atoms: C_13  and  N_14
REMARK    6  A    between atoms: C_18  and  N_19
REMARK                            x       y       z     vdW  Elec       q    Type
REMARK                         _______ _______ _______ _____ _____    ______ ____
ROOT
ATOM      1  C   UNL     1       5.748   4.282  16.616  0.00  0.00    +0.000 A 
ATOM      2  C   UNL     1       5.155   3.883  15.407  0.00  0.00    +0.000 A 
ATOM      3  C   UNL     1       5.781   4.119  14.184  0.00  0.00    +0.000 A 
ATOM      4  C   UNL     1       6.991   4.812  14.158  0.00  0.00    +0.000 A 
ATOM      5  C   UNL     1       7.590   5.251  15.349  0.00  0.00    +0.000 A 
ATOM      6  C   UNL     1       6.969   4.980  16.588  0.00  0.00    +0.000 A 
ENDROOT
BRANCH   4   7
ATOM      7  N   UNL     1       7.621   5.091  12.862  0.00  0.00    +0.000 N 
ATOM      8  O   UNL     1       8.462   5.996  12.808  0.00  0.00    +0.000 OA
ATOM      9  O   UNL     1       7.279   4.389  11.896  0.00  0.00    +0.000 OA
ENDBRANCH   4   7
BRANCH   6  10
ATOM     10  N   UNL     1       7.638   5.453  17.811  0.00  0.00    +0.000 N 
ATOM     11  O   UNL     1       8.128   4.619  18.581  0.00  0.00    +0.000 OA
ATOM     12  O   UNL     1       7.672   6.678  17.997  0.00  0.00    +0.000 OA
ENDBRANCH   6  10
BRANCH   1  13
ATOM     13  O   UNL     1       5.011   4.067  17.799  0.00  0.00    +0.000 OA
BRANCH  13  14
ATOM     14  C   UNL     1       3.911   4.896  17.985  0.00  0.00    +0.000 C 
ATOM     15  O   UNL     1       3.867   6.094  17.736  0.00  0.00    +0.000 OA
BRANCH  14  21
ATOM     16  C   UNL     1       1.779   2.743  22.025  0.00  0.00    +0.000 C 
ATOM     17  C   UNL     1       1.735   3.134  20.578  0.00  0.00    +0.000 A 
ATOM     18  C   UNL     1       0.648   2.768  19.773  0.00  0.00    +0.000 A 
ATOM     19  C   UNL     1       0.615   3.124  18.426  0.00  0.00    +0.000 A 
ATOM     20  C   UNL     1       1.682   3.827  17.868  0.00  0.00    +0.000 A 
ATOM     21  C   UNL     1       2.793   4.177  18.652  0.00  0.00    +0.000 A 
ATOM     22  C   UNL     1       2.801   3.854  20.014  0.00  0.00    +0.000 A 
ENDBRANCH  14  21
ENDBRANCH  13  14
ENDBRANCH   1  13
TORSDOF 5
ENDMDL
MODEL 6
REMARK VINA RESULT:      -7.6      1.696      2.358
REMARK  Name = 
REMARK  6 active torsions:
REMARK  status: ('A' for Active; 'I' for Inactive)
REMARK    1  A    between atoms: C_1  and  C_2
REMARK    2  A    between atoms: C_6  and  C_7
REMARK    3  A    between atoms: C_7  and  O_9
REMARK    4  A    between atoms: O_9  and  C_10
REMARK    5  A    between atoms: C_13  and  N_14
REMARK    6  A    between atoms: C_18  and  N_19
REMARK                            x       y       z     vdW  Elec       q    Type
REMARK                         _______ _______ _______ _____ _____    ______ ____
ROOT
ATOM      1  C   UNL     1       5.498   5.256  16.824  0.00  0.00    +0.000 A 
ATOM      2  C   UNL     1       4.893   4.465  15.834  0.00  0.00    +0.000 A 
ATOM      3  C   UNL     1       5.500   4.271  14.594  0.00  0.00    +0.000 A 
ATOM      4  C   UNL     1       6.703   4.919  14.314  0.00  0.00    +0.000 A 
ATOM      5  C   UNL     1       7.313   5.742  15.273  0.00  0.00    +0.000 A 
ATOM      6  C   UNL     1       6.712   5.908  16.540  0.00  0.00    +0.000 A 
ENDROOT
BRANCH   4   7
ATOM      7  N   UNL     1       7.313   4.740  12.991  0.00  0.00    +0.000 N 
ATOM      8  O   UNL     1       8.171   5.555  12.632  0.00  0.00    +0.000 OA
ATOM      9  O   UNL     1       6.938   3.769  12.313  0.00  0.00    +0.000 OA
ENDBRANCH   4   7
BRANCH   6  10
ATOM     10  N   UNL     1       7.392   6.775  17.517  0.00  0.00    +0.000 N 
ATOM     11  O   UNL     1       7.433   7.992  17.304  0.00  0.00    +0.000 OA
ATOM     12  O   UNL     1       7.888   6.224  18.510  0.00  0.00    +0.000 OA
ENDBRANCH   6  10
BRANCH   1  13
ATOM     13  O   UNL     1       4.780   5.456  18.021  0.00  0.00    +0.000 OA
BRANCH  13  14
ATOM     14  C   UNL     1       4.788   4.393  18.916  0.00  0.00    +0.000 C 
ATOM     15  O   UNL     1       5.784   3.823  19.342  0.00  0.00    +0.000 OA
BRANCH  14  21
ATOM     16  C   UNL     1       1.340   2.426  22.040  0.00  0.00    +0.000 C 
ATOM     17  C   UNL     1       1.723   2.984  20.700  0.00  0.00    +0.000 A 
ATOM     18  C   UNL     1       0.793   3.022  19.652  0.00  0.00    +0.000 A 
ATOM     19  C   UNL     1       1.155   3.531  18.407  0.00  0.00    +0.000 A 
ATOM     20  C   UNL     1       2.456   3.983  18.193  0.00  0.00    +0.000 A 
ATOM     21  C   UNL     1       3.409   3.927  19.223  0.00  0.00    +0.000 A 
ATOM     22  C   UNL     1       3.028   3.453  20.484  0.00  0.00    +0.000 A 
ENDBRANCH  14  21
ENDBRANCH  13  14
ENDBRANCH   1  13
TORSDOF 5
ENDMDL
MODEL 7
REMARK VINA RESULT:      -7.6      1.673      2.404
REMARK  Name = 
REMARK  6 active torsions:
REMARK  status: ('A' for Active; 'I' for Inactive)
REMARK    1  A    between atoms: C_1  and  C_2
REMARK    2  A    between atoms: C_6  and  C_7
REMARK    3  A    between atoms: C_7  and  O_9
REMARK    4  A    between atoms: O_9  and  C_10
REMARK    5  A    between atoms: C_13  and  N_14
REMARK    6  A    between atoms: C_18  and  N_19
REMARK                            x       y       z     vdW  Elec       q    Type
REMARK                         _______ _______ _______ _____ _____    ______ ____
ROOT
ATOM      1  C   UNL     1       5.797   4.952  16.864  0.00  0.00    +0.000 A 
ATOM      2  C   UNL     1       5.239   4.092  15.905  0.00  0.00    +0.000 A 
ATOM      3  C   UNL     1       5.762   4.011  14.616  0.00  0.00    +0.000 A 
ATOM      4  C   UNL     1       6.824   4.842  14.257  0.00  0.00    +0.000 A 
ATOM      5  C   UNL     1       7.380   5.735  15.185  0.00  0.00    +0.000 A 
ATOM      6  C   UNL     1       6.868   5.789  16.501  0.00  0.00    +0.000 A 
ENDROOT
BRANCH   4   7
ATOM      7  N   UNL     1       7.341   4.778  12.885  0.00  0.00    +0.000 N 
ATOM      8  O   UNL     1       8.175   5.623  12.538  0.00  0.00    +0.000 OA
ATOM      9  O   UNL     1       6.918   3.867  12.154  0.00  0.00    +0.000 OA
ENDBRANCH   4   7
BRANCH   6  10
ATOM     10  N   UNL     1       7.487   6.736  17.442  0.00  0.00    +0.000 N 
ATOM     11  O   UNL     1       7.933   6.305  18.511  0.00  0.00    +0.000 OA
ATOM     12  O   UNL     1       7.528   7.926  17.099  0.00  0.00    +0.000 OA
ENDBRANCH   6  10
BRANCH   1  13
ATOM     13  O   UNL     1       5.159   5.022  18.120  0.00  0.00    +0.000 OA
BRANCH  13  14
ATOM     14  C   UNL     1       4.019   5.816  18.176  0.00  0.00    +0.000 C 
ATOM     15  O   UNL     1       3.927   6.966  17.769  0.00  0.00    +0.000 OA
BRANCH  14  21
ATOM     16  C   UNL     1       0.659   2.085  18.727  0.00  0.00    +0.000 C 
ATOM     17  C   UNL     1       1.290   3.357  19.211  0.00  0.00    +0.000 A 
ATOM     18  C   UNL     1       0.809   4.000  20.360  0.00  0.00    +0.000 A 
ATOM     19  C   UNL     1       1.391   5.186  20.802  0.00  0.00    +0.000 A 
ATOM     20  C   UNL     1       2.442   5.753  20.082  0.00  0.00    +0.000 A 
ATOM     21  C   UNL     1       2.919   5.139  18.913  0.00  0.00    +0.000 A 
ATOM     22  C   UNL     1       2.358   3.925  18.498  0.00  0.00    +0.000 A 
ENDBRANCH  14  21
ENDBRANCH  13  14
ENDBRANCH   1  13
TORSDOF 5
ENDMDL
MODEL 8
REMARK VINA RESULT:      -7.6      3.373      6.348
REMARK  Name = 
REMARK  6 active torsions:
REMARK  status: ('A' for Active; 'I' for Inactive)
REMARK    1  A    between atoms: C_1  and  C_2
REMARK    2  A    between atoms: C_6  and  C_7
REMARK    3  A    between atoms: C_7  and  O_9
REMARK    4  A    between atoms: O_9  and  C_10
REMARK    5  A    between atoms: C_13  and  N_14
REMARK    6  A    between atoms: C_18  and  N_19
REMARK                            x       y       z     vdW  Elec       q    Type
REMARK                         _______ _______ _______ _____ _____    ______ ____
ROOT
ATOM      1  C   UNL     1       2.680   5.024  19.196  0.00  0.00    +0.000 A 
ATOM      2  C   UNL     1       2.896   6.255  18.554  0.00  0.00    +0.000 A 
ATOM      3  C   UNL     1       2.447   7.450  19.113  0.00  0.00    +0.000 A 
ATOM      4  C   UNL     1       1.721   7.416  20.304  0.00  0.00    +0.000 A 
ATOM      5  C   UNL     1       1.462   6.198  20.950  0.00  0.00    +0.000 A 
ATOM      6  C   UNL     1       1.949   4.992  20.397  0.00  0.00    +0.000 A 
ENDROOT
BRANCH   4   7
ATOM      7  N   UNL     1       1.218   8.676  20.863  0.00  0.00    +0.000 N 
ATOM      8  O   UNL     1       0.602   9.440  20.110  0.00  0.00    +0.000 OA
ATOM      9  O   UNL     1       1.430   8.895  22.067  0.00  0.00    +0.000 OA
ENDBRANCH   4   7
BRANCH   6  10
ATOM     10  N   UNL     1       1.659   3.740  21.114  0.00  0.00    +0.000 N 
ATOM     11  O   UNL     1       2.298   3.480  22.140  0.00  0.00    +0.000 OA
ATOM     12  O   UNL     1       0.775   3.011  20.641  0.00  0.00    +0.000 OA
ENDBRANCH   6  10
BRANCH   1  13
ATOM     13  O   UNL     1       3.105   3.860  18.523  0.00  0.00    +0.000 OA
BRANCH  13  14
ATOM     14  C   UNL     1       4.426   3.484  18.742  0.00  0.00    +0.000 C 
ATOM     15  O   UNL     1       4.842   2.865  19.712  0.00  0.00    +0.000 OA
BRANCH  14  21
ATOM     16  C   UNL     1       5.851   4.045  13.929  0.00  0.00    +0.000 C 
ATOM     17  C   UNL     1       6.044   4.327  15.390  0.00  0.00    +0.000 A 
ATOM     18  C   UNL     1       7.143   5.075  15.833  0.00  0.00    +0.000 A 
ATOM     19  C   UNL     1       7.324   5.327  17.192  0.00  0.00    +0.000 A 
ATOM     20  C   UNL     1       6.421   4.809  18.120  0.00  0.00    +0.000 A 
ATOM     21  C   UNL     1       5.330   4.034  17.697  0.00  0.00    +0.000 A 
ATOM     22  C   UNL     1       5.130   3.820  16.328  0.00  0.00    +0.000 A 
ENDBRANCH  14  21
ENDBRANCH  13  14
ENDBRANCH   1  13
TORSDOF 5
ENDMDL
MODEL 9
REMARK VINA RESULT:      -7.6      2.848      3.865
REMARK  Name = 
REMARK  6 active torsions:
REMARK  status: ('A' for Active; 'I' for Inactive)
REMARK    1  A    between atoms: C_1  and  C_2
REMARK    2  A    between atoms: C_6  and  C_7
REMARK    3  A    between atoms: C_7  and  O_9
REMARK    4  A    between atoms: O_9  and  C_10
REMARK    5  A    between atoms: C_13  and  N_14
REMARK    6  A    between atoms: C_18  and  N_19
REMARK                            x       y       z     vdW  Elec       q    Type
REMARK                         _______ _______ _______ _____ _____    ______ ____
ROOT
ATOM      1  C   UNL     1       3.459   5.926  17.671  0.00  0.00    +0.000 A 
ATOM      2  C   UNL     1       4.407   6.914  17.363  0.00  0.00    +0.000 A 
ATOM      3  C   UNL     1       5.650   6.581  16.827  0.00  0.00    +0.000 A 
ATOM      4  C   UNL     1       5.977   5.237  16.646  0.00  0.00    +0.000 A 
ATOM      5  C   UNL     1       5.062   4.227  16.976  0.00  0.00    +0.000 A 
ATOM      6  C   UNL     1       3.790   4.571  17.486  0.00  0.00    +0.000 A 
ENDROOT
BRANCH   4   7
ATOM      7  N   UNL     1       7.304   4.896  16.119  0.00  0.00    +0.000 N 
ATOM      8  O   UNL     1       7.604   5.304  14.991  0.00  0.00    +0.000 OA
ATOM      9  O   UNL     1       8.055   4.225  16.847  0.00  0.00    +0.000 OA
ENDBRANCH   4   7
BRANCH   6  10
ATOM     10  N   UNL     1       2.860   3.477  17.811  0.00  0.00    +0.000 N 
ATOM     11  O   UNL     1       1.891   3.281  17.068  0.00  0.00    +0.000 OA
ATOM     12  O   UNL     1       3.109   2.807  18.823  0.00  0.00    +0.000 OA
ENDBRANCH   6  10
BRANCH   1  13
ATOM     13  O   UNL     1       2.257   6.348  18.275  0.00  0.00    +0.000 OA
BRANCH  13  14
ATOM     14  C   UNL     1       2.311   6.554  19.649  0.00  0.00    +0.000 C 
ATOM     15  O   UNL     1       2.724   5.753  20.477  0.00  0.00    +0.000 OA
BRANCH  14  21
ATOM     16  C   UNL     1      -0.011   9.569  22.969  0.00  0.00    +0.000 C 
ATOM     17  C   UNL     1       0.567   9.327  21.606  0.00  0.00    +0.000 A 
ATOM     18  C   UNL     1       0.472  10.306  20.607  0.00  0.00    +0.000 A 
ATOM     19  C   UNL     1       1.001  10.074  19.339  0.00  0.00    +0.000 A 
ATOM     20  C   UNL     1       1.605   8.850  19.053  0.00  0.00    +0.000 A 
ATOM     21  C   UNL     1       1.684   7.847  20.032  0.00  0.00    +0.000 A 
ATOM     22  C   UNL     1       1.189   8.102  21.317  0.00  0.00    +0.000 A 
ENDBRANCH  14  21
ENDBRANCH  13  14
ENDBRANCH   1  13
TORSDOF 5
ENDMDL
