MODEL 1
REMARK VINA RESULT:      -7.0      0.000      0.000
REMARK  Name = 
REMARK  7 active torsions:
REMARK  status: ('A' for Active; 'I' for Inactive)
REMARK    1  A    between atoms: C_1  and  N_2
REMARK    2  A    between atoms: N_2  and  C_3
REMARK    3  A    between atoms: N_2  and  C_4
REMARK    4  A    between atoms: C_7  and  C_8
REMARK    5  A    between atoms: N_9  and  N_10
REMARK    6  A    between atoms: C_11  and  C_13
REMARK    7  A    between atoms: C_13  and  N_14
REMARK                            x       y       z     vdW  Elec       q    Type
REMARK                         _______ _______ _______ _____ _____    ______ ____
ROOT
ATOM      1  C   UNL     1       8.078   8.856  17.839  0.00  0.00    +0.000 C 
ATOM      2  N   UNL     1       8.157   7.690  18.399  0.00  0.00    +0.000 NA
ENDROOT
BRANCH   1   6
ATOM      3  C   UNL     1       9.985  12.339  19.552  0.00  0.00    +0.000 A 
ATOM      4  C   UNL     1       9.875  11.126  20.256  0.00  0.00    +0.000 A 
ATOM      5  C   UNL     1       9.265   9.991  19.708  0.00  0.00    +0.000 A 
ATOM      6  C   UNL     1       8.753  10.034  18.419  0.00  0.00    +0.000 A 
ATOM      7  C   UNL     1       8.873  11.204  17.671  0.00  0.00    +0.000 A 
ATOM      8  C   UNL     1       9.481  12.336  18.239  0.00  0.00    +0.000 A 
BRANCH   3  10
ATOM      9  C   UNL     1      10.023  13.963  21.414  0.00  0.00    +0.000 C 
ATOM     10  N   UNL     1      10.540  13.475  20.135  0.00  0.00    +0.000 N 
ATOM     11  C   UNL     1      11.759  14.081  19.625  0.00  0.00    +0.000 C 
ENDBRANCH   3  10
ENDBRANCH   1   6
BRANCH   2  12
ATOM     12  N   UNL     1       7.500   6.653  17.812  0.00  0.00    +0.000 N 
ATOM     13  C   UNL     1       7.091   5.617  18.632  0.00  0.00    +0.000 C 
ATOM     14  O   UNL     1       7.276   5.549  19.848  0.00  0.00    +0.000 OA
ATOM     15  H   UNL     1       7.334   6.703  16.814  0.00  0.00    +0.000 HD
BRANCH  13  16
ATOM     16  C   UNL     1       6.368   4.487  17.937  0.00  0.00    +0.000 C 
BRANCH  16  17
ATOM     17  N   UNL     1       4.913   4.494  18.222  0.00  0.00    +0.000 N 
ATOM     18  C   UNL     1       4.390   3.630  19.130  0.00  0.00    +0.000 A 
ATOM     19  C   UNL     1       3.025   3.621  19.397  0.00  0.00    +0.000 A 
ATOM     20  C   UNL     1       2.192   4.516  18.738  0.00  0.00    +0.000 A 
ATOM     21  C   UNL     1       2.742   5.408  17.829  0.00  0.00    +0.000 A 
ATOM     22  C   UNL     1       4.110   5.377  17.582  0.00  0.00    +0.000 A 
ENDBRANCH  16  17
ENDBRANCH  13  16
ENDBRANCH   2  12
TORSDOF 5
ENDMDL
MODEL 2
REMARK VINA RESULT:      -7.0      0.381      1.515
REMARK  Name = 
REMARK  7 active torsions:
REMARK  status: ('A' for Active; 'I' for Inactive)
REMARK    1  A    between atoms: C_1  and  N_2
REMARK    2  A    between atoms: N_2  and  C_3
REMARK    3  A    between atoms: N_2  and  C_4
REMARK    4  A    between atoms: C_7  and  C_8
REMARK    5  A    between atoms: N_9  and  N_10
REMARK    6  A    between atoms: C_11  and  C_13
REMARK    7  A    between atoms: C_13  and  N_14
REMARK                            x       y       z     vdW  Elec       q    Type
REMARK                         _______ _______ _______ _____ _____    ______ ____
ROOT
ATOM      1  C   UNL     1       8.131   9.140  17.859  0.00  0.00    +0.000 C 
ATOM      2  N   UNL     1       8.271   7.966  18.389  0.00  0.00    +0.000 NA
ENDROOT
BRANCH   1   6
ATOM      3  C   UNL     1      10.112  12.599  19.537  0.00  0.00    +0.000 A 
ATOM      4  C   UNL     1       9.414  12.656  18.317  0.00  0.00    +0.000 A 
ATOM      5  C   UNL     1       8.764  11.545  17.768  0.00  0.00    +0.000 A 
ATOM      6  C   UNL     1       8.783  10.330  18.440  0.00  0.00    +0.000 A 
ATOM      7  C   UNL     1       9.432  10.235  19.669  0.00  0.00    +0.000 A 
ATOM      8  C   UNL     1      10.086  11.359  20.201  0.00  0.00    +0.000 A 
BRANCH   3  10
ATOM      9  C   UNL     1      10.348  14.345  21.267  0.00  0.00    +0.000 C 
ATOM     10  N   UNL     1      10.803  13.698  20.036  0.00  0.00    +0.000 N 
ATOM     11  C   UNL     1      12.090  14.105  19.498  0.00  0.00    +0.000 C 
ENDBRANCH   3  10
ENDBRANCH   1   6
BRANCH   2  12
ATOM     12  N   UNL     1       7.632   6.918  17.803  0.00  0.00    +0.000 N 
ATOM     13  C   UNL     1       7.453   5.778  18.565  0.00  0.00    +0.000 C 
ATOM     14  O   UNL     1       7.830   5.627  19.728  0.00  0.00    +0.000 OA
ATOM     15  H   UNL     1       7.309   7.035  16.850  0.00  0.00    +0.000 HD
BRANCH  13  16
ATOM     16  C   UNL     1       6.741   4.640  17.872  0.00  0.00    +0.000 C 
BRANCH  16  17
ATOM     17  N   UNL     1       5.293   4.607  18.194  0.00  0.00    +0.000 N 
ATOM     18  C   UNL     1       4.424   5.399  17.515  0.00  0.00    +0.000 A 
ATOM     19  C   UNL     1       3.066   5.384  17.816  0.00  0.00    +0.000 A 
ATOM     20  C   UNL     1       2.595   4.538  18.812  0.00  0.00    +0.000 A 
ATOM     21  C   UNL     1       3.491   3.718  19.483  0.00  0.00    +0.000 A 
ATOM     22  C   UNL     1       4.842   3.772  19.160  0.00  0.00    +0.000 A 
ENDBRANCH  16  17
ENDBRANCH  13  16
ENDBRANCH   2  12
TORSDOF 5
ENDMDL
MODEL 3
REMARK VINA RESULT:      -6.9      0.303      1.327
REMARK  Name = 
REMARK  7 active torsions:
REMARK  status: ('A' for Active; 'I' for Inactive)
REMARK    1  A    between atoms: C_1  and  N_2
REMARK    2  A    between atoms: N_2  and  C_3
REMARK    3  A    between atoms: N_2  and  C_4
REMARK    4  A    between atoms: C_7  and  C_8
REMARK    5  A    between atoms: N_9  and  N_10
REMARK    6  A    between atoms: C_11  and  C_13
REMARK    7  A    between atoms: C_13  and  N_14
REMARK                            x       y       z     vdW  Elec       q    Type
REMARK                         _______ _______ _______ _____ _____    ______ ____
ROOT
ATOM      1  C   UNL     1       8.111   9.054  17.969  0.00  0.00    +0.000 C 
ATOM      2  N   UNL     1       8.317   7.859  18.427  0.00  0.00    +0.000 NA
ENDROOT
BRANCH   1   6
ATOM      3  C   UNL     1      10.178  12.459  19.654  0.00  0.00    +0.000 A 
ATOM      4  C   UNL     1       9.657  12.473  18.347  0.00  0.00    +0.000 A 
ATOM      5  C   UNL     1       8.980  11.379  17.795  0.00  0.00    +0.000 A 
ATOM      6  C   UNL     1       8.792  10.228  18.549  0.00  0.00    +0.000 A 
ATOM      7  C   UNL     1       9.260  10.183  19.860  0.00  0.00    +0.000 A 
ATOM      8  C   UNL     1       9.943  11.288  20.396  0.00  0.00    +0.000 A 
BRANCH   3  10
ATOM      9  C   UNL     1      12.124  13.972  19.495  0.00  0.00    +0.000 C 
ATOM     10  N   UNL     1      10.899  13.533  20.165  0.00  0.00    +0.000 N 
ATOM     11  C   UNL     1      10.372  14.377  21.224  0.00  0.00    +0.000 C 
ENDBRANCH   3  10
ENDBRANCH   1   6
BRANCH   2  12
ATOM     12  N   UNL     1       7.645   6.828  17.848  0.00  0.00    +0.000 N 
ATOM     13  C   UNL     1       7.292   5.766  18.661  0.00  0.00    +0.000 C 
ATOM     14  O   UNL     1       7.541   5.671  19.864  0.00  0.00    +0.000 OA
ATOM     15  H   UNL     1       7.427   6.899  16.862  0.00  0.00    +0.000 HD
BRANCH  13  16
ATOM     16  C   UNL     1       6.551   4.643  17.975  0.00  0.00    +0.000 C 
BRANCH  16  17
ATOM     17  N   UNL     1       5.110   4.626  18.328  0.00  0.00    +0.000 N 
ATOM     18  C   UNL     1       4.661   3.828  19.330  0.00  0.00    +0.000 A 
ATOM     19  C   UNL     1       3.310   3.796  19.662  0.00  0.00    +0.000 A 
ATOM     20  C   UNL     1       2.417   4.603  18.969  0.00  0.00    +0.000 A 
ATOM     21  C   UNL     1       2.892   5.430  17.962  0.00  0.00    +0.000 A 
ATOM     22  C   UNL     1       4.248   5.423  17.654  0.00  0.00    +0.000 A 
ENDBRANCH  16  17
ENDBRANCH  13  16
ENDBRANCH   2  12
TORSDOF 5
ENDMDL
MODEL 4
REMARK VINA RESULT:      -6.8      1.752      2.174
REMARK  Name = 
REMARK  7 active torsions:
REMARK  status: ('A' for Active; 'I' for Inactive)
REMARK    1  A    between atoms: C_1  and  N_2
REMARK    2  A    between atoms: N_2  and  C_3
REMARK    3  A    between atoms: N_2  and  C_4
REMARK    4  A    between atoms: C_7  and  C_8
REMARK    5  A    between atoms: N_9  and  N_10
REMARK    6  A    between atoms: C_11  and  C_13
REMARK    7  A    between atoms: C_13  and  N_14
REMARK                            x       y       z     vdW  Elec       q    Type
REMARK                         _______ _______ _______ _____ _____    ______ ____
ROOT
ATOM      1  C   UNL     1       9.296   9.745  19.182  0.00  0.00    +0.000 C 
ATOM      2  N   UNL     1       8.570   9.028  18.383  0.00  0.00    +0.000 NA
ENDROOT
BRANCH   1   6
ATOM      3  C   UNL     1      10.107  13.915  18.369  0.00  0.00    +0.000 A 
ATOM      4  C   UNL     1      10.864  13.173  19.294  0.00  0.00    +0.000 A 
ATOM      5  C   UNL     1      10.614  11.821  19.559  0.00  0.00    +0.000 A 
ATOM      6  C   UNL     1       9.593  11.161  18.889  0.00  0.00    +0.000 A 
ATOM      7  C   UNL     1       8.841  11.847  17.938  0.00  0.00    +0.000 A 
ATOM      8  C   UNL     1       9.101  13.204  17.689  0.00  0.00    +0.000 A 
BRANCH   3  10
ATOM      9  C   UNL     1       9.195  16.178  17.982  0.00  0.00    +0.000 C 
ATOM     10  N   UNL     1      10.330  15.272  18.163  0.00  0.00    +0.000 N 
ATOM     11  C   UNL     1      11.646  15.867  18.328  0.00  0.00    +0.000 C 
ENDBRANCH   3  10
ENDBRANCH   1   6
BRANCH   2  12
ATOM     12  N   UNL     1       8.347   7.728  18.714  0.00  0.00    +0.000 N 
ATOM     13  C   UNL     1       7.621   6.961  17.820  0.00  0.00    +0.000 C 
ATOM     14  O   UNL     1       7.152   7.358  16.753  0.00  0.00    +0.000 OA
ATOM     15  H   UNL     1       8.736   7.388  19.585  0.00  0.00    +0.000 HD
BRANCH  13  16
ATOM     16  C   UNL     1       7.396   5.525  18.231  0.00  0.00    +0.000 C 
BRANCH  16  17
ATOM     17  N   UNL     1       5.986   5.104  18.044  0.00  0.00    +0.000 N 
ATOM     18  C   UNL     1       5.633   4.356  16.967  0.00  0.00    +0.000 A 
ATOM     19  C   UNL     1       4.312   3.965  16.776  0.00  0.00    +0.000 A 
ATOM     20  C   UNL     1       3.348   4.332  17.707  0.00  0.00    +0.000 A 
ATOM     21  C   UNL     1       3.726   5.078  18.814  0.00  0.00    +0.000 A 
ATOM     22  C   UNL     1       5.055   5.458  18.961  0.00  0.00    +0.000 A 
ENDBRANCH  16  17
ENDBRANCH  13  16
ENDBRANCH   2  12
TORSDOF 5
ENDMDL
MODEL 5
REMARK VINA RESULT:      -6.8      0.453      1.277
REMARK  Name = 
REMARK  7 active torsions:
REMARK  status: ('A' for Active; 'I' for Inactive)
REMARK    1  A    between atoms: C_1  and  N_2
REMARK    2  A    between atoms: N_2  and  C_3
REMARK    3  A    between atoms: N_2  and  C_4
REMARK    4  A    between atoms: C_7  and  C_8
REMARK    5  A    between atoms: N_9  and  N_10
REMARK    6  A    between atoms: C_11  and  C_13
REMARK    7  A    between atoms: C_13  and  N_14
REMARK                            x       y       z     vdW  Elec       q    Type
REMARK                         _______ _______ _______ _____ _____    ______ ____
ROOT
ATOM      1  C   UNL     1       7.921   8.813  17.758  0.00  0.00    +0.000 C 
ATOM      2  N   UNL     1       8.116   7.646  18.285  0.00  0.00    +0.000 NA
ENDROOT
BRANCH   1   6
ATOM      3  C   UNL     1       9.748  12.378  19.389  0.00  0.00    +0.000 A 
ATOM      4  C   UNL     1       9.880  11.121  20.007  0.00  0.00    +0.000 A 
ATOM      5  C   UNL     1       9.299   9.960  19.484  0.00  0.00    +0.000 A 
ATOM      6  C   UNL     1       8.569  10.022  18.304  0.00  0.00    +0.000 A 
ATOM      7  C   UNL     1       8.442  11.239  17.639  0.00  0.00    +0.000 A 
ATOM      8  C   UNL     1       9.026  12.396  18.182  0.00  0.00    +0.000 A 
BRANCH   3  10
ATOM      9  C   UNL     1      11.713  13.809  19.829  0.00  0.00    +0.000 C 
ATOM     10  N   UNL     1      10.282  13.531  19.955  0.00  0.00    +0.000 N 
ATOM     11  C   UNL     1       9.437  14.585  20.492  0.00  0.00    +0.000 C 
ENDBRANCH   3  10
ENDBRANCH   1   6
BRANCH   2  12
ATOM     12  N   UNL     1       7.478   6.579  17.733  0.00  0.00    +0.000 N 
ATOM     13  C   UNL     1       6.993   5.614  18.596  0.00  0.00    +0.000 C 
ATOM     14  O   UNL     1       7.095   5.634  19.824  0.00  0.00    +0.000 OA
ATOM     15  H   UNL     1       7.380   6.557  16.725  0.00  0.00    +0.000 HD
BRANCH  13  16
ATOM     16  C   UNL     1       6.294   4.447  17.938  0.00  0.00    +0.000 C 
BRANCH  16  17
ATOM     17  N   UNL     1       4.822   4.510  18.106  0.00  0.00    +0.000 N 
ATOM     18  C   UNL     1       4.158   5.674  17.887  0.00  0.00    +0.000 A 
ATOM     19  C   UNL     1       2.778   5.745  18.053  0.00  0.00    +0.000 A 
ATOM     20  C   UNL     1       2.074   4.609  18.431  0.00  0.00    +0.000 A 
ATOM     21  C   UNL     1       2.762   3.421  18.629  0.00  0.00    +0.000 A 
ATOM     22  C   UNL     1       4.142   3.395  18.465  0.00  0.00    +0.000 A 
ENDBRANCH  16  17
ENDBRANCH  13  16
ENDBRANCH   2  12
TORSDOF 5
ENDMDL
MODEL 6
REMARK VINA RESULT:      -6.7      1.777      2.167
REMARK  Name = 
REMARK  7 active torsions:
REMARK  status: ('A' for Active; 'I' for Inactive)
REMARK    1  A    between atoms: C_1  and  N_2
REMARK    2  A    between atoms: N_2  and  C_3
REMARK    3  A    between atoms: N_2  and  C_4
REMARK    4  A    between atoms: C_7  and  C_8
REMARK    5  A    between atoms: N_9  and  N_10
REMARK    6  A    between atoms: C_11  and  C_13
REMARK    7  A    between atoms: C_13  and  N_14
REMARK                            x       y       z     vdW  Elec       q    Type
REMARK                         _______ _______ _______ _____ _____    ______ ____
ROOT
ATOM      1  C   UNL     1       9.169   9.653  19.112  0.00  0.00    +0.000 C 
ATOM      2  N   UNL     1       8.512   8.911  18.278  0.00  0.00    +0.000 NA
ENDROOT
BRANCH   1   6
ATOM      3  C   UNL     1       9.856  13.854  18.345  0.00  0.00    +0.000 A 
ATOM      4  C   UNL     1      10.597  13.139  19.302  0.00  0.00    +0.000 A 
ATOM      5  C   UNL     1      10.388  11.778  19.554  0.00  0.00    +0.000 A 
ATOM      6  C   UNL     1       9.425  11.081  18.835  0.00  0.00    +0.000 A 
ATOM      7  C   UNL     1       8.692  11.740  17.852  0.00  0.00    +0.000 A 
ATOM      8  C   UNL     1       8.910  13.108  17.617  0.00  0.00    +0.000 A 
BRANCH   3  10
ATOM      9  C   UNL     1      11.304  15.718  17.614  0.00  0.00    +0.000 C 
ATOM     10  N   UNL     1      10.036  15.220  18.150  0.00  0.00    +0.000 N 
ATOM     11  C   UNL     1       8.936  16.163  18.262  0.00  0.00    +0.000 C 
ENDBRANCH   3  10
ENDBRANCH   1   6
BRANCH   2  12
ATOM     12  N   UNL     1       8.323   7.602  18.597  0.00  0.00    +0.000 N 
ATOM     13  C   UNL     1       7.567   6.840  17.726  0.00  0.00    +0.000 C 
ATOM     14  O   UNL     1       7.043   7.247  16.688  0.00  0.00    +0.000 OA
ATOM     15  H   UNL     1       8.758   7.255  19.443  0.00  0.00    +0.000 HD
BRANCH  13  16
ATOM     16  C   UNL     1       7.383   5.394  18.121  0.00  0.00    +0.000 C 
BRANCH  16  17
ATOM     17  N   UNL     1       5.951   5.017  18.213  0.00  0.00    +0.000 N 
ATOM     18  C   UNL     1       5.212   5.395  19.287  0.00  0.00    +0.000 A 
ATOM     19  C   UNL     1       3.871   5.037  19.388  0.00  0.00    +0.000 A 
ATOM     20  C   UNL     1       3.281   4.300  18.369  0.00  0.00    +0.000 A 
ATOM     21  C   UNL     1       4.042   3.940  17.267  0.00  0.00    +0.000 A 
ATOM     22  C   UNL     1       5.382   4.307  17.210  0.00  0.00    +0.000 A 
ENDBRANCH  16  17
ENDBRANCH  13  16
ENDBRANCH   2  12
TORSDOF 5
ENDMDL
MODEL 7
REMARK VINA RESULT:      -6.7      1.469      1.902
REMARK  Name = 
REMARK  7 active torsions:
REMARK  status: ('A' for Active; 'I' for Inactive)
REMARK    1  A    between atoms: C_1  and  N_2
REMARK    2  A    between atoms: N_2  and  C_3
REMARK    3  A    between atoms: N_2  and  C_4
REMARK    4  A    between atoms: C_7  and  C_8
REMARK    5  A    between atoms: N_9  and  N_10
REMARK    6  A    between atoms: C_11  and  C_13
REMARK    7  A    between atoms: C_13  and  N_14
REMARK                            x       y       z     vdW  Elec       q    Type
REMARK                         _______ _______ _______ _____ _____    ______ ____
ROOT
ATOM      1  C   UNL     1       8.801   8.926  18.999  0.00  0.00    +0.000 C 
ATOM      2  N   UNL     1       8.189   8.354  18.010  0.00  0.00    +0.000 NA
ENDROOT
BRANCH   1   6
ATOM      3  C   UNL     1      10.085  13.050  18.770  0.00  0.00    +0.000 A 
ATOM      4  C   UNL     1       9.203  12.489  17.829  0.00  0.00    +0.000 A 
ATOM      5  C   UNL     1       8.776  11.157  17.897  0.00  0.00    +0.000 A 
ATOM      6  C   UNL     1       9.216  10.341  18.931  0.00  0.00    +0.000 A 
ATOM      7  C   UNL     1      10.062  10.865  19.906  0.00  0.00    +0.000 A 
ATOM      8  C   UNL     1      10.486  12.201  19.818  0.00  0.00    +0.000 A 
BRANCH   3  10
ATOM      9  C   UNL     1      11.836  14.729  19.234  0.00  0.00    +0.000 C 
ATOM     10  N   UNL     1      10.546  14.357  18.652  0.00  0.00    +0.000 N 
ATOM     11  C   UNL     1       9.893  15.326  17.788  0.00  0.00    +0.000 C 
ENDBRANCH   3  10
ENDBRANCH   1   6
BRANCH   2  12
ATOM     12  N   UNL     1       7.847   7.044  18.142  0.00  0.00    +0.000 N 
ATOM     13  C   UNL     1       6.901   6.545  17.265  0.00  0.00    +0.000 C 
ATOM     14  O   UNL     1       6.336   7.188  16.379  0.00  0.00    +0.000 OA
ATOM     15  H   UNL     1       8.312   6.503  18.861  0.00  0.00    +0.000 HD
BRANCH  13  16
ATOM     16  C   UNL     1       6.550   5.088  17.449  0.00  0.00    +0.000 C 
BRANCH  16  17
ATOM     17  N   UNL     1       5.162   4.904  17.939  0.00  0.00    +0.000 N 
ATOM     18  C   UNL     1       4.812   5.334  19.178  0.00  0.00    +0.000 A 
ATOM     19  C   UNL     1       3.515   5.157  19.651  0.00  0.00    +0.000 A 
ATOM     20  C   UNL     1       2.568   4.547  18.839  0.00  0.00    +0.000 A 
ATOM     21  C   UNL     1       2.933   4.132  17.567  0.00  0.00    +0.000 A 
ATOM     22  C   UNL     1       4.242   4.317  17.137  0.00  0.00    +0.000 A 
ENDBRANCH  16  17
ENDBRANCH  13  16
ENDBRANCH   2  12
TORSDOF 5
ENDMDL
MODEL 8
REMARK VINA RESULT:      -6.7      2.025      2.871
REMARK  Name = 
REMARK  7 active torsions:
REMARK  status: ('A' for Active; 'I' for Inactive)
REMARK    1  A    between atoms: C_1  and  N_2
REMARK    2  A    between atoms: N_2  and  C_3
REMARK    3  A    between atoms: N_2  and  C_4
REMARK    4  A    between atoms: C_7  and  C_8
REMARK    5  A    between atoms: N_9  and  N_10
REMARK    6  A    between atoms: C_11  and  C_13
REMARK    7  A    between atoms: C_13  and  N_14
REMARK                            x       y       z     vdW  Elec       q    Type
REMARK                         _______ _______ _______ _____ _____    ______ ____
ROOT
ATOM      1  C   UNL     1       9.581  10.214  19.013  0.00  0.00    +0.000 C 
ATOM      2  N   UNL     1       8.626   9.531  18.466  0.00  0.00    +0.000 NA
ENDROOT
BRANCH   1   6
ATOM      3  C   UNL     1      10.204  14.411  18.173  0.00  0.00    +0.000 A 
ATOM      4  C   UNL     1      10.821  13.399  17.417  0.00  0.00    +0.000 A 
ATOM      5  C   UNL     1      10.622  12.038  17.676  0.00  0.00    +0.000 A 
ATOM      6  C   UNL     1       9.777  11.645  18.706  0.00  0.00    +0.000 A 
ATOM      7  C   UNL     1       9.115  12.614  19.457  0.00  0.00    +0.000 A 
ATOM      8  C   UNL     1       9.333  13.975  19.188  0.00  0.00    +0.000 A 
BRANCH   3  10
ATOM      9  C   UNL     1      10.479  16.701  19.060  0.00  0.00    +0.000 C 
ATOM     10  N   UNL     1      10.461  15.759  17.940  0.00  0.00    +0.000 N 
ATOM     11  C   UNL     1      10.923  16.239  16.649  0.00  0.00    +0.000 C 
ENDBRANCH   3  10
ENDBRANCH   1   6
BRANCH   2  12
ATOM     12  N   UNL     1       8.515   8.214  18.791  0.00  0.00    +0.000 N 
ATOM     13  C   UNL     1       7.795   7.408  17.928  0.00  0.00    +0.000 C 
ATOM     14  O   UNL     1       7.240   7.781  16.894  0.00  0.00    +0.000 OA
ATOM     15  H   UNL     1       8.976   7.895  19.634  0.00  0.00    +0.000 HD
BRANCH  13  16
ATOM     16  C   UNL     1       7.696   5.955  18.329  0.00  0.00    +0.000 C 
BRANCH  16  17
ATOM     17  N   UNL     1       6.621   5.244  17.596  0.00  0.00    +0.000 N 
ATOM     18  C   UNL     1       6.914   4.528  16.479  0.00  0.00    +0.000 A 
ATOM     19  C   UNL     1       5.911   3.866  15.778  0.00  0.00    +0.000 A 
ATOM     20  C   UNL     1       4.601   3.927  16.235  0.00  0.00    +0.000 A 
ATOM     21  C   UNL     1       4.319   4.643  17.388  0.00  0.00    +0.000 A 
ATOM     22  C   UNL     1       5.348   5.300  18.054  0.00  0.00    +0.000 A 
ENDBRANCH  16  17
ENDBRANCH  13  16
ENDBRANCH   2  12
TORSDOF 5
ENDMDL
MODEL 9
REMARK VINA RESULT:      -6.6      1.472      2.089
REMARK  Name = 
REMARK  7 active torsions:
REMARK  status: ('A' for Active; 'I' for Inactive)
REMARK    1  A    between atoms: C_1  and  N_2
REMARK    2  A    between atoms: N_2  and  C_3
REMARK    3  A    between atoms: N_2  and  C_4
REMARK    4  A    between atoms: C_7  and  C_8
REMARK    5  A    between atoms: N_9  and  N_10
REMARK    6  A    between atoms: C_11  and  C_13
REMARK    7  A    between atoms: C_13  and  N_14
REMARK                            x       y       z     vdW  Elec       q    Type
REMARK                         _______ _______ _______ _____ _____    ______ ____
ROOT
ATOM      1  C   UNL     1       8.311   8.356  18.175  0.00  0.00    +0.000 C 
ATOM      2  N   UNL     1       7.765   7.978  17.062  0.00  0.00    +0.000 NA
ENDROOT
BRANCH   1   6
ATOM      3  C   UNL     1       9.329  12.497  18.896  0.00  0.00    +0.000 A 
ATOM      4  C   UNL     1       8.557  12.100  17.790  0.00  0.00    +0.000 A 
ATOM      5  C   UNL     1       8.216  10.763  17.551  0.00  0.00    +0.000 A 
ATOM      6  C   UNL     1       8.634   9.774  18.431  0.00  0.00    +0.000 A 
ATOM      7  C   UNL     1       9.370  10.126  19.560  0.00  0.00    +0.000 A 
ATOM      8  C   UNL     1       9.709  11.471  19.781  0.00  0.00    +0.000 A 
BRANCH   3  10
ATOM      9  C   UNL     1      10.193  14.609  17.950  0.00  0.00    +0.000 C 
ATOM     10  N   UNL     1       9.709  13.822  19.085  0.00  0.00    +0.000 N 
ATOM     11  C   UNL     1       9.447  14.526  20.329  0.00  0.00    +0.000 C 
ENDBRANCH   3  10
ENDBRANCH   1   6
BRANCH   2  12
ATOM     12  N   UNL     1       7.505   6.654  16.894  0.00  0.00    +0.000 N 
ATOM     13  C   UNL     1       6.177   6.269  16.845  0.00  0.00    +0.000 C 
ATOM     14  O   UNL     1       5.209   7.024  16.948  0.00  0.00    +0.000 OA
ATOM     15  H   UNL     1       8.294   6.026  16.799  0.00  0.00    +0.000 HD
BRANCH  13  16
ATOM     16  C   UNL     1       5.937   4.790  16.660  0.00  0.00    +0.000 C 
BRANCH  16  17
ATOM     17  N   UNL     1       4.821   4.295  17.502  0.00  0.00    +0.000 N 
ATOM     18  C   UNL     1       3.628   3.975  16.936  0.00  0.00    +0.000 A 
ATOM     19  C   UNL     1       2.571   3.520  17.718  0.00  0.00    +0.000 A 
ATOM     20  C   UNL     1       2.745   3.377  19.089  0.00  0.00    +0.000 A 
ATOM     21  C   UNL     1       3.975   3.687  19.650  0.00  0.00    +0.000 A 
ATOM     22  C   UNL     1       5.003   4.149  18.836  0.00  0.00    +0.000 A 
ENDBRANCH  16  17
ENDBRANCH  13  16
ENDBRANCH   2  12
TORSDOF 5
ENDMDL
