MODEL 1
REMARK VINA RESULT:      -7.3      0.000      0.000
REMARK  Name = 
REMARK  5 active torsions:
REMARK  status: ('A' for Active; 'I' for Inactive)
REMARK    1  A    between atoms: C_2  and  N_3
REMARK    2  A    between atoms: C_5  and  O_6
REMARK    3  A    between atoms: O_6  and  C_7
REMARK    4  A    between atoms: C_7  and  C_8
REMARK    5  A    between atoms: C_11  and  C_12
REMARK                            x       y       z     vdW  Elec       q    Type
REMARK                         _______ _______ _______ _____ _____    ______ ____
ROOT
ATOM      1  C   UNL     1       2.801   6.664  18.549  0.00  0.00    +0.000 A 
ATOM      2  C   UNL     1       2.384   6.308  19.834  0.00  0.00    +0.000 A 
ATOM      3  C   UNL     1       1.653   7.204  20.620  0.00  0.00    +0.000 A 
ATOM      4  C   UNL     1       1.330   8.495  20.165  0.00  0.00    +0.000 A 
ATOM      5  C   UNL     1       1.762   8.840  18.872  0.00  0.00    +0.000 A 
ATOM      6  C   UNL     1       2.480   7.940  18.074  0.00  0.00    +0.000 A 
ENDROOT
BRANCH   4   7
ATOM      7  C   UNL     1       0.562   9.436  21.015  0.00  0.00    +0.000 A 
ATOM      8  C   UNL     1       0.261  10.740  20.567  0.00  0.00    +0.000 A 
ATOM      9  C   UNL     1      -0.421  11.653  21.376  0.00  0.00    +0.000 A 
ATOM     10  C   UNL     1      -0.832  11.268  22.642  0.00  0.00    +0.000 A 
ATOM     11  F   UNL     1      -1.481  12.142  23.420  0.00  0.00    +0.000 F 
ATOM     12  C   UNL     1      -0.576   9.988  23.112  0.00  0.00    +0.000 A 
ATOM     13  C   UNL     1       0.121   9.081  22.305  0.00  0.00    +0.000 A 
ENDBRANCH   4   7
BRANCH   1  14
ATOM     14  C   UNL     1       3.599   5.700  17.714  0.00  0.00    +0.000 C 
BRANCH  14  15
ATOM     15  O   UNL     1       2.867   4.486  17.565  0.00  0.00    +0.000 OA
BRANCH  15  18
ATOM     16  N   UNL     1       3.427   2.428  19.949  0.00  0.00    +0.000 N 
ATOM     17  C   UNL     1       4.385   3.349  19.253  0.00  0.00    +0.000 C 
ATOM     18  C   UNL     1       3.572   3.277  17.942  0.00  0.00    +0.000 C 
ATOM     19  C   UNL     1       2.751   2.167  18.637  0.00  0.00    +0.000 C 
BRANCH  16  21
ATOM     20  N   UNL     1       2.192   3.019  22.041  0.00  0.00    +0.000 NA
ATOM     21  C   UNL     1       2.769   2.750  21.076  0.00  0.00    +0.000 C 
ENDBRANCH  16  21
ENDBRANCH  15  18
ENDBRANCH  14  15
ENDBRANCH   1  14
TORSDOF 5
ENDMDL
MODEL 2
REMARK VINA RESULT:      -7.3      0.196      1.059
REMARK  Name = 
REMARK  5 active torsions:
REMARK  status: ('A' for Active; 'I' for Inactive)
REMARK    1  A    between atoms: C_2  and  N_3
REMARK    2  A    between atoms: C_5  and  O_6
REMARK    3  A    between atoms: O_6  and  C_7
REMARK    4  A    between atoms: C_7  and  C_8
REMARK    5  A    between atoms: C_11  and  C_12
REMARK                            x       y       z     vdW  Elec       q    Type
REMARK                         _______ _______ _______ _____ _____    ______ ____
ROOT
ATOM      1  C   UNL     1       2.899   6.653  18.488  0.00  0.00    +0.000 A 
ATOM      2  C   UNL     1       2.463   6.268  19.759  0.00  0.00    +0.000 A 
ATOM      3  C   UNL     1       1.713   7.143  20.550  0.00  0.00    +0.000 A 
ATOM      4  C   UNL     1       1.387   8.440  20.115  0.00  0.00    +0.000 A 
ATOM      5  C   UNL     1       1.839   8.815  18.838  0.00  0.00    +0.000 A 
ATOM      6  C   UNL     1       2.577   7.936  18.033  0.00  0.00    +0.000 A 
ENDROOT
BRANCH   4   7
ATOM      7  C   UNL     1       0.599   9.359  20.972  0.00  0.00    +0.000 A 
ATOM      8  C   UNL     1       0.354   9.058  22.328  0.00  0.00    +0.000 A 
ATOM      9  C   UNL     1      -0.425   9.891  23.135  0.00  0.00    +0.000 A 
ATOM     10  C   UNL     1      -0.956  11.055  22.600  0.00  0.00    +0.000 A 
ATOM     11  F   UNL     1      -1.707  11.852  23.369  0.00  0.00    +0.000 F 
ATOM     12  C   UNL     1      -0.720  11.399  21.277  0.00  0.00    +0.000 A 
ATOM     13  C   UNL     1       0.049  10.554  20.468  0.00  0.00    +0.000 A 
ENDBRANCH   4   7
BRANCH   1  14
ATOM     14  C   UNL     1       3.717   5.712  17.647  0.00  0.00    +0.000 C 
BRANCH  14  15
ATOM     15  O   UNL     1       3.019   4.478  17.502  0.00  0.00    +0.000 OA
BRANCH  15  18
ATOM     16  N   UNL     1       3.564   2.424  19.893  0.00  0.00    +0.000 N 
ATOM     17  C   UNL     1       4.514   3.381  19.237  0.00  0.00    +0.000 C 
ATOM     18  C   UNL     1       3.750   3.291  17.897  0.00  0.00    +0.000 C 
ATOM     19  C   UNL     1       2.944   2.150  18.556  0.00  0.00    +0.000 C 
BRANCH  16  21
ATOM     20  N   UNL     1       2.259   2.975  21.953  0.00  0.00    +0.000 NA
ATOM     21  C   UNL     1       2.857   2.716  20.997  0.00  0.00    +0.000 C 
ENDBRANCH  16  21
ENDBRANCH  15  18
ENDBRANCH  14  15
ENDBRANCH   1  14
TORSDOF 5
ENDMDL
MODEL 3
REMARK VINA RESULT:      -7.3      0.119      1.054
REMARK  Name = 
REMARK  5 active torsions:
REMARK  status: ('A' for Active; 'I' for Inactive)
REMARK    1  A    between atoms: C_2  and  N_3
REMARK    2  A    between atoms: C_5  and  O_6
REMARK    3  A    between atoms: O_6  and  C_7
REMARK    4  A    between atoms: C_7  and  C_8
REMARK    5  A    between atoms: C_11  and  C_12
REMARK                            x       y       z     vdW  Elec       q    Type
REMARK                         _______ _______ _______ _____ _____    ______ ____
ROOT
ATOM      1  C   UNL     1       2.763   6.708  18.609  0.00  0.00    +0.000 A 
ATOM      2  C   UNL     1       2.397   7.968  18.126  0.00  0.00    +0.000 A 
ATOM      3  C   UNL     1       1.664   8.850  18.923  0.00  0.00    +0.000 A 
ATOM      4  C   UNL     1       1.246   8.504  20.221  0.00  0.00    +0.000 A 
ATOM      5  C   UNL     1       1.615   7.231  20.689  0.00  0.00    +0.000 A 
ATOM      6  C   UNL     1       2.366   6.349  19.901  0.00  0.00    +0.000 A 
ENDROOT
BRANCH   4   7
ATOM      7  C   UNL     1       0.459   9.449  21.050  0.00  0.00    +0.000 A 
ATOM      8  C   UNL     1       0.049  10.698  20.537  0.00  0.00    +0.000 A 
ATOM      9  C   UNL     1      -0.653  11.618  21.321  0.00  0.00    +0.000 A 
ATOM     10  C   UNL     1      -0.976  11.291  22.629  0.00  0.00    +0.000 A 
ATOM     11  F   UNL     1      -1.644  12.172  23.383  0.00  0.00    +0.000 F 
ATOM     12  C   UNL     1      -0.612  10.064  23.164  0.00  0.00    +0.000 A 
ATOM     13  C   UNL     1       0.105   9.152  22.380  0.00  0.00    +0.000 A 
ENDBRANCH   4   7
BRANCH   1  14
ATOM     14  C   UNL     1       3.541   5.758  17.741  0.00  0.00    +0.000 C 
BRANCH  14  15
ATOM     15  O   UNL     1       2.793   4.556  17.565  0.00  0.00    +0.000 OA
BRANCH  15  18
ATOM     16  N   UNL     1       3.367   2.450  19.903  0.00  0.00    +0.000 N 
ATOM     17  C   UNL     1       4.327   3.366  19.202  0.00  0.00    +0.000 C 
ATOM     18  C   UNL     1       3.485   3.330  17.908  0.00  0.00    +0.000 C 
ATOM     19  C   UNL     1       2.660   2.223  18.602  0.00  0.00    +0.000 C 
BRANCH  16  21
ATOM     20  N   UNL     1       2.198   3.021  22.038  0.00  0.00    +0.000 NA
ATOM     21  C   UNL     1       2.739   2.764  21.049  0.00  0.00    +0.000 C 
ENDBRANCH  16  21
ENDBRANCH  15  18
ENDBRANCH  14  15
ENDBRANCH   1  14
TORSDOF 5
ENDMDL
MODEL 4
REMARK VINA RESULT:      -7.3      0.240      1.490
REMARK  Name = 
REMARK  5 active torsions:
REMARK  status: ('A' for Active; 'I' for Inactive)
REMARK    1  A    between atoms: C_2  and  N_3
REMARK    2  A    between atoms: C_5  and  O_6
REMARK    3  A    between atoms: O_6  and  C_7
REMARK    4  A    between atoms: C_7  and  C_8
REMARK    5  A    between atoms: C_11  and  C_12
REMARK                            x       y       z     vdW  Elec       q    Type
REMARK                         _______ _______ _______ _____ _____    ______ ____
ROOT
ATOM      1  C   UNL     1       2.915   6.576  18.514  0.00  0.00    +0.000 A 
ATOM      2  C   UNL     1       2.566   7.850  18.059  0.00  0.00    +0.000 A 
ATOM      3  C   UNL     1       1.833   8.721  18.870  0.00  0.00    +0.000 A 
ATOM      4  C   UNL     1       1.401   8.348  20.156  0.00  0.00    +0.000 A 
ATOM      5  C   UNL     1       1.754   7.061  20.597  0.00  0.00    +0.000 A 
ATOM      6  C   UNL     1       2.504   6.190  19.794  0.00  0.00    +0.000 A 
ENDROOT
BRANCH   4   7
ATOM      7  C   UNL     1       0.615   9.280  21.000  0.00  0.00    +0.000 A 
ATOM      8  C   UNL     1       0.427   9.033  22.376  0.00  0.00    +0.000 A 
ATOM      9  C   UNL     1      -0.349   9.877  23.173  0.00  0.00    +0.000 A 
ATOM     10  C   UNL     1      -0.935  11.000  22.608  0.00  0.00    +0.000 A 
ATOM     11  F   UNL     1      -1.682  11.808  23.369  0.00  0.00    +0.000 F 
ATOM     12  C   UNL     1      -0.755  11.292  21.264  0.00  0.00    +0.000 A 
ATOM     13  C   UNL     1       0.010  10.435  20.465  0.00  0.00    +0.000 A 
ENDBRANCH   4   7
BRANCH   1  14
ATOM     14  C   UNL     1       3.692   5.639  17.631  0.00  0.00    +0.000 C 
BRANCH  14  15
ATOM     15  O   UNL     1       2.988   4.405  17.513  0.00  0.00    +0.000 OA
BRANCH  15  18
ATOM     16  N   UNL     1       3.580   2.367  19.907  0.00  0.00    +0.000 N 
ATOM     17  C   UNL     1       4.518   3.319  19.224  0.00  0.00    +0.000 C 
ATOM     18  C   UNL     1       3.726   3.221  17.902  0.00  0.00    +0.000 C 
ATOM     19  C   UNL     1       2.932   2.085  18.585  0.00  0.00    +0.000 C 
BRANCH  16  21
ATOM     20  N   UNL     1       2.299   2.936  21.977  0.00  0.00    +0.000 NA
ATOM     21  C   UNL     1       2.895   2.668  21.023  0.00  0.00    +0.000 C 
ENDBRANCH  16  21
ENDBRANCH  15  18
ENDBRANCH  14  15
ENDBRANCH   1  14
TORSDOF 5
ENDMDL
MODEL 5
REMARK VINA RESULT:      -7.1      5.333      8.272
REMARK  Name = 
REMARK  5 active torsions:
REMARK  status: ('A' for Active; 'I' for Inactive)
REMARK    1  A    between atoms: C_2  and  N_3
REMARK    2  A    between atoms: C_5  and  O_6
REMARK    3  A    between atoms: O_6  and  C_7
REMARK    4  A    between atoms: C_7  and  C_8
REMARK    5  A    between atoms: C_11  and  C_12
REMARK                            x       y       z     vdW  Elec       q    Type
REMARK                         _______ _______ _______ _____ _____    ______ ____
ROOT
ATOM      1  C   UNL     1       3.846   5.448  18.348  0.00  0.00    +0.000 A 
ATOM      2  C   UNL     1       4.029   4.133  17.912  0.00  0.00    +0.000 A 
ATOM      3  C   UNL     1       4.690   3.867  16.709  0.00  0.00    +0.000 A 
ATOM      4  C   UNL     1       5.173   4.900  15.885  0.00  0.00    +0.000 A 
ATOM      5  C   UNL     1       4.975   6.217  16.335  0.00  0.00    +0.000 A 
ATOM      6  C   UNL     1       4.328   6.488  17.548  0.00  0.00    +0.000 A 
ENDROOT
BRANCH   4   7
ATOM      7  C   UNL     1       5.863   4.600  14.607  0.00  0.00    +0.000 A 
ATOM      8  C   UNL     1       7.096   5.206  14.288  0.00  0.00    +0.000 A 
ATOM      9  C   UNL     1       7.735   4.969  13.068  0.00  0.00    +0.000 A 
ATOM     10  C   UNL     1       7.157   4.102  12.153  0.00  0.00    +0.000 A 
ATOM     11  F   UNL     1       7.765   3.877  10.982  0.00  0.00    +0.000 F 
ATOM     12  C   UNL     1       5.957   3.468  12.438  0.00  0.00    +0.000 A 
ATOM     13  C   UNL     1       5.312   3.721  13.655  0.00  0.00    +0.000 A 
ENDBRANCH   4   7
BRANCH   1  14
ATOM     14  C   UNL     1       3.122   5.727  19.637  0.00  0.00    +0.000 C 
BRANCH  14  15
ATOM     15  O   UNL     1       1.777   5.265  19.534  0.00  0.00    +0.000 OA
BRANCH  15  18
ATOM     16  N   UNL     1       2.625   2.641  21.156  0.00  0.00    +0.000 N 
ATOM     17  C   UNL     1       1.508   2.822  20.171  0.00  0.00    +0.000 C 
ATOM     18  C   UNL     1       1.360   4.313  20.544  0.00  0.00    +0.000 C 
ATOM     19  C   UNL     1       2.355   4.016  21.689  0.00  0.00    +0.000 C 
BRANCH  16  21
ATOM     20  N   UNL     1       4.899   1.821  20.519  0.00  0.00    +0.000 NA
ATOM     21  C   UNL     1       3.849   2.199  20.821  0.00  0.00    +0.000 C 
ENDBRANCH  16  21
ENDBRANCH  15  18
ENDBRANCH  14  15
ENDBRANCH   1  14
TORSDOF 5
ENDMDL
MODEL 6
REMARK VINA RESULT:      -7.0      1.037      1.108
REMARK  Name = 
REMARK  5 active torsions:
REMARK  status: ('A' for Active; 'I' for Inactive)
REMARK    1  A    between atoms: C_2  and  N_3
REMARK    2  A    between atoms: C_5  and  O_6
REMARK    3  A    between atoms: O_6  and  C_7
REMARK    4  A    between atoms: C_7  and  C_8
REMARK    5  A    between atoms: C_11  and  C_12
REMARK                            x       y       z     vdW  Elec       q    Type
REMARK                         _______ _______ _______ _____ _____    ______ ____
ROOT
ATOM      1  C   UNL     1       2.838   7.248  18.322  0.00  0.00    +0.000 A 
ATOM      2  C   UNL     1       2.555   6.818  19.621  0.00  0.00    +0.000 A 
ATOM      3  C   UNL     1       1.744   7.583  20.464  0.00  0.00    +0.000 A 
ATOM      4  C   UNL     1       1.203   8.815  20.053  0.00  0.00    +0.000 A 
ATOM      5  C   UNL     1       1.502   9.237  18.746  0.00  0.00    +0.000 A 
ATOM      6  C   UNL     1       2.301   8.466  17.891  0.00  0.00    +0.000 A 
ENDROOT
BRANCH   4   7
ATOM      7  C   UNL     1       0.352   9.619  20.964  0.00  0.00    +0.000 A 
ATOM      8  C   UNL     1      -0.254  10.815  20.526  0.00  0.00    +0.000 A 
ATOM      9  C   UNL     1      -1.020  11.606  21.385  0.00  0.00    +0.000 A 
ATOM     10  C   UNL     1      -1.210  11.201  22.697  0.00  0.00    +0.000 A 
ATOM     11  F   UNL     1      -1.939  11.960  23.524  0.00  0.00    +0.000 F 
ATOM     12  C   UNL     1      -0.650  10.020  23.162  0.00  0.00    +0.000 A 
ATOM     13  C   UNL     1       0.130   9.237  22.302  0.00  0.00    +0.000 A 
ENDBRANCH   4   7
BRANCH   1  14
ATOM     14  C   UNL     1       3.723   6.427  17.425  0.00  0.00    +0.000 C 
BRANCH  14  15
ATOM     15  O   UNL     1       4.640   5.680  18.220  0.00  0.00    +0.000 OA
BRANCH  15  18
ATOM     16  N   UNL     1       3.035   2.963  18.749  0.00  0.00    +0.000 N 
ATOM     17  C   UNL     1       4.387   3.373  19.253  0.00  0.00    +0.000 C 
ATOM     18  C   UNL     1       4.637   4.247  18.004  0.00  0.00    +0.000 C 
ATOM     19  C   UNL     1       3.344   3.620  17.437  0.00  0.00    +0.000 C 
BRANCH  16  21
ATOM     20  N   UNL     1       0.910   3.342  20.010  0.00  0.00    +0.000 NA
ATOM     21  C   UNL     1       1.894   3.161  19.431  0.00  0.00    +0.000 C 
ENDBRANCH  16  21
ENDBRANCH  15  18
ENDBRANCH  14  15
ENDBRANCH   1  14
TORSDOF 5
ENDMDL
MODEL 7
REMARK VINA RESULT:      -6.9      2.060      3.129
REMARK  Name = 
REMARK  5 active torsions:
REMARK  status: ('A' for Active; 'I' for Inactive)
REMARK    1  A    between atoms: C_2  and  N_3
REMARK    2  A    between atoms: C_5  and  O_6
REMARK    3  A    between atoms: O_6  and  C_7
REMARK    4  A    between atoms: C_7  and  C_8
REMARK    5  A    between atoms: C_11  and  C_12
REMARK                            x       y       z     vdW  Elec       q    Type
REMARK                         _______ _______ _______ _____ _____    ______ ____
ROOT
ATOM      1  C   UNL     1       2.684   7.354  18.482  0.00  0.00    +0.000 A 
ATOM      2  C   UNL     1       2.187   8.584  18.043  0.00  0.00    +0.000 A 
ATOM      3  C   UNL     1       1.402   9.377  18.885  0.00  0.00    +0.000 A 
ATOM      4  C   UNL     1       1.063   8.964  20.186  0.00  0.00    +0.000 A 
ATOM      5  C   UNL     1       1.565   7.722  20.610  0.00  0.00    +0.000 A 
ATOM      6  C   UNL     1       2.367   6.931  19.776  0.00  0.00    +0.000 A 
ENDROOT
BRANCH   4   7
ATOM      7  C   UNL     1       0.220   9.813  21.063  0.00  0.00    +0.000 A 
ATOM      8  C   UNL     1      -0.009   9.463  22.411  0.00  0.00    +0.000 A 
ATOM      9  C   UNL     1      -0.838  10.228  23.235  0.00  0.00    +0.000 A 
ATOM     10  C   UNL     1      -1.436  11.372  22.729  0.00  0.00    +0.000 A 
ATOM     11  F   UNL     1      -2.234  12.104  23.516  0.00  0.00    +0.000 F 
ATOM     12  C   UNL     1      -1.217  11.764  21.416  0.00  0.00    +0.000 A 
ATOM     13  C   UNL     1      -0.398  10.986  20.589  0.00  0.00    +0.000 A 
ENDBRANCH   4   7
BRANCH   1  14
ATOM     14  C   UNL     1       3.516   6.500  17.565  0.00  0.00    +0.000 C 
BRANCH  14  15
ATOM     15  O   UNL     1       3.050   5.154  17.619  0.00  0.00    +0.000 OA
BRANCH  15  18
ATOM     16  N   UNL     1       6.159   4.463  17.315  0.00  0.00    +0.000 N 
ATOM     17  C   UNL     1       4.980   3.817  16.650  0.00  0.00    +0.000 C 
ATOM     18  C   UNL     1       4.065   4.146  17.850  0.00  0.00    +0.000 C 
ATOM     19  C   UNL     1       5.355   4.594  18.574  0.00  0.00    +0.000 C 
BRANCH  16  21
ATOM     20  N   UNL     1       7.461   6.346  16.313  0.00  0.00    +0.000 NA
ATOM     21  C   UNL     1       6.862   5.470  16.772  0.00  0.00    +0.000 C 
ENDBRANCH  16  21
ENDBRANCH  15  18
ENDBRANCH  14  15
ENDBRANCH   1  14
TORSDOF 5
ENDMDL
MODEL 8
REMARK VINA RESULT:      -6.9      1.404      2.152
REMARK  Name = 
REMARK  5 active torsions:
REMARK  status: ('A' for Active; 'I' for Inactive)
REMARK    1  A    between atoms: C_2  and  N_3
REMARK    2  A    between atoms: C_5  and  O_6
REMARK    3  A    between atoms: O_6  and  C_7
REMARK    4  A    between atoms: C_7  and  C_8
REMARK    5  A    between atoms: C_11  and  C_12
REMARK                            x       y       z     vdW  Elec       q    Type
REMARK                         _______ _______ _______ _____ _____    ______ ____
ROOT
ATOM      1  C   UNL     1       2.758   7.280  18.481  0.00  0.00    +0.000 A 
ATOM      2  C   UNL     1       2.261   8.508  18.033  0.00  0.00    +0.000 A 
ATOM      3  C   UNL     1       1.470   9.303  18.866  0.00  0.00    +0.000 A 
ATOM      4  C   UNL     1       1.125   8.897  20.168  0.00  0.00    +0.000 A 
ATOM      5  C   UNL     1       1.627   7.657  20.601  0.00  0.00    +0.000 A 
ATOM      6  C   UNL     1       2.434   6.864  19.776  0.00  0.00    +0.000 A 
ENDROOT
BRANCH   4   7
ATOM      7  C   UNL     1       0.276   9.749  21.036  0.00  0.00    +0.000 A 
ATOM      8  C   UNL     1       0.028   9.398  22.380  0.00  0.00    +0.000 A 
ATOM      9  C   UNL     1      -0.807  10.165  23.196  0.00  0.00    +0.000 A 
ATOM     10  C   UNL     1      -1.392  11.313  22.684  0.00  0.00    +0.000 A 
ATOM     11  F   UNL     1      -2.196  12.048  23.462  0.00  0.00    +0.000 F 
ATOM     12  C   UNL     1      -1.156  11.706  21.375  0.00  0.00    +0.000 A 
ATOM     13  C   UNL     1      -0.331  10.925  20.556  0.00  0.00    +0.000 A 
ENDBRANCH   4   7
BRANCH   1  14
ATOM     14  C   UNL     1       3.597   6.424  17.573  0.00  0.00    +0.000 C 
BRANCH  14  15
ATOM     15  O   UNL     1       4.718   5.924  18.298  0.00  0.00    +0.000 OA
BRANCH  15  18
ATOM     16  N   UNL     1       3.567   2.958  17.963  0.00  0.00    +0.000 N 
ATOM     17  C   UNL     1       4.486   3.500  19.018  0.00  0.00    +0.000 C 
ATOM     18  C   UNL     1       5.069   4.542  18.039  0.00  0.00    +0.000 C 
ATOM     19  C   UNL     1       4.269   3.803  16.943  0.00  0.00    +0.000 C 
BRANCH  16  21
ATOM     20  N   UNL     1       1.081   2.871  18.210  0.00  0.00    +0.000 NA
ATOM     21  C   UNL     1       2.231   2.904  18.094  0.00  0.00    +0.000 C 
ENDBRANCH  16  21
ENDBRANCH  15  18
ENDBRANCH  14  15
ENDBRANCH   1  14
TORSDOF 5
ENDMDL
MODEL 9
REMARK VINA RESULT:      -6.9      1.081      1.934
REMARK  Name = 
REMARK  5 active torsions:
REMARK  status: ('A' for Active; 'I' for Inactive)
REMARK    1  A    between atoms: C_2  and  N_3
REMARK    2  A    between atoms: C_5  and  O_6
REMARK    3  A    between atoms: O_6  and  C_7
REMARK    4  A    between atoms: C_7  and  C_8
REMARK    5  A    between atoms: C_11  and  C_12
REMARK                            x       y       z     vdW  Elec       q    Type
REMARK                         _______ _______ _______ _____ _____    ______ ____
ROOT
ATOM      1  C   UNL     1       2.726   6.231  18.743  0.00  0.00    +0.000 A 
ATOM      2  C   UNL     1       2.502   7.516  18.241  0.00  0.00    +0.000 A 
ATOM      3  C   UNL     1       1.818   8.468  19.000  0.00  0.00    +0.000 A 
ATOM      4  C   UNL     1       1.310   8.172  20.278  0.00  0.00    +0.000 A 
ATOM      5  C   UNL     1       1.537   6.873  20.767  0.00  0.00    +0.000 A 
ATOM      6  C   UNL     1       2.238   5.919  20.016  0.00  0.00    +0.000 A 
ENDROOT
BRANCH   4   7
ATOM      7  C   UNL     1       0.576   9.192  21.067  0.00  0.00    +0.000 A 
ATOM      8  C   UNL     1       0.362   9.025  22.451  0.00  0.00    +0.000 A 
ATOM      9  C   UNL     1      -0.366   9.954  23.197  0.00  0.00    +0.000 A 
ATOM     10  C   UNL     1      -0.877  11.081  22.571  0.00  0.00    +0.000 A 
ATOM     11  F   UNL     1      -1.579  11.971  23.283  0.00  0.00    +0.000 F 
ATOM     12  C   UNL     1      -0.668  11.295  21.217  0.00  0.00    +0.000 A 
ATOM     13  C   UNL     1       0.049  10.353  20.469  0.00  0.00    +0.000 A 
ENDBRANCH   4   7
BRANCH   1  14
ATOM     14  C   UNL     1       3.451   5.206  17.915  0.00  0.00    +0.000 C 
BRANCH  14  15
ATOM     15  O   UNL     1       4.515   4.646  18.681  0.00  0.00    +0.000 OA
BRANCH  15  18
ATOM     16  N   UNL     1       2.737   1.992  18.860  0.00  0.00    +0.000 N 
ATOM     17  C   UNL     1       3.715   2.540  19.856  0.00  0.00    +0.000 C 
ATOM     18  C   UNL     1       4.554   3.198  18.737  0.00  0.00    +0.000 C 
ATOM     19  C   UNL     1       3.647   2.427  17.751  0.00  0.00    +0.000 C 
BRANCH  16  21
ATOM     20  N   UNL     1       0.284   2.473  18.927  0.00  0.00    +0.000 NA
ATOM     21  C   UNL     1       1.419   2.253  18.889  0.00  0.00    +0.000 C 
ENDBRANCH  16  21
ENDBRANCH  15  18
ENDBRANCH  14  15
ENDBRANCH   1  14
TORSDOF 5
ENDMDL
