MODEL 1
REMARK VINA RESULT:      -7.4      0.000      0.000
REMARK  Name = 
REMARK  6 active torsions:
REMARK  status: ('A' for Active; 'I' for Inactive)
REMARK    1  A    between atoms: C_1  and  C_2
REMARK    2  A    between atoms: N_9  and  C_10
REMARK    3  A    between atoms: C_10  and  C_11
REMARK    4  A    between atoms: C_11  and  C_12
REMARK    5  A    between atoms: C_12  and  N_13
REMARK    6  A    between atoms: C_18  and  C_20
REMARK                            x       y       z     vdW  Elec       q    Type
REMARK                         _______ _______ _______ _____ _____    ______ ____
ROOT
ATOM      1  C   UNL     1      -0.312   9.901  23.217  0.00  0.00    +0.000 C 
ATOM      2  C   UNL     1      -0.386  10.453  21.821  0.00  0.00    +0.000 A 
ATOM      3  C   UNL     1      -1.103  11.645  21.586  0.00  0.00    +0.000 A 
ATOM      4  C   UNL     1      -1.192  12.198  20.312  0.00  0.00    +0.000 A 
ATOM      5  C   UNL     1      -0.582  11.577  19.224  0.00  0.00    +0.000 A 
ATOM      6  C   UNL     1       0.123  10.385  19.454  0.00  0.00    +0.000 A 
ATOM      7  S   UNL     1       0.921   9.381  18.319  0.00  0.00    +0.000 S 
ATOM      8  C   UNL     1       1.516   8.369  19.578  0.00  0.00    +0.000 A 
ATOM      9  N   UNL     1       2.364   7.261  19.299  0.00  0.00    +0.000 N 
ATOM     10  C   UNL     1       3.237   7.355  18.169  0.00  0.00    +0.000 C 
ATOM     11  O   UNL     1       3.368   8.413  17.544  0.00  0.00    +0.000 OA
ATOM     12  N   UNL     1       1.016   8.659  20.760  0.00  0.00    +0.000 NA
ATOM     13  C   UNL     1       0.249   9.822  20.721  0.00  0.00    +0.000 A 
ENDROOT
BRANCH  10  14
ATOM     14  C   UNL     1       4.072   6.207  17.745  0.00  0.00    +0.000 A 
ATOM     15  C   UNL     1       3.816   4.981  17.149  0.00  0.00    +0.000 A 
ATOM     16  C   UNL     1       4.997   4.200  16.923  0.00  0.00    +0.000 A 
ATOM     17  C   UNL     1       6.121   4.888  17.284  0.00  0.00    +0.000 A 
ATOM     18 CL   UNL     1       7.746   4.357  17.123  0.00  0.00    +0.000 Cl
ATOM     19  S   UNL     1       5.794   6.404  17.936  0.00  0.00    +0.000 S 
ENDBRANCH  10  14
BRANCH   9  20
ATOM     20  C   UNL     1       2.504   6.147  20.255  0.00  0.00    +0.000 C 
BRANCH  20  21
ATOM     21  C   UNL     1       1.405   5.088  20.372  0.00  0.00    +0.000 C 
BRANCH  21  22
ATOM     22  C   UNL     1       1.899   3.825  21.078  0.00  0.00    +0.000 C 
BRANCH  22  23
ATOM     23  N   UNL     1       2.583   2.947  20.147  0.00  0.00    +0.000 N 
ATOM     24  C   UNL     1       2.032   2.343  19.052  0.00  0.00    +0.000 A 
ATOM     25  C   UNL     1       3.035   1.551  18.544  0.00  0.00    +0.000 A 
ATOM     26  N   UNL     1       4.182   1.684  19.286  0.00  0.00    +0.000 NA
ATOM     27  C   UNL     1       3.880   2.531  20.243  0.00  0.00    +0.000 A 
ENDBRANCH  22  23
ENDBRANCH  21  22
ENDBRANCH  20  21
ENDBRANCH   9  20
TORSDOF 5
ENDMDL
MODEL 2
REMARK VINA RESULT:      -7.2      0.880      1.059
REMARK  Name = 
REMARK  6 active torsions:
REMARK  status: ('A' for Active; 'I' for Inactive)
REMARK    1  A    between atoms: C_1  and  C_2
REMARK    2  A    between atoms: N_9  and  C_10
REMARK    3  A    between atoms: C_10  and  C_11
REMARK    4  A    between atoms: C_11  and  C_12
REMARK    5  A    between atoms: C_12  and  N_13
REMARK    6  A    between atoms: C_18  and  C_20
REMARK                            x       y       z     vdW  Elec       q    Type
REMARK                         _______ _______ _______ _____ _____    ______ ____
ROOT
ATOM      1  C   UNL     1      -0.002   9.603  23.233  0.00  0.00    +0.000 C 
ATOM      2  C   UNL     1      -0.183  10.221  21.874  0.00  0.00    +0.000 A 
ATOM      3  C   UNL     1      -0.941  11.405  21.748  0.00  0.00    +0.000 A 
ATOM      4  C   UNL     1      -1.129  12.017  20.512  0.00  0.00    +0.000 A 
ATOM      5  C   UNL     1      -0.581  11.464  19.356  0.00  0.00    +0.000 A 
ATOM      6  C   UNL     1       0.164  10.281  19.478  0.00  0.00    +0.000 A 
ATOM      7  S   UNL     1       0.905   9.355  18.243  0.00  0.00    +0.000 S 
ATOM      8  C   UNL     1       1.608   8.299  19.406  0.00  0.00    +0.000 A 
ATOM      9  N   UNL     1       2.459   7.228  19.016  0.00  0.00    +0.000 N 
ATOM     10  C   UNL     1       3.251   7.400  17.836  0.00  0.00    +0.000 C 
ATOM     11  O   UNL     1       3.315   8.489  17.258  0.00  0.00    +0.000 OA
ATOM     12  N   UNL     1       1.183   8.518  20.632  0.00  0.00    +0.000 NA
ATOM     13  C   UNL     1       0.389   9.661  20.704  0.00  0.00    +0.000 A 
ENDROOT
BRANCH  10  14
ATOM     14  C   UNL     1       4.081   6.295  17.300  0.00  0.00    +0.000 A 
ATOM     15  C   UNL     1       4.136   4.925  17.509  0.00  0.00    +0.000 A 
ATOM     16  C   UNL     1       5.135   4.268  16.718  0.00  0.00    +0.000 A 
ATOM     17  C   UNL     1       5.757   5.148  15.876  0.00  0.00    +0.000 A 
ATOM     18 CL   UNL     1       6.964   4.777  14.714  0.00  0.00    +0.000 Cl
ATOM     19  S   UNL     1       5.220   6.732  16.054  0.00  0.00    +0.000 S 
ENDBRANCH  10  14
BRANCH   9  20
ATOM     20  C   UNL     1       2.689   6.073  19.903  0.00  0.00    +0.000 C 
BRANCH  20  21
ATOM     21  C   UNL     1       1.505   5.270  20.448  0.00  0.00    +0.000 C 
BRANCH  21  22
ATOM     22  C   UNL     1       1.944   3.931  21.041  0.00  0.00    +0.000 C 
BRANCH  22  23
ATOM     23  N   UNL     1       2.300   2.994  19.992  0.00  0.00    +0.000 N 
ATOM     24  C   UNL     1       3.477   2.308  19.888  0.00  0.00    +0.000 A 
ATOM     25  C   UNL     1       3.382   1.624  18.698  0.00  0.00    +0.000 A 
ATOM     26  N   UNL     1       2.170   1.858  18.098  0.00  0.00    +0.000 NA
ATOM     27  C   UNL     1       1.540   2.685  18.900  0.00  0.00    +0.000 A 
ENDBRANCH  22  23
ENDBRANCH  21  22
ENDBRANCH  20  21
ENDBRANCH   9  20
TORSDOF 5
ENDMDL
MODEL 3
REMARK VINA RESULT:      -6.6      1.539      1.916
REMARK  Name = 
REMARK  6 active torsions:
REMARK  status: ('A' for Active; 'I' for Inactive)
REMARK    1  A    between atoms: C_1  and  C_2
REMARK    2  A    between atoms: N_9  and  C_10
REMARK    3  A    between atoms: C_10  and  C_11
REMARK    4  A    between atoms: C_11  and  C_12
REMARK    5  A    between atoms: C_12  and  N_13
REMARK    6  A    between atoms: C_18  and  C_20
REMARK                            x       y       z     vdW  Elec       q    Type
REMARK                         _______ _______ _______ _____ _____    ______ ____
ROOT
ATOM      1  C   UNL     1      -0.393   8.697  22.086  0.00  0.00    +0.000 C 
ATOM      2  C   UNL     1       0.032   9.641  20.997  0.00  0.00    +0.000 A 
ATOM      3  C   UNL     1      -0.427  10.975  21.019  0.00  0.00    +0.000 A 
ATOM      4  C   UNL     1      -0.054  11.887  20.036  0.00  0.00    +0.000 A 
ATOM      5  C   UNL     1       0.779  11.499  18.988  0.00  0.00    +0.000 A 
ATOM      6  C   UNL     1       1.227  10.170  18.958  0.00  0.00    +0.000 A 
ATOM      7  S   UNL     1       2.205   9.400  17.782  0.00  0.00    +0.000 S 
ATOM      8  C   UNL     1       2.259   7.957  18.717  0.00  0.00    +0.000 A 
ATOM      9  N   UNL     1       3.008   6.825  18.292  0.00  0.00    +0.000 N 
ATOM     10  C   UNL     1       4.190   7.059  17.518  0.00  0.00    +0.000 C 
ATOM     11  O   UNL     1       4.634   8.199  17.352  0.00  0.00    +0.000 OA
ATOM     12  N   UNL     1       1.460   7.984  19.763  0.00  0.00    +0.000 NA
ATOM     13  C   UNL     1       0.890   9.243  19.940  0.00  0.00    +0.000 A 
ENDROOT
BRANCH  10  14
ATOM     14  C   UNL     1       4.967   5.936  16.944  0.00  0.00    +0.000 A 
ATOM     15  C   UNL     1       5.617   4.828  17.469  0.00  0.00    +0.000 A 
ATOM     16  C   UNL     1       6.233   4.003  16.471  0.00  0.00    +0.000 A 
ATOM     17  C   UNL     1       5.968   4.467  15.214  0.00  0.00    +0.000 A 
ATOM     18 CL   UNL     1       6.453   3.750  13.731  0.00  0.00    +0.000 Cl
ATOM     19  S   UNL     1       5.061   5.884  15.203  0.00  0.00    +0.000 S 
ENDBRANCH  10  14
BRANCH   9  20
ATOM     20  C   UNL     1       2.712   5.475  18.805  0.00  0.00    +0.000 C 
BRANCH  20  21
ATOM     21  C   UNL     1       1.890   4.493  17.965  0.00  0.00    +0.000 C 
BRANCH  21  22
ATOM     22  C   UNL     1       2.214   3.038  18.304  0.00  0.00    +0.000 C 
BRANCH  22  23
ATOM     23  N   UNL     1       2.168   2.819  19.738  0.00  0.00    +0.000 N 
ATOM     24  C   UNL     1       1.063   2.919  20.535  0.00  0.00    +0.000 A 
ATOM     25  C   UNL     1       1.531   2.712  21.812  0.00  0.00    +0.000 A 
ATOM     26  N   UNL     1       2.880   2.463  21.801  0.00  0.00    +0.000 NA
ATOM     27  C   UNL     1       3.236   2.533  20.539  0.00  0.00    +0.000 A 
ENDBRANCH  22  23
ENDBRANCH  21  22
ENDBRANCH  20  21
ENDBRANCH   9  20
TORSDOF 5
ENDMDL
MODEL 4
REMARK VINA RESULT:      -6.5      3.129      7.984
REMARK  Name = 
REMARK  6 active torsions:
REMARK  status: ('A' for Active; 'I' for Inactive)
REMARK    1  A    between atoms: C_1  and  C_2
REMARK    2  A    between atoms: N_9  and  C_10
REMARK    3  A    between atoms: C_10  and  C_11
REMARK    4  A    between atoms: C_11  and  C_12
REMARK    5  A    between atoms: C_12  and  N_13
REMARK    6  A    between atoms: C_18  and  C_20
REMARK                            x       y       z     vdW  Elec       q    Type
REMARK                         _______ _______ _______ _____ _____    ______ ____
ROOT
ATOM      1  C   UNL     1       2.327   3.872  21.509  0.00  0.00    +0.000 C 
ATOM      2  C   UNL     1       2.898   4.179  20.152  0.00  0.00    +0.000 A 
ATOM      3  C   UNL     1       3.565   3.162  19.437  0.00  0.00    +0.000 A 
ATOM      4  C   UNL     1       4.103   3.398  18.174  0.00  0.00    +0.000 A 
ATOM      5  C   UNL     1       4.008   4.658  17.587  0.00  0.00    +0.000 A 
ATOM      6  C   UNL     1       3.355   5.673  18.303  0.00  0.00    +0.000 A 
ATOM      7  S   UNL     1       3.134   7.314  17.865  0.00  0.00    +0.000 S 
ATOM      8  C   UNL     1       2.169   7.594  19.262  0.00  0.00    +0.000 A 
ATOM      9  N   UNL     1       1.576   8.863  19.510  0.00  0.00    +0.000 N 
ATOM     10  C   UNL     1       1.206   9.661  18.380  0.00  0.00    +0.000 C 
ATOM     11  O   UNL     1       1.254   9.210  17.232  0.00  0.00    +0.000 OA
ATOM     12  N   UNL     1       2.149   6.575  20.094  0.00  0.00    +0.000 NA
ATOM     13  C   UNL     1       2.787   5.460  19.555  0.00  0.00    +0.000 A 
ENDROOT
BRANCH  10  14
ATOM     14  C   UNL     1       0.684  11.037  18.549  0.00  0.00    +0.000 A 
ATOM     15  C   UNL     1      -0.581  11.607  18.573  0.00  0.00    +0.000 A 
ATOM     16  C   UNL     1      -0.563  13.025  18.785  0.00  0.00    +0.000 A 
ATOM     17  C   UNL     1       0.710  13.478  18.992  0.00  0.00    +0.000 A 
ATOM     18 CL   UNL     1       1.180  15.090  19.348  0.00  0.00    +0.000 Cl
ATOM     19  S   UNL     1       1.874  12.269  18.879  0.00  0.00    +0.000 S 
ENDBRANCH  10  14
BRANCH   9  20
ATOM     20  C   UNL     1       1.154   9.257  20.867  0.00  0.00    +0.000 C 
BRANCH  20  21
ATOM     21  C   UNL     1      -0.282   9.001  21.333  0.00  0.00    +0.000 C 
BRANCH  21  22
ATOM     22  C   UNL     1      -0.511   9.471  22.770  0.00  0.00    +0.000 C 
BRANCH  22  23
ATOM     23  N   UNL     1      -0.927  10.860  22.799  0.00  0.00    +0.000 N 
ATOM     24  C   UNL     1      -2.090  11.343  23.330  0.00  0.00    +0.000 A 
ATOM     25  C   UNL     1      -2.075  12.688  23.044  0.00  0.00    +0.000 A 
ATOM     26  N   UNL     1      -0.924  13.032  22.381  0.00  0.00    +0.000 NA
ATOM     27  C   UNL     1      -0.252  11.911  22.249  0.00  0.00    +0.000 A 
ENDBRANCH  22  23
ENDBRANCH  21  22
ENDBRANCH  20  21
ENDBRANCH   9  20
TORSDOF 5
ENDMDL
MODEL 5
REMARK VINA RESULT:      -6.4      5.041      9.271
REMARK  Name = 
REMARK  6 active torsions:
REMARK  status: ('A' for Active; 'I' for Inactive)
REMARK    1  A    between atoms: C_1  and  C_2
REMARK    2  A    between atoms: N_9  and  C_10
REMARK    3  A    between atoms: C_10  and  C_11
REMARK    4  A    between atoms: C_11  and  C_12
REMARK    5  A    between atoms: C_12  and  N_13
REMARK    6  A    between atoms: C_18  and  C_20
REMARK                            x       y       z     vdW  Elec       q    Type
REMARK                         _______ _______ _______ _____ _____    ______ ____
ROOT
ATOM      1  C   UNL     1       2.590   8.816  17.498  0.00  0.00    +0.000 C 
ATOM      2  C   UNL     1       2.208   8.003  18.704  0.00  0.00    +0.000 A 
ATOM      3  C   UNL     1       2.706   6.690  18.839  0.00  0.00    +0.000 A 
ATOM      4  C   UNL     1       2.385   5.904  19.942  0.00  0.00    +0.000 A 
ATOM      5  C   UNL     1       1.546   6.392  20.942  0.00  0.00    +0.000 A 
ATOM      6  C   UNL     1       1.041   7.694  20.803  0.00  0.00    +0.000 A 
ATOM      7  S   UNL     1      -0.041   8.534  21.831  0.00  0.00    +0.000 S 
ATOM      8  C   UNL     1       0.115   9.964  20.887  0.00  0.00    +0.000 A 
ATOM      9  N   UNL     1      -0.555  11.166  21.248  0.00  0.00    +0.000 N 
ATOM     10  C   UNL     1      -0.785  11.412  22.639  0.00  0.00    +0.000 C 
ATOM     11  O   UNL     1      -0.289  10.690  23.510  0.00  0.00    +0.000 OA
ATOM     12  N   UNL     1       0.798   9.784  19.777  0.00  0.00    +0.000 NA
ATOM     13  C   UNL     1       1.364   8.512  19.724  0.00  0.00    +0.000 A 
ENDROOT
BRANCH  10  14
ATOM     14  C   UNL     1      -1.569  12.584  23.093  0.00  0.00    +0.000 A 
ATOM     15  C   UNL     1      -1.256  13.879  23.481  0.00  0.00    +0.000 A 
ATOM     16  C   UNL     1      -2.405  14.662  23.831  0.00  0.00    +0.000 A 
ATOM     17  C   UNL     1      -3.561  13.963  23.626  0.00  0.00    +0.000 A 
ATOM     18 CL   UNL     1      -5.163  14.538  23.851  0.00  0.00    +0.000 Cl
ATOM     19  S   UNL     1      -3.303  12.390  23.089  0.00  0.00    +0.000 S 
ENDBRANCH  10  14
BRANCH   9  20
ATOM     20  C   UNL     1      -0.811  12.226  20.255  0.00  0.00    +0.000 C 
BRANCH  20  21
ATOM     21  C   UNL     1      -1.982  12.100  19.277  0.00  0.00    +0.000 C 
BRANCH  21  22
ATOM     22  C   UNL     1      -1.510  11.998  17.826  0.00  0.00    +0.000 C 
BRANCH  22  23
ATOM     23  N   UNL     1      -2.440  11.216  17.034  0.00  0.00    +0.000 N 
ATOM     24  C   UNL     1      -2.148  10.078  16.336  0.00  0.00    +0.000 A 
ATOM     25  C   UNL     1      -3.315   9.756  15.683  0.00  0.00    +0.000 A 
ATOM     26  N   UNL     1      -4.307  10.653  15.990  0.00  0.00    +0.000 NA
ATOM     27  C   UNL     1      -3.752  11.519  16.806  0.00  0.00    +0.000 A 
ENDBRANCH  22  23
ENDBRANCH  21  22
ENDBRANCH  20  21
ENDBRANCH   9  20
TORSDOF 5
ENDMDL
MODEL 6
REMARK VINA RESULT:      -6.4      4.042      8.573
REMARK  Name = 
REMARK  6 active torsions:
REMARK  status: ('A' for Active; 'I' for Inactive)
REMARK    1  A    between atoms: C_1  and  C_2
REMARK    2  A    between atoms: N_9  and  C_10
REMARK    3  A    between atoms: C_10  and  C_11
REMARK    4  A    between atoms: C_11  and  C_12
REMARK    5  A    between atoms: C_12  and  N_13
REMARK    6  A    between atoms: C_18  and  C_20
REMARK                            x       y       z     vdW  Elec       q    Type
REMARK                         _______ _______ _______ _____ _____    ______ ____
ROOT
ATOM      1  C   UNL     1       4.453   6.454  16.534  0.00  0.00    +0.000 C 
ATOM      2  C   UNL     1       4.011   5.741  17.781  0.00  0.00    +0.000 A 
ATOM      3  C   UNL     1       4.467   4.429  18.027  0.00  0.00    +0.000 A 
ATOM      4  C   UNL     1       4.089   3.732  19.172  0.00  0.00    +0.000 A 
ATOM      5  C   UNL     1       3.234   4.313  20.106  0.00  0.00    +0.000 A 
ATOM      6  C   UNL     1       2.770   5.615  19.857  0.00  0.00    +0.000 A 
ATOM      7  S   UNL     1       1.682   6.555  20.787  0.00  0.00    +0.000 S 
ATOM      8  C   UNL     1       1.907   7.909  19.748  0.00  0.00    +0.000 A 
ATOM      9  N   UNL     1       1.261   9.151  20.000  0.00  0.00    +0.000 N 
ATOM     10  C   UNL     1       0.996   9.503  21.362  0.00  0.00    +0.000 C 
ATOM     11  O   UNL     1       1.443   8.832  22.297  0.00  0.00    +0.000 OA
ATOM     12  N   UNL     1       2.619   7.630  18.677  0.00  0.00    +0.000 NA
ATOM     13  C   UNL     1       3.150   6.344  18.734  0.00  0.00    +0.000 A 
ENDROOT
BRANCH  10  14
ATOM     14  C   UNL     1       0.231  10.724  21.704  0.00  0.00    +0.000 A 
ATOM     15  C   UNL     1       0.213  12.030  21.235  0.00  0.00    +0.000 A 
ATOM     16  C   UNL     1      -0.744  12.863  21.904  0.00  0.00    +0.000 A 
ATOM     17  C   UNL     1      -1.476  12.146  22.808  0.00  0.00    +0.000 A 
ATOM     18 CL   UNL     1      -2.768  12.730  23.776  0.00  0.00    +0.000 Cl
ATOM     19  S   UNL     1      -1.010  10.534  22.916  0.00  0.00    +0.000 S 
ENDBRANCH  10  14
BRANCH   9  20
ATOM     20  C   UNL     1       1.067  10.142  18.925  0.00  0.00    +0.000 C 
BRANCH  20  21
ATOM     21  C   UNL     1      -0.102  10.000  17.947  0.00  0.00    +0.000 C 
BRANCH  21  22
ATOM     22  C   UNL     1      -1.443  10.324  18.606  0.00  0.00    +0.000 C 
BRANCH  22  23
ATOM     23  N   UNL     1      -2.443  10.655  17.608  0.00  0.00    +0.000 N 
ATOM     24  C   UNL     1      -3.761  10.926  17.844  0.00  0.00    +0.000 A 
ATOM     25  C   UNL     1      -4.315  11.091  16.596  0.00  0.00    +0.000 A 
ATOM     26  N   UNL     1      -3.363  10.955  15.619  0.00  0.00    +0.000 NA
ATOM     27  C   UNL     1      -2.245  10.694  16.257  0.00  0.00    +0.000 A 
ENDBRANCH  22  23
ENDBRANCH  21  22
ENDBRANCH  20  21
ENDBRANCH   9  20
TORSDOF 5
ENDMDL
MODEL 7
REMARK VINA RESULT:      -6.2      2.661      4.027
REMARK  Name = 
REMARK  6 active torsions:
REMARK  status: ('A' for Active; 'I' for Inactive)
REMARK    1  A    between atoms: C_1  and  C_2
REMARK    2  A    between atoms: N_9  and  C_10
REMARK    3  A    between atoms: C_10  and  C_11
REMARK    4  A    between atoms: C_11  and  C_12
REMARK    5  A    between atoms: C_12  and  N_13
REMARK    6  A    between atoms: C_18  and  C_20
REMARK                            x       y       z     vdW  Elec       q    Type
REMARK                         _______ _______ _______ _____ _____    ______ ____
ROOT
ATOM      1  C   UNL     1       1.718  11.308  18.124  0.00  0.00    +0.000 C 
ATOM      2  C   UNL     1       1.115  10.735  19.376  0.00  0.00    +0.000 A 
ATOM      3  C   UNL     1       0.321  11.559  20.201  0.00  0.00    +0.000 A 
ATOM      4  C   UNL     1      -0.265  11.069  21.366  0.00  0.00    +0.000 A 
ATOM      5  C   UNL     1      -0.069   9.746  21.756  0.00  0.00    +0.000 A 
ATOM      6  C   UNL     1       0.729   8.928  20.942  0.00  0.00    +0.000 A 
ATOM      7  S   UNL     1       1.185   7.296  21.190  0.00  0.00    +0.000 S 
ATOM      8  C   UNL     1       1.968   7.244  19.658  0.00  0.00    +0.000 A 
ATOM      9  N   UNL     1       2.580   6.053  19.179  0.00  0.00    +0.000 N 
ATOM     10  C   UNL     1       2.015   4.801  19.584  0.00  0.00    +0.000 C 
ATOM     11  O   UNL     1       0.946   4.748  20.200  0.00  0.00    +0.000 OA
ATOM     12  N   UNL     1       2.034   8.418  19.067  0.00  0.00    +0.000 NA
ATOM     13  C   UNL     1       1.307   9.383  19.760  0.00  0.00    +0.000 A 
ENDROOT
BRANCH  10  14
ATOM     14  C   UNL     1       2.656   3.515  19.220  0.00  0.00    +0.000 A 
ATOM     15  C   UNL     1       2.674   2.721  18.083  0.00  0.00    +0.000 A 
ATOM     16  C   UNL     1       3.476   1.540  18.227  0.00  0.00    +0.000 A 
ATOM     17  C   UNL     1       4.103   1.513  19.441  0.00  0.00    +0.000 A 
ATOM     18 CL   UNL     1       5.203   0.321  20.001  0.00  0.00    +0.000 Cl
ATOM     19  S   UNL     1       3.710   2.821  20.423  0.00  0.00    +0.000 S 
ENDBRANCH  10  14
BRANCH   9  20
ATOM     20  C   UNL     1       3.618   6.094  18.133  0.00  0.00    +0.000 C 
BRANCH  20  21
ATOM     21  C   UNL     1       5.100   6.132  18.517  0.00  0.00    +0.000 C 
BRANCH  21  22
ATOM     22  C   UNL     1       5.810   4.817  18.191  0.00  0.00    +0.000 C 
BRANCH  22  23
ATOM     23  N   UNL     1       6.198   4.772  16.794  0.00  0.00    +0.000 N 
ATOM     24  C   UNL     1       5.724   3.903  15.852  0.00  0.00    +0.000 A 
ATOM     25  C   UNL     1       6.444   4.189  14.715  0.00  0.00    +0.000 A 
ATOM     26  N   UNL     1       7.317   5.222  14.940  0.00  0.00    +0.000 NA
ATOM     27  C   UNL     1       7.146   5.554  16.199  0.00  0.00    +0.000 A 
ENDBRANCH  22  23
ENDBRANCH  21  22
ENDBRANCH  20  21
ENDBRANCH   9  20
TORSDOF 5
ENDMDL
MODEL 8
REMARK VINA RESULT:      -6.2      3.097      8.009
REMARK  Name = 
REMARK  6 active torsions:
REMARK  status: ('A' for Active; 'I' for Inactive)
REMARK    1  A    between atoms: C_1  and  C_2
REMARK    2  A    between atoms: N_9  and  C_10
REMARK    3  A    between atoms: C_10  and  C_11
REMARK    4  A    between atoms: C_11  and  C_12
REMARK    5  A    between atoms: C_12  and  N_13
REMARK    6  A    between atoms: C_18  and  C_20
REMARK                            x       y       z     vdW  Elec       q    Type
REMARK                         _______ _______ _______ _____ _____    ______ ____
ROOT
ATOM      1  C   UNL     1       1.679   2.827  21.737  0.00  0.00    +0.000 C 
ATOM      2  C   UNL     1       2.715   3.189  20.710  0.00  0.00    +0.000 A 
ATOM      3  C   UNL     1       3.614   2.201  20.256  0.00  0.00    +0.000 A 
ATOM      4  C   UNL     1       4.585   2.489  19.300  0.00  0.00    +0.000 A 
ATOM      5  C   UNL     1       4.703   3.774  18.773  0.00  0.00    +0.000 A 
ATOM      6  C   UNL     1       3.817   4.760  19.232  0.00  0.00    +0.000 A 
ATOM      7  S   UNL     1       3.756   6.419  18.811  0.00  0.00    +0.000 S 
ATOM      8  C   UNL     1       2.333   6.643  19.753  0.00  0.00    +0.000 A 
ATOM      9  N   UNL     1       1.674   7.903  19.812  0.00  0.00    +0.000 N 
ATOM     10  C   UNL     1       1.747   8.750  18.661  0.00  0.00    +0.000 C 
ATOM     11  O   UNL     1       2.230   8.348  17.597  0.00  0.00    +0.000 OA
ATOM     12  N   UNL     1       2.014   5.589  20.474  0.00  0.00    +0.000 NA
ATOM     13  C   UNL     1       2.821   4.496  20.168  0.00  0.00    +0.000 A 
ENDROOT
BRANCH  10  14
ATOM     14  C   UNL     1       1.183  10.120  18.678  0.00  0.00    +0.000 A 
ATOM     15  C   UNL     1       1.723  11.398  18.675  0.00  0.00    +0.000 A 
ATOM     16  C   UNL     1       0.732  12.435  18.685  0.00  0.00    +0.000 A 
ATOM     17  C   UNL     1      -0.530  11.913  18.618  0.00  0.00    +0.000 A 
ATOM     18 CL   UNL     1      -2.002  12.793  18.540  0.00  0.00    +0.000 Cl
ATOM     19  S   UNL     1      -0.556  10.231  18.606  0.00  0.00    +0.000 S 
ENDBRANCH  10  14
BRANCH   9  20
ATOM     20  C   UNL     1       0.768   8.240  20.926  0.00  0.00    +0.000 C 
BRANCH  20  21
ATOM     21  C   UNL     1       1.230   9.185  22.038  0.00  0.00    +0.000 C 
BRANCH  21  22
ATOM     22  C   UNL     1       0.116   9.474  23.044  0.00  0.00    +0.000 C 
BRANCH  22  23
ATOM     23  N   UNL     1      -0.502  10.759  22.776  0.00  0.00    +0.000 N 
ATOM     24  C   UNL     1       0.043  11.782  22.053  0.00  0.00    +0.000 A 
ATOM     25  C   UNL     1      -0.867  12.808  22.152  0.00  0.00    +0.000 A 
ATOM     26  N   UNL     1      -1.956  12.422  22.892  0.00  0.00    +0.000 NA
ATOM     27  C   UNL     1      -1.709  11.184  23.253  0.00  0.00    +0.000 A 
ENDBRANCH  22  23
ENDBRANCH  21  22
ENDBRANCH  20  21
ENDBRANCH   9  20
TORSDOF 5
ENDMDL
MODEL 9
REMARK VINA RESULT:      -6.1      4.602      8.936
REMARK  Name = 
REMARK  6 active torsions:
REMARK  status: ('A' for Active; 'I' for Inactive)
REMARK    1  A    between atoms: C_1  and  C_2
REMARK    2  A    between atoms: N_9  and  C_10
REMARK    3  A    between atoms: C_10  and  C_11
REMARK    4  A    between atoms: C_11  and  C_12
REMARK    5  A    between atoms: C_12  and  N_13
REMARK    6  A    between atoms: C_18  and  C_20
REMARK                            x       y       z     vdW  Elec       q    Type
REMARK                         _______ _______ _______ _____ _____    ______ ____
ROOT
ATOM      1  C   UNL     1       3.506   7.774  17.503  0.00  0.00    +0.000 C 
ATOM      2  C   UNL     1       2.848   7.118  18.685  0.00  0.00    +0.000 A 
ATOM      3  C   UNL     1       3.119   5.762  18.964  0.00  0.00    +0.000 A 
ATOM      4  C   UNL     1       2.539   5.116  20.052  0.00  0.00    +0.000 A 
ATOM      5  C   UNL     1       1.658   5.793  20.892  0.00  0.00    +0.000 A 
ATOM      6  C   UNL     1       1.378   7.139  20.610  0.00  0.00    +0.000 A 
ATOM      7  S   UNL     1       0.309   8.201  21.424  0.00  0.00    +0.000 S 
ATOM      8  C   UNL     1       0.803   9.518  20.433  0.00  0.00    +0.000 A 
ATOM      9  N   UNL     1       0.281  10.827  20.626  0.00  0.00    +0.000 N 
ATOM     10  C   UNL     1      -0.092  11.209  21.954  0.00  0.00    +0.000 C 
ATOM     11  O   UNL     1       0.168  10.492  22.926  0.00  0.00    +0.000 OA
ATOM     12  N   UNL     1       1.593   9.158  19.444  0.00  0.00    +0.000 NA
ATOM     13  C   UNL     1       1.962   7.818  19.544  0.00  0.00    +0.000 A 
ENDROOT
BRANCH  10  14
ATOM     14  C   UNL     1      -0.744  12.511  22.225  0.00  0.00    +0.000 A 
ATOM     15  C   UNL     1      -0.290  13.802  22.458  0.00  0.00    +0.000 A 
ATOM     16  C   UNL     1      -1.346  14.750  22.660  0.00  0.00    +0.000 A 
ATOM     17  C   UNL     1      -2.572  14.166  22.498  0.00  0.00    +0.000 A 
ATOM     18 CL   UNL     1      -4.099  14.945  22.584  0.00  0.00    +0.000 Cl
ATOM     19  S   UNL     1      -2.487  12.518  22.174  0.00  0.00    +0.000 S 
ENDBRANCH  10  14
BRANCH   9  20
ATOM     20  C   UNL     1       0.324  11.833  19.549  0.00  0.00    +0.000 C 
BRANCH  20  21
ATOM     21  C   UNL     1      -0.869  12.003  18.604  0.00  0.00    +0.000 C 
BRANCH  21  22
ATOM     22  C   UNL     1      -1.781  10.775  18.605  0.00  0.00    +0.000 C 
BRANCH  22  23
ATOM     23  N   UNL     1      -2.624  10.757  17.425  0.00  0.00    +0.000 N 
ATOM     24  C   UNL     1      -3.785  11.456  17.252  0.00  0.00    +0.000 A 
ATOM     25  C   UNL     1      -4.261  11.050  16.027  0.00  0.00    +0.000 A 
ATOM     26  N   UNL     1      -3.405  10.148  15.447  0.00  0.00    +0.000 NA
ATOM     27  C   UNL     1      -2.429   9.992  16.311  0.00  0.00    +0.000 A 
ENDBRANCH  22  23
ENDBRANCH  21  22
ENDBRANCH  20  21
ENDBRANCH   9  20
TORSDOF 5
ENDMDL
