MODEL 1
REMARK VINA RESULT:      -7.9      0.000      0.000
REMARK  Name = 
REMARK  2 active torsions:
REMARK  status: ('A' for Active; 'I' for Inactive)
REMARK    1  A    between atoms: C_1  and  C_2
REMARK    2  A    between atoms: N_7  and  C_8
REMARK                            x       y       z     vdW  Elec       q    Type
REMARK                         _______ _______ _______ _____ _____    ______ ____
ROOT
ATOM      1  C   UNL     1       2.695   5.051  19.716  0.00  0.00    +0.000 C 
ATOM      2  C   UNL     1       4.207   4.959  19.411  0.00  0.00    +0.000 C 
ATOM      3  C   UNL     1       4.524   3.620  18.709  0.00  0.00    +0.000 C 
ATOM      4  C   UNL     1       4.167   2.451  19.643  0.00  0.00    +0.000 C 
ATOM      5  C   UNL     1       2.677   2.514  20.013  0.00  0.00    +0.000 C 
ATOM      6  C   UNL     1       1.849   2.368  18.726  0.00  0.00    +0.000 C 
ATOM      7  C   UNL     1       2.183   3.512  17.761  0.00  0.00    +0.000 C 
ATOM      8  C   UNL     1       3.684   3.511  17.424  0.00  0.00    +0.000 C 
ATOM      9  C   UNL     1       1.836   4.838  18.443  0.00  0.00    +0.000 C 
ATOM     10  C   UNL     1       2.367   3.870  20.680  0.00  0.00    +0.000 C 
ENDROOT
BRANCH   1  17
ATOM     11  C   UNL     1       0.007  10.589  20.282  0.00  0.00    +0.000 C 
ATOM     12  C   UNL     1       0.923   9.604  19.628  0.00  0.00    +0.000 A 
ATOM     13  C   UNL     1       1.356   9.761  18.317  0.00  0.00    +0.000 A 
ATOM     14  C   UNL     1       2.167   8.778  17.781  0.00  0.00    +0.000 A 
ATOM     15  N   UNL     1       2.548   7.662  18.446  0.00  0.00    +0.000 NA
ATOM     16  C   UNL     1       2.111   7.489  19.706  0.00  0.00    +0.000 A 
ATOM     17  N   UNL     1       2.317   6.293  20.398  0.00  0.00    +0.000 N 
ATOM     18  C   UNL     1       1.325   8.460  20.328  0.00  0.00    +0.000 A 
ATOM     19  H   UNL     1       2.748   6.448  21.301  0.00  0.00    +0.000 HD
ENDBRANCH   1  17
TORSDOF 1
ENDMDL
MODEL 2
REMARK VINA RESULT:      -7.8      3.051      5.013
REMARK  Name = 
REMARK  2 active torsions:
REMARK  status: ('A' for Active; 'I' for Inactive)
REMARK    1  A    between atoms: C_1  and  C_2
REMARK    2  A    between atoms: N_7  and  C_8
REMARK                            x       y       z     vdW  Elec       q    Type
REMARK                         _______ _______ _______ _____ _____    ______ ____
ROOT
ATOM      1  C   UNL     1       5.059   5.371  18.437  0.00  0.00    +0.000 C 
ATOM      2  C   UNL     1       4.634   6.614  17.624  0.00  0.00    +0.000 C 
ATOM      3  C   UNL     1       5.540   6.770  16.384  0.00  0.00    +0.000 C 
ATOM      4  C   UNL     1       6.996   6.985  16.831  0.00  0.00    +0.000 C 
ATOM      5  C   UNL     1       7.463   5.791  17.680  0.00  0.00    +0.000 C 
ATOM      6  C   UNL     1       7.411   4.525  16.809  0.00  0.00    +0.000 C 
ATOM      7  C   UNL     1       5.973   4.281  16.333  0.00  0.00    +0.000 C 
ATOM      8  C   UNL     1       5.458   5.490  15.534  0.00  0.00    +0.000 C 
ATOM      9  C   UNL     1       5.082   4.091  17.562  0.00  0.00    +0.000 C 
ATOM     10  C   UNL     1       6.528   5.625  18.896  0.00  0.00    +0.000 C 
ENDROOT
BRANCH   1  17
ATOM     11  C   UNL     1       1.055   2.430  22.114  0.00  0.00    +0.000 C 
ATOM     12  C   UNL     1       1.470   3.079  20.833  0.00  0.00    +0.000 A 
ATOM     13  C   UNL     1       0.813   2.828  19.635  0.00  0.00    +0.000 A 
ATOM     14  C   UNL     1       1.293   3.441  18.493  0.00  0.00    +0.000 A 
ATOM     15  N   UNL     1       2.376   4.254  18.465  0.00  0.00    +0.000 NA
ATOM     16  C   UNL     1       3.034   4.480  19.616  0.00  0.00    +0.000 A 
ATOM     17  N   UNL     1       4.252   5.164  19.643  0.00  0.00    +0.000 N 
ATOM     18  C   UNL     1       2.582   3.931  20.816  0.00  0.00    +0.000 A 
ATOM     19  H   UNL     1       4.238   5.933  20.301  0.00  0.00    +0.000 HD
ENDBRANCH   1  17
TORSDOF 1
ENDMDL
MODEL 3
REMARK VINA RESULT:      -7.8      2.963      5.188
REMARK  Name = 
REMARK  2 active torsions:
REMARK  status: ('A' for Active; 'I' for Inactive)
REMARK    1  A    between atoms: C_1  and  C_2
REMARK    2  A    between atoms: N_7  and  C_8
REMARK                            x       y       z     vdW  Elec       q    Type
REMARK                         _______ _______ _______ _____ _____    ______ ____
ROOT
ATOM      1  C   UNL     1       2.941   4.257  18.361  0.00  0.00    +0.000 C 
ATOM      2  C   UNL     1       2.947   5.189  19.593  0.00  0.00    +0.000 C 
ATOM      3  C   UNL     1       2.283   4.483  20.795  0.00  0.00    +0.000 C 
ATOM      4  C   UNL     1       0.816   4.166  20.461  0.00  0.00    +0.000 C 
ATOM      5  C   UNL     1       0.745   3.268  19.215  0.00  0.00    +0.000 C 
ATOM      6  C   UNL     1       1.462   1.945  19.528  0.00  0.00    +0.000 C 
ATOM      7  C   UNL     1       2.930   2.218  19.877  0.00  0.00    +0.000 C 
ATOM      8  C   UNL     1       3.029   3.168  21.083  0.00  0.00    +0.000 C 
ATOM      9  C   UNL     1       3.597   2.886  18.673  0.00  0.00    +0.000 C 
ATOM     10  C   UNL     1       1.444   3.971  18.033  0.00  0.00    +0.000 C 
ENDROOT
BRANCH   1  17
ATOM     11  C   UNL     1       7.196   4.996  13.939  0.00  0.00    +0.000 C 
ATOM     12  C   UNL     1       6.741   4.916  15.361  0.00  0.00    +0.000 A 
ATOM     13  C   UNL     1       7.624   4.660  16.402  0.00  0.00    +0.000 A 
ATOM     14  C   UNL     1       7.107   4.563  17.681  0.00  0.00    +0.000 A 
ATOM     15  N   UNL     1       5.791   4.680  17.979  0.00  0.00    +0.000 NA
ATOM     16  C   UNL     1       4.926   4.901  16.973  0.00  0.00    +0.000 A 
ATOM     17  N   UNL     1       3.544   4.865  17.172  0.00  0.00    +0.000 N 
ATOM     18  C   UNL     1       5.380   5.055  15.662  0.00  0.00    +0.000 A 
ATOM     19  H   UNL     1       3.091   5.702  16.828  0.00  0.00    +0.000 HD
ENDBRANCH   1  17
TORSDOF 1
ENDMDL
MODEL 4
REMARK VINA RESULT:      -7.7      0.091      1.762
REMARK  Name = 
REMARK  2 active torsions:
REMARK  status: ('A' for Active; 'I' for Inactive)
REMARK    1  A    between atoms: C_1  and  C_2
REMARK    2  A    between atoms: N_7  and  C_8
REMARK                            x       y       z     vdW  Elec       q    Type
REMARK                         _______ _______ _______ _____ _____    ______ ____
ROOT
ATOM      1  C   UNL     1       2.593   4.995  19.745  0.00  0.00    +0.000 C 
ATOM      2  C   UNL     1       1.886   4.855  18.378  0.00  0.00    +0.000 C 
ATOM      3  C   UNL     1       2.278   3.518  17.714  0.00  0.00    +0.000 C 
ATOM      4  C   UNL     1       3.794   3.495  17.456  0.00  0.00    +0.000 C 
ATOM      5  C   UNL     1       4.553   3.669  18.782  0.00  0.00    +0.000 C 
ATOM      6  C   UNL     1       4.205   2.486  19.700  0.00  0.00    +0.000 C 
ATOM      7  C   UNL     1       2.696   2.467  19.974  0.00  0.00    +0.000 C 
ATOM      8  C   UNL     1       1.911   2.358  18.656  0.00  0.00    +0.000 C 
ATOM      9  C   UNL     1       2.313   3.777  20.665  0.00  0.00    +0.000 C 
ATOM     10  C   UNL     1       4.124   4.991  19.452  0.00  0.00    +0.000 C 
ENDROOT
BRANCH   1  17
ATOM     11  C   UNL     1       0.114  10.622  20.374  0.00  0.00    +0.000 C 
ATOM     12  C   UNL     1       0.973   9.604  19.694  0.00  0.00    +0.000 A 
ATOM     13  C   UNL     1       1.367   9.742  18.369  0.00  0.00    +0.000 A 
ATOM     14  C   UNL     1       2.126   8.730  17.811  0.00  0.00    +0.000 A 
ATOM     15  N   UNL     1       2.492   7.604  18.468  0.00  0.00    +0.000 NA
ATOM     16  C   UNL     1       2.091   7.450  19.743  0.00  0.00    +0.000 A 
ATOM     17  N   UNL     1       2.280   6.251  20.433  0.00  0.00    +0.000 N 
ATOM     18  C   UNL     1       1.360   8.450  20.387  0.00  0.00    +0.000 A 
ATOM     19  H   UNL     1       2.746   6.394  21.320  0.00  0.00    +0.000 HD
ENDBRANCH   1  17
TORSDOF 1
ENDMDL
MODEL 5
REMARK VINA RESULT:      -7.7      3.067      5.172
REMARK  Name = 
REMARK  2 active torsions:
REMARK  status: ('A' for Active; 'I' for Inactive)
REMARK    1  A    between atoms: C_1  and  C_2
REMARK    2  A    between atoms: N_7  and  C_8
REMARK                            x       y       z     vdW  Elec       q    Type
REMARK                         _______ _______ _______ _____ _____    ______ ____
ROOT
ATOM      1  C   UNL     1       5.124   5.268  18.485  0.00  0.00    +0.000 C 
ATOM      2  C   UNL     1       5.031   4.087  17.492  0.00  0.00    +0.000 C 
ATOM      3  C   UNL     1       5.931   4.354  16.266  0.00  0.00    +0.000 C 
ATOM      4  C   UNL     1       5.442   5.615  15.533  0.00  0.00    +0.000 C 
ATOM      5  C   UNL     1       5.477   6.820  16.486  0.00  0.00    +0.000 C 
ATOM      6  C   UNL     1       6.932   7.053  16.923  0.00  0.00    +0.000 C 
ATOM      7  C   UNL     1       7.461   5.812  17.652  0.00  0.00    +0.000 C 
ATOM      8  C   UNL     1       7.378   4.576  16.740  0.00  0.00    +0.000 C 
ATOM      9  C   UNL     1       6.592   5.568  18.887  0.00  0.00    +0.000 C 
ATOM     10  C   UNL     1       4.603   6.525  17.723  0.00  0.00    +0.000 C 
ENDROOT
BRANCH   1  17
ATOM     11  C   UNL     1       1.022   2.423  22.130  0.00  0.00    +0.000 C 
ATOM     12  C   UNL     1       1.472   3.036  20.843  0.00  0.00    +0.000 A 
ATOM     13  C   UNL     1       0.850   2.749  19.634  0.00  0.00    +0.000 A 
ATOM     14  C   UNL     1       1.361   3.330  18.488  0.00  0.00    +0.000 A 
ATOM     15  N   UNL     1       2.443   4.144  18.468  0.00  0.00    +0.000 NA
ATOM     16  C   UNL     1       3.068   4.405  19.630  0.00  0.00    +0.000 A 
ATOM     17  N   UNL     1       4.283   5.093  19.672  0.00  0.00    +0.000 N 
ATOM     18  C   UNL     1       2.583   3.890  20.833  0.00  0.00    +0.000 A 
ATOM     19  H   UNL     1       4.249   5.881  20.308  0.00  0.00    +0.000 HD
ENDBRANCH   1  17
TORSDOF 1
ENDMDL
MODEL 6
REMARK VINA RESULT:      -7.7      0.119      1.799
REMARK  Name = 
REMARK  2 active torsions:
REMARK  status: ('A' for Active; 'I' for Inactive)
REMARK    1  A    between atoms: C_1  and  C_2
REMARK    2  A    between atoms: N_7  and  C_8
REMARK                            x       y       z     vdW  Elec       q    Type
REMARK                         _______ _______ _______ _____ _____    ______ ____
ROOT
ATOM      1  C   UNL     1       2.645   4.964  19.831  0.00  0.00    +0.000 C 
ATOM      2  C   UNL     1       2.241   3.731  20.670  0.00  0.00    +0.000 C 
ATOM      3  C   UNL     1       2.637   2.435  19.931  0.00  0.00    +0.000 C 
ATOM      4  C   UNL     1       1.883   2.352  18.593  0.00  0.00    +0.000 C 
ATOM      5  C   UNL     1       2.218   3.577  17.728  0.00  0.00    +0.000 C 
ATOM      6  C   UNL     1       3.726   3.564  17.429  0.00  0.00    +0.000 C 
ATOM      7  C   UNL     1       4.516   3.636  18.741  0.00  0.00    +0.000 C 
ATOM      8  C   UNL     1       4.151   2.453  19.654  0.00  0.00    +0.000 C 
ATOM      9  C   UNL     1       4.150   4.937  19.457  0.00  0.00    +0.000 C 
ATOM     10  C   UNL     1       1.850   4.866  18.493  0.00  0.00    +0.000 C 
ENDROOT
BRANCH   1  17
ATOM     11  C   UNL     1       0.107  10.591  20.150  0.00  0.00    +0.000 C 
ATOM     12  C   UNL     1       1.008   9.559  19.551  0.00  0.00    +0.000 A 
ATOM     13  C   UNL     1       1.477   9.661  18.248  0.00  0.00    +0.000 A 
ATOM     14  C   UNL     1       2.272   8.639  17.764  0.00  0.00    +0.000 A 
ATOM     15  N   UNL     1       2.605   7.535  18.474  0.00  0.00    +0.000 NA
ATOM     16  C   UNL     1       2.132   7.415  19.728  0.00  0.00    +0.000 A 
ATOM     17  N   UNL     1       2.287   6.237  20.462  0.00  0.00    +0.000 N 
ATOM     18  C   UNL     1       1.360   8.428  20.298  0.00  0.00    +0.000 A 
ATOM     19  H   UNL     1       2.700   6.410  21.370  0.00  0.00    +0.000 HD
ENDBRANCH   1  17
TORSDOF 1
ENDMDL
MODEL 7
REMARK VINA RESULT:      -7.6      3.027      4.857
REMARK  Name = 
REMARK  2 active torsions:
REMARK  status: ('A' for Active; 'I' for Inactive)
REMARK    1  A    between atoms: C_1  and  C_2
REMARK    2  A    between atoms: N_7  and  C_8
REMARK                            x       y       z     vdW  Elec       q    Type
REMARK                         _______ _______ _______ _____ _____    ______ ____
ROOT
ATOM      1  C   UNL     1       5.138   5.438  18.621  0.00  0.00    +0.000 C 
ATOM      2  C   UNL     1       6.619   5.677  18.988  0.00  0.00    +0.000 C 
ATOM      3  C   UNL     1       7.457   5.876  17.707  0.00  0.00    +0.000 C 
ATOM      4  C   UNL     1       7.393   4.603  16.846  0.00  0.00    +0.000 C 
ATOM      5  C   UNL     1       5.933   4.293  16.479  0.00  0.00    +0.000 C 
ATOM      6  C   UNL     1       5.381   5.462  15.648  0.00  0.00    +0.000 C 
ATOM      7  C   UNL     1       5.437   6.756  16.470  0.00  0.00    +0.000 C 
ATOM      8  C   UNL     1       6.882   7.056  16.904  0.00  0.00    +0.000 C 
ATOM      9  C   UNL     1       4.578   6.572  17.722  0.00  0.00    +0.000 C 
ATOM     10  C   UNL     1       5.101   4.133  17.769  0.00  0.00    +0.000 C 
ENDROOT
BRANCH   1  17
ATOM     11  C   UNL     1       1.010   2.456  22.125  0.00  0.00    +0.000 C 
ATOM     12  C   UNL     1       1.475   3.105  20.860  0.00  0.00    +0.000 A 
ATOM     13  C   UNL     1       0.879   2.837  19.635  0.00  0.00    +0.000 A 
ATOM     14  C   UNL     1       1.402   3.451  18.512  0.00  0.00    +0.000 A 
ATOM     15  N   UNL     1       2.473   4.280  18.530  0.00  0.00    +0.000 NA
ATOM     16  C   UNL     1       3.074   4.523  19.709  0.00  0.00    +0.000 A 
ATOM     17  N   UNL     1       4.278   5.225  19.789  0.00  0.00    +0.000 N 
ATOM     18  C   UNL     1       2.574   3.973  20.890  0.00  0.00    +0.000 A 
ATOM     19  H   UNL     1       4.222   5.998  20.441  0.00  0.00    +0.000 HD
ENDBRANCH   1  17
TORSDOF 1
ENDMDL
MODEL 8
REMARK VINA RESULT:      -7.4      3.057      4.377
REMARK  Name = 
REMARK  2 active torsions:
REMARK  status: ('A' for Active; 'I' for Inactive)
REMARK    1  A    between atoms: C_1  and  C_2
REMARK    2  A    between atoms: N_7  and  C_8
REMARK                            x       y       z     vdW  Elec       q    Type
REMARK                         _______ _______ _______ _____ _____    ______ ____
ROOT
ATOM      1  C   UNL     1       3.906   3.722  19.290  0.00  0.00    +0.000 C 
ATOM      2  C   UNL     1       3.472   2.847  20.488  0.00  0.00    +0.000 C 
ATOM      3  C   UNL     1       1.995   2.428  20.330  0.00  0.00    +0.000 C 
ATOM      4  C   UNL     1       1.101   3.680  20.323  0.00  0.00    +0.000 C 
ATOM      5  C   UNL     1       1.513   4.610  19.170  0.00  0.00    +0.000 C 
ATOM      6  C   UNL     1       1.301   3.863  17.844  0.00  0.00    +0.000 C 
ATOM      7  C   UNL     1       2.170   2.599  17.814  0.00  0.00    +0.000 C 
ATOM      8  C   UNL     1       1.821   1.679  18.997  0.00  0.00    +0.000 C 
ATOM      9  C   UNL     1       3.637   3.017  17.935  0.00  0.00    +0.000 C 
ATOM     10  C   UNL     1       3.000   4.991  19.322  0.00  0.00    +0.000 C 
ENDROOT
BRANCH   1  17
ATOM     11  C   UNL     1       8.601   7.695  18.680  0.00  0.00    +0.000 C 
ATOM     12  C   UNL     1       7.443   6.900  18.168  0.00  0.00    +0.000 A 
ATOM     13  C   UNL     1       6.790   7.230  16.987  0.00  0.00    +0.000 A 
ATOM     14  C   UNL     1       5.702   6.464  16.613  0.00  0.00    +0.000 A 
ATOM     15  N   UNL     1       5.221   5.424  17.335  0.00  0.00    +0.000 NA
ATOM     16  C   UNL     1       5.831   5.115  18.494  0.00  0.00    +0.000 A 
ATOM     17  N   UNL     1       5.298   4.173  19.376  0.00  0.00    +0.000 N 
ATOM     18  C   UNL     1       6.962   5.817  18.914  0.00  0.00    +0.000 A 
ATOM     19  H   UNL     1       5.975   3.464  19.627  0.00  0.00    +0.000 HD
ENDBRANCH   1  17
TORSDOF 1
ENDMDL
MODEL 9
REMARK VINA RESULT:      -7.4      2.878      5.083
REMARK  Name = 
REMARK  2 active torsions:
REMARK  status: ('A' for Active; 'I' for Inactive)
REMARK    1  A    between atoms: C_1  and  C_2
REMARK    2  A    between atoms: N_7  and  C_8
REMARK                            x       y       z     vdW  Elec       q    Type
REMARK                         _______ _______ _______ _____ _____    ______ ____
ROOT
ATOM      1  C   UNL     1       2.885   4.225  18.399  0.00  0.00    +0.000 C 
ATOM      2  C   UNL     1       3.721   3.079  19.012  0.00  0.00    +0.000 C 
ATOM      3  C   UNL     1       3.025   2.535  20.278  0.00  0.00    +0.000 C 
ATOM      4  C   UNL     1       2.924   3.651  21.332  0.00  0.00    +0.000 C 
ATOM      5  C   UNL     1       2.132   4.838  20.762  0.00  0.00    +0.000 C 
ATOM      6  C   UNL     1       0.708   4.360  20.433  0.00  0.00    +0.000 C 
ATOM      7  C   UNL     1       0.765   3.237  19.390  0.00  0.00    +0.000 C 
ATOM      8  C   UNL     1       1.608   2.060  19.911  0.00  0.00    +0.000 C 
ATOM      9  C   UNL     1       1.423   3.786  18.122  0.00  0.00    +0.000 C 
ATOM     10  C   UNL     1       2.819   5.348  19.478  0.00  0.00    +0.000 C 
ENDROOT
BRANCH   1  17
ATOM     11  C   UNL     1       7.190   4.912  14.017  0.00  0.00    +0.000 C 
ATOM     12  C   UNL     1       6.714   4.872  15.434  0.00  0.00    +0.000 A 
ATOM     13  C   UNL     1       7.587   4.676  16.496  0.00  0.00    +0.000 A 
ATOM     14  C   UNL     1       7.053   4.611  17.770  0.00  0.00    +0.000 A 
ATOM     15  N   UNL     1       5.730   4.706  18.044  0.00  0.00    +0.000 NA
ATOM     16  C   UNL     1       4.875   4.868  17.017  0.00  0.00    +0.000 A 
ATOM     17  N   UNL     1       3.491   4.805  17.197  0.00  0.00    +0.000 N 
ATOM     18  C   UNL     1       5.346   4.987  15.709  0.00  0.00    +0.000 A 
ATOM     19  H   UNL     1       3.024   5.618  16.816  0.00  0.00    +0.000 HD
ENDBRANCH   1  17
TORSDOF 1
ENDMDL
