MODEL 1
REMARK VINA RESULT:      -7.6      0.000      0.000
REMARK  Name = 
REMARK  11 active torsions:
REMARK  status: ('A' for Active; 'I' for Inactive)
REMARK    1  A    between atoms: C_1  and  C_2
REMARK    2  A    between atoms: C_2  and  C_3
REMARK    3  A    between atoms: C_3  and  O_4
REMARK    4  A    between atoms: O_4  and  C_5
REMARK    5  A    between atoms: C_10  and  C_11
REMARK    6  A    between atoms: C_12  and  C_13
REMARK    7  A    between atoms: C_12  and  C_15
REMARK    8  A    between atoms: C_17  and  O_18
REMARK    9  A    between atoms: O_18  and  C_19
REMARK   10  A    between atoms: C_21  and  O_22
REMARK   11  A    between atoms: O_22  and  C_23
REMARK                            x       y       z     vdW  Elec       q    Type
REMARK                         _______ _______ _______ _____ _____    ______ ____
ROOT
ATOM      1  C   UNL     1       3.191   4.486  17.382  0.00  0.00    +0.000 C 
ATOM      2  C   UNL     1       4.388   3.857  17.466  0.00  0.00    +0.000 C 
ENDROOT
BRANCH   1   8
ATOM      3  C   UNL     1       2.005   4.947  19.617  0.00  0.00    +0.000 A 
ATOM      4  C   UNL     1       1.222   4.395  20.639  0.00  0.00    +0.000 A 
ATOM      5  C   UNL     1       0.556   3.181  20.453  0.00  0.00    +0.000 A 
ATOM      6  C   UNL     1       0.640   2.521  19.231  0.00  0.00    +0.000 A 
ATOM      7  C   UNL     1       1.418   3.055  18.205  0.00  0.00    +0.000 A 
ATOM      8  C   UNL     1       2.139   4.250  18.397  0.00  0.00    +0.000 A 
BRANCH   3   9
ATOM      9  O   UNL     1       2.754   6.040  19.994  0.00  0.00    +0.000 OA
BRANCH   9  10
ATOM     10  C   UNL     1       2.103   7.298  19.818  0.00  0.00    +0.000 C 
BRANCH  10  12
ATOM     11  C   UNL     1       1.569   9.086  18.033  0.00  0.00    +0.000 C 
ATOM     12  C   UNL     1       2.424   7.889  18.431  0.00  0.00    +0.000 C 
ENDBRANCH  10  12
ENDBRANCH   9  10
ENDBRANCH   3   9
ENDBRANCH   1   8
BRANCH   2  13
ATOM     13  C   UNL     1       5.449   4.267  16.534  0.00  0.00    +0.000 A 
ATOM     14  C   UNL     1       6.302   5.331  16.872  0.00  0.00    +0.000 A 
ATOM     15  C   UNL     1       7.224   5.832  15.950  0.00  0.00    +0.000 A 
ATOM     16  C   UNL     1       7.312   5.244  14.690  0.00  0.00    +0.000 A 
ATOM     17  C   UNL     1       6.470   4.183  14.338  0.00  0.00    +0.000 A 
ATOM     18  C   UNL     1       5.537   3.698  15.259  0.00  0.00    +0.000 A 
BRANCH  15  19
ATOM     19  O   UNL     1       7.953   6.904  16.391  0.00  0.00    +0.000 OA
ATOM     20  C   UNL     1       7.672   7.383  17.701  0.00  0.00    +0.000 C 
ENDBRANCH  15  19
BRANCH  17  21
ATOM     21  O   UNL     1       6.644   3.728  13.058  0.00  0.00    +0.000 OA
ATOM     22  C   UNL     1       5.489   3.247  12.383  0.00  0.00    +0.000 C 
ENDBRANCH  17  21
ENDBRANCH   2  13
BRANCH   2  23
ATOM     23  C   UNL     1       4.699   3.186  18.793  0.00  0.00    +0.000 C 
ATOM     24  N   UNL     1       4.958   2.628  19.895  0.00  0.00    +0.000 NA
ENDBRANCH   2  23
TORSDOF 8
ENDMDL
MODEL 2
REMARK VINA RESULT:      -6.8      0.398      2.690
REMARK  Name = 
REMARK  11 active torsions:
REMARK  status: ('A' for Active; 'I' for Inactive)
REMARK    1  A    between atoms: C_1  and  C_2
REMARK    2  A    between atoms: C_2  and  C_3
REMARK    3  A    between atoms: C_3  and  O_4
REMARK    4  A    between atoms: O_4  and  C_5
REMARK    5  A    between atoms: C_10  and  C_11
REMARK    6  A    between atoms: C_12  and  C_13
REMARK    7  A    between atoms: C_12  and  C_15
REMARK    8  A    between atoms: C_17  and  O_18
REMARK    9  A    between atoms: O_18  and  C_19
REMARK   10  A    between atoms: C_21  and  O_22
REMARK   11  A    between atoms: O_22  and  C_23
REMARK                            x       y       z     vdW  Elec       q    Type
REMARK                         _______ _______ _______ _____ _____    ______ ____
ROOT
ATOM      1  C   UNL     1       2.985   4.553  17.441  0.00  0.00    +0.000 C 
ATOM      2  C   UNL     1       4.215   3.984  17.461  0.00  0.00    +0.000 C 
ENDROOT
BRANCH   1   8
ATOM      3  C   UNL     1       1.852   4.858  19.728  0.00  0.00    +0.000 A 
ATOM      4  C   UNL     1       1.130   4.224  20.749  0.00  0.00    +0.000 A 
ATOM      5  C   UNL     1       0.520   2.987  20.530  0.00  0.00    +0.000 A 
ATOM      6  C   UNL     1       0.597   2.384  19.278  0.00  0.00    +0.000 A 
ATOM      7  C   UNL     1       1.313   3.000  18.254  0.00  0.00    +0.000 A 
ATOM      8  C   UNL     1       1.980   4.221  18.476  0.00  0.00    +0.000 A 
BRANCH   3   9
ATOM      9  O   UNL     1       2.557   5.971  20.129  0.00  0.00    +0.000 OA
BRANCH   9  10
ATOM     10  C   UNL     1       1.815   7.190  20.102  0.00  0.00    +0.000 C 
BRANCH  10  12
ATOM     11  C   UNL     1       3.265   7.802  18.056  0.00  0.00    +0.000 C 
ATOM     12  C   UNL     1       1.888   7.842  18.708  0.00  0.00    +0.000 C 
ENDBRANCH  10  12
ENDBRANCH   9  10
ENDBRANCH   3   9
ENDBRANCH   1   8
BRANCH   2  13
ATOM     13  C   UNL     1       5.223   4.487  16.516  0.00  0.00    +0.000 A 
ATOM     14  C   UNL     1       5.422   3.828  15.291  0.00  0.00    +0.000 A 
ATOM     15  C   UNL     1       6.464   4.197  14.438  0.00  0.00    +0.000 A 
ATOM     16  C   UNL     1       7.297   5.253  14.803  0.00  0.00    +0.000 A 
ATOM     17  C   UNL     1       7.113   5.920  16.019  0.00  0.00    +0.000 A 
ATOM     18  C   UNL     1       6.078   5.534  16.876  0.00  0.00    +0.000 A 
BRANCH  15  19
ATOM     19  O   UNL     1       6.576   3.437  13.305  0.00  0.00    +0.000 OA
ATOM     20  C   UNL     1       5.505   3.504  12.371  0.00  0.00    +0.000 C 
ENDBRANCH  15  19
BRANCH  17  21
ATOM     21  O   UNL     1       8.026   6.912  16.260  0.00  0.00    +0.000 OA
ATOM     22  C   UNL     1       7.784   7.751  17.381  0.00  0.00    +0.000 C 
ENDBRANCH  17  21
ENDBRANCH   2  13
BRANCH   2  23
ATOM     23  C   UNL     1       4.602   3.276  18.748  0.00  0.00    +0.000 C 
ATOM     24  N   UNL     1       4.924   2.687  19.817  0.00  0.00    +0.000 NA
ENDBRANCH   2  23
TORSDOF 8
ENDMDL
MODEL 3
REMARK VINA RESULT:      -6.7      2.558      6.937
REMARK  Name = 
REMARK  11 active torsions:
REMARK  status: ('A' for Active; 'I' for Inactive)
REMARK    1  A    between atoms: C_1  and  C_2
REMARK    2  A    between atoms: C_2  and  C_3
REMARK    3  A    between atoms: C_3  and  O_4
REMARK    4  A    between atoms: O_4  and  C_5
REMARK    5  A    between atoms: C_10  and  C_11
REMARK    6  A    between atoms: C_12  and  C_13
REMARK    7  A    between atoms: C_12  and  C_15
REMARK    8  A    between atoms: C_17  and  O_18
REMARK    9  A    between atoms: O_18  and  C_19
REMARK   10  A    between atoms: C_21  and  O_22
REMARK   11  A    between atoms: O_22  and  C_23
REMARK                            x       y       z     vdW  Elec       q    Type
REMARK                         _______ _______ _______ _____ _____    ______ ____
ROOT
ATOM      1  C   UNL     1       4.221   6.801  17.609  0.00  0.00    +0.000 C 
ATOM      2  C   UNL     1       3.052   6.521  18.233  0.00  0.00    +0.000 C 
ENDROOT
BRANCH   1   8
ATOM      3  C   UNL     1       5.734   4.734  17.385  0.00  0.00    +0.000 A 
ATOM      4  C   UNL     1       6.641   4.055  16.560  0.00  0.00    +0.000 A 
ATOM      5  C   UNL     1       6.742   4.367  15.202  0.00  0.00    +0.000 A 
ATOM      6  C   UNL     1       5.915   5.338  14.646  0.00  0.00    +0.000 A 
ATOM      7  C   UNL     1       5.010   6.023  15.454  0.00  0.00    +0.000 A 
ATOM      8  C   UNL     1       4.936   5.759  16.836  0.00  0.00    +0.000 A 
BRANCH   3   9
ATOM      9  O   UNL     1       5.869   4.466  18.729  0.00  0.00    +0.000 OA
BRANCH   9  10
ATOM     10  C   UNL     1       6.531   5.486  19.478  0.00  0.00    +0.000 C 
BRANCH  10  12
ATOM     11  C   UNL     1       8.024   7.271  18.361  0.00  0.00    +0.000 C 
ATOM     12  C   UNL     1       7.892   5.832  18.844  0.00  0.00    +0.000 C 
ENDBRANCH  10  12
ENDBRANCH   9  10
ENDBRANCH   3   9
ENDBRANCH   1   8
BRANCH   2  13
ATOM     13  C   UNL     1       2.305   7.638  18.831  0.00  0.00    +0.000 A 
ATOM     14  C   UNL     1       2.043   7.644  20.211  0.00  0.00    +0.000 A 
ATOM     15  C   UNL     1       1.219   8.616  20.781  0.00  0.00    +0.000 A 
ATOM     16  C   UNL     1       0.674   9.606  19.966  0.00  0.00    +0.000 A 
ATOM     17  C   UNL     1       0.925   9.615  18.590  0.00  0.00    +0.000 A 
ATOM     18  C   UNL     1       1.737   8.629  18.022  0.00  0.00    +0.000 A 
BRANCH  15  19
ATOM     19  O   UNL     1       1.005   8.471  22.126  0.00  0.00    +0.000 OA
ATOM     20  C   UNL     1       0.069   9.357  22.731  0.00  0.00    +0.000 C 
ENDBRANCH  15  19
BRANCH  17  21
ATOM     21  O   UNL     1       0.297  10.625  17.910  0.00  0.00    +0.000 OA
ATOM     22  C   UNL     1      -1.014  10.971  18.338  0.00  0.00    +0.000 C 
ENDBRANCH  17  21
ENDBRANCH   2  13
BRANCH   2  23
ATOM     23  C   UNL     1       2.372   5.224  17.829  0.00  0.00    +0.000 C 
ATOM     24  N   UNL     1       1.807   4.146  17.494  0.00  0.00    +0.000 NA
ENDBRANCH   2  23
TORSDOF 8
ENDMDL
MODEL 4
REMARK VINA RESULT:      -6.6      2.895      7.461
REMARK  Name = 
REMARK  11 active torsions:
REMARK  status: ('A' for Active; 'I' for Inactive)
REMARK    1  A    between atoms: C_1  and  C_2
REMARK    2  A    between atoms: C_2  and  C_3
REMARK    3  A    between atoms: C_3  and  O_4
REMARK    4  A    between atoms: O_4  and  C_5
REMARK    5  A    between atoms: C_10  and  C_11
REMARK    6  A    between atoms: C_12  and  C_13
REMARK    7  A    between atoms: C_12  and  C_15
REMARK    8  A    between atoms: C_17  and  O_18
REMARK    9  A    between atoms: O_18  and  C_19
REMARK   10  A    between atoms: C_21  and  O_22
REMARK   11  A    between atoms: O_22  and  C_23
REMARK                            x       y       z     vdW  Elec       q    Type
REMARK                         _______ _______ _______ _____ _____    ______ ____
ROOT
ATOM      1  C   UNL     1       2.561   7.031  18.516  0.00  0.00    +0.000 C 
ATOM      2  C   UNL     1       2.186   7.183  19.809  0.00  0.00    +0.000 C 
ENDROOT
BRANCH   1   8
ATOM      3  C   UNL     1       4.513   5.633  17.596  0.00  0.00    +0.000 A 
ATOM      4  C   UNL     1       4.866   4.504  16.846  0.00  0.00    +0.000 A 
ATOM      5  C   UNL     1       3.927   3.508  16.569  0.00  0.00    +0.000 A 
ATOM      6  C   UNL     1       2.631   3.614  17.065  0.00  0.00    +0.000 A 
ATOM      7  C   UNL     1       2.264   4.733  17.811  0.00  0.00    +0.000 A 
ATOM      8  C   UNL     1       3.185   5.771  18.052  0.00  0.00    +0.000 A 
BRANCH   3   9
ATOM      9  O   UNL     1       5.473   6.620  17.634  0.00  0.00    +0.000 OA
BRANCH   9  10
ATOM     10  C   UNL     1       6.792   6.183  17.309  0.00  0.00    +0.000 C 
BRANCH  10  12
ATOM     11  C   UNL     1       7.968   8.445  17.722  0.00  0.00    +0.000 C 
ATOM     12  C   UNL     1       7.842   6.976  18.111  0.00  0.00    +0.000 C 
ENDBRANCH  10  12
ENDBRANCH   9  10
ENDBRANCH   3   9
ENDBRANCH   1   8
BRANCH   2  13
ATOM     13  C   UNL     1       1.413   8.382  20.167  0.00  0.00    +0.000 A 
ATOM     14  C   UNL     1       1.161   9.365  19.197  0.00  0.00    +0.000 A 
ATOM     15  C   UNL     1       0.553  10.574  19.541  0.00  0.00    +0.000 A 
ATOM     16  C   UNL     1       0.169  10.788  20.864  0.00  0.00    +0.000 A 
ATOM     17  C   UNL     1       0.413   9.818  21.843  0.00  0.00    +0.000 A 
ATOM     18  C   UNL     1       1.037   8.618  21.495  0.00  0.00    +0.000 A 
BRANCH  15  19
ATOM     19  O   UNL     1       0.417  11.464  18.510  0.00  0.00    +0.000 OA
ATOM     20  C   UNL     1       0.304  12.841  18.852  0.00  0.00    +0.000 C 
ENDBRANCH  15  19
BRANCH  17  21
ATOM     21  O   UNL     1       0.014  10.179  23.103  0.00  0.00    +0.000 OA
ATOM     22  C   UNL     1      -1.214  10.885  23.212  0.00  0.00    +0.000 C 
ENDBRANCH  17  21
ENDBRANCH   2  13
BRANCH   2  23
ATOM     23  C   UNL     1       2.134   5.914  20.644  0.00  0.00    +0.000 C 
ATOM     24  N   UNL     1       2.091   4.860  21.337  0.00  0.00    +0.000 NA
ENDBRANCH   2  23
TORSDOF 8
ENDMDL
MODEL 5
REMARK VINA RESULT:      -6.6      3.258      6.250
REMARK  Name = 
REMARK  11 active torsions:
REMARK  status: ('A' for Active; 'I' for Inactive)
REMARK    1  A    between atoms: C_1  and  C_2
REMARK    2  A    between atoms: C_2  and  C_3
REMARK    3  A    between atoms: C_3  and  O_4
REMARK    4  A    between atoms: O_4  and  C_5
REMARK    5  A    between atoms: C_10  and  C_11
REMARK    6  A    between atoms: C_12  and  C_13
REMARK    7  A    between atoms: C_12  and  C_15
REMARK    8  A    between atoms: C_17  and  O_18
REMARK    9  A    between atoms: O_18  and  C_19
REMARK   10  A    between atoms: C_21  and  O_22
REMARK   11  A    between atoms: O_22  and  C_23
REMARK                            x       y       z     vdW  Elec       q    Type
REMARK                         _______ _______ _______ _____ _____    ______ ____
ROOT
ATOM      1  C   UNL     1       1.722   9.390  17.916  0.00  0.00    +0.000 C 
ATOM      2  C   UNL     1       1.857   8.290  18.695  0.00  0.00    +0.000 C 
ENDROOT
BRANCH   1   8
ATOM      3  C   UNL     1      -0.352  10.779  18.533  0.00  0.00    +0.000 A 
ATOM      4  C   UNL     1      -0.871  12.073  18.672  0.00  0.00    +0.000 A 
ATOM      5  C   UNL     1      -0.022  13.180  18.734  0.00  0.00    +0.000 A 
ATOM      6  C   UNL     1       1.358  13.003  18.690  0.00  0.00    +0.000 A 
ATOM      7  C   UNL     1       1.889  11.723  18.549  0.00  0.00    +0.000 A 
ATOM      8  C   UNL     1       1.043  10.602  18.429  0.00  0.00    +0.000 A 
BRANCH   3   9
ATOM      9  O   UNL     1      -1.296   9.804  18.294  0.00  0.00    +0.000 OA
BRANCH   9  10
ATOM     10  C   UNL     1      -2.506  10.277  17.700  0.00  0.00    +0.000 C 
BRANCH  10  12
ATOM     11  C   UNL     1      -3.161  10.854  15.270  0.00  0.00    +0.000 C 
ATOM     12  C   UNL     1      -2.612   9.810  16.236  0.00  0.00    +0.000 C 
ENDBRANCH  10  12
ENDBRANCH   9  10
ENDBRANCH   3   9
ENDBRANCH   1   8
BRANCH   2  13
ATOM     13  C   UNL     1       2.693   7.189  18.194  0.00  0.00    +0.000 A 
ATOM     14  C   UNL     1       2.507   5.888  18.691  0.00  0.00    +0.000 A 
ATOM     15  C   UNL     1       3.376   4.854  18.339  0.00  0.00    +0.000 A 
ATOM     16  C   UNL     1       4.425   5.118  17.460  0.00  0.00    +0.000 A 
ATOM     17  C   UNL     1       4.624   6.408  16.955  0.00  0.00    +0.000 A 
ATOM     18  C   UNL     1       3.761   7.443  17.325  0.00  0.00    +0.000 A 
BRANCH  15  19
ATOM     19  O   UNL     1       3.111   3.651  18.938  0.00  0.00    +0.000 OA
ATOM     20  C   UNL     1       4.219   2.939  19.477  0.00  0.00    +0.000 C 
ENDBRANCH  15  19
BRANCH  17  21
ATOM     21  O   UNL     1       5.712   6.527  16.131  0.00  0.00    +0.000 OA
ATOM     22  C   UNL     1       6.101   5.368  15.406  0.00  0.00    +0.000 C 
ENDBRANCH  17  21
ENDBRANCH   2  13
BRANCH   2  23
ATOM     23  C   UNL     1       1.584   8.482  20.177  0.00  0.00    +0.000 C 
ATOM     24  N   UNL     1       1.358   8.641  21.408  0.00  0.00    +0.000 NA
ENDBRANCH   2  23
TORSDOF 8
ENDMDL
MODEL 6
REMARK VINA RESULT:      -6.5      2.356      3.971
REMARK  Name = 
REMARK  11 active torsions:
REMARK  status: ('A' for Active; 'I' for Inactive)
REMARK    1  A    between atoms: C_1  and  C_2
REMARK    2  A    between atoms: C_2  and  C_3
REMARK    3  A    between atoms: C_3  and  O_4
REMARK    4  A    between atoms: O_4  and  C_5
REMARK    5  A    between atoms: C_10  and  C_11
REMARK    6  A    between atoms: C_12  and  C_13
REMARK    7  A    between atoms: C_12  and  C_15
REMARK    8  A    between atoms: C_17  and  O_18
REMARK    9  A    between atoms: O_18  and  C_19
REMARK   10  A    between atoms: C_21  and  O_22
REMARK   11  A    between atoms: O_22  and  C_23
REMARK                            x       y       z     vdW  Elec       q    Type
REMARK                         _______ _______ _______ _____ _____    ______ ____
ROOT
ATOM      1  C   UNL     1       4.506   3.571  16.574  0.00  0.00    +0.000 C 
ATOM      2  C   UNL     1       5.070   4.698  16.076  0.00  0.00    +0.000 C 
ENDROOT
BRANCH   1   8
ATOM      3  C   UNL     1       4.189   3.650  19.124  0.00  0.00    +0.000 A 
ATOM      4  C   UNL     1       3.343   3.316  20.190  0.00  0.00    +0.000 A 
ATOM      5  C   UNL     1       2.008   2.974  19.961  0.00  0.00    +0.000 A 
ATOM      6  C   UNL     1       1.494   2.994  18.668  0.00  0.00    +0.000 A 
ATOM      7  C   UNL     1       2.325   3.322  17.597  0.00  0.00    +0.000 A 
ATOM      8  C   UNL     1       3.687   3.615  17.806  0.00  0.00    +0.000 A 
BRANCH   3   9
ATOM      9  O   UNL     1       5.517   3.779  19.465  0.00  0.00    +0.000 OA
BRANCH   9  10
ATOM     10  C   UNL     1       5.982   5.127  19.554  0.00  0.00    +0.000 C 
BRANCH  10  12
ATOM     11  C   UNL     1       7.661   6.609  18.270  0.00  0.00    +0.000 C 
ATOM     12  C   UNL     1       7.383   5.262  18.926  0.00  0.00    +0.000 C 
ENDBRANCH  10  12
ENDBRANCH   9  10
ENDBRANCH   3   9
ENDBRANCH   1   8
BRANCH   2  13
ATOM     13  C   UNL     1       5.719   4.621  14.759  0.00  0.00    +0.000 A 
ATOM     14  C   UNL     1       5.212   3.749  13.781  0.00  0.00    +0.000 A 
ATOM     15  C   UNL     1       5.888   3.552  12.575  0.00  0.00    +0.000 A 
ATOM     16  C   UNL     1       7.067   4.255  12.335  0.00  0.00    +0.000 A 
ATOM     17  C   UNL     1       7.585   5.128  13.299  0.00  0.00    +0.000 A 
ATOM     18  C   UNL     1       6.913   5.308  14.511  0.00  0.00    +0.000 A 
BRANCH  15  19
ATOM     19  O   UNL     1       5.313   2.636  11.737  0.00  0.00    +0.000 OA
ATOM     20  C   UNL     1       4.068   2.991  11.145  0.00  0.00    +0.000 C 
ENDBRANCH  15  19
BRANCH  17  21
ATOM     21  O   UNL     1       8.766   5.723  12.941  0.00  0.00    +0.000 OA
ATOM     22  C   UNL     1       8.730   6.610  11.832  0.00  0.00    +0.000 C 
ENDBRANCH  17  21
ENDBRANCH   2  13
BRANCH   2  23
ATOM     23  C   UNL     1       4.554   6.010  16.643  0.00  0.00    +0.000 C 
ATOM     24  N   UNL     1       4.126   7.100  17.114  0.00  0.00    +0.000 NA
ENDBRANCH   2  23
TORSDOF 8
ENDMDL
MODEL 7
REMARK VINA RESULT:      -6.5      2.543      7.064
REMARK  Name = 
REMARK  11 active torsions:
REMARK  status: ('A' for Active; 'I' for Inactive)
REMARK    1  A    between atoms: C_1  and  C_2
REMARK    2  A    between atoms: C_2  and  C_3
REMARK    3  A    between atoms: C_3  and  O_4
REMARK    4  A    between atoms: O_4  and  C_5
REMARK    5  A    between atoms: C_10  and  C_11
REMARK    6  A    between atoms: C_12  and  C_13
REMARK    7  A    between atoms: C_12  and  C_15
REMARK    8  A    between atoms: C_17  and  O_18
REMARK    9  A    between atoms: O_18  and  C_19
REMARK   10  A    between atoms: C_21  and  O_22
REMARK   11  A    between atoms: O_22  and  C_23
REMARK                            x       y       z     vdW  Elec       q    Type
REMARK                         _______ _______ _______ _____ _____    ______ ____
ROOT
ATOM      1  C   UNL     1       3.951   6.776  18.056  0.00  0.00    +0.000 C 
ATOM      2  C   UNL     1       2.705   6.547  18.538  0.00  0.00    +0.000 C 
ENDROOT
BRANCH   1   8
ATOM      3  C   UNL     1       5.259   4.587  17.731  0.00  0.00    +0.000 A 
ATOM      4  C   UNL     1       6.188   3.909  16.930  0.00  0.00    +0.000 A 
ATOM      5  C   UNL     1       6.489   4.365  15.645  0.00  0.00    +0.000 A 
ATOM      6  C   UNL     1       5.842   5.486  15.133  0.00  0.00    +0.000 A 
ATOM      7  C   UNL     1       4.918   6.172  15.919  0.00  0.00    +0.000 A 
ATOM      8  C   UNL     1       4.645   5.757  17.237  0.00  0.00    +0.000 A 
BRANCH   3   9
ATOM      9  O   UNL     1       5.197   4.147  19.035  0.00  0.00    +0.000 OA
BRANCH   9  10
ATOM     10  C   UNL     1       4.326   3.036  19.250  0.00  0.00    +0.000 C 
BRANCH  10  12
ATOM     11  C   UNL     1       2.063   2.528  20.385  0.00  0.00    +0.000 C 
ATOM     12  C   UNL     1       3.369   3.313  20.425  0.00  0.00    +0.000 C 
ENDBRANCH  10  12
ENDBRANCH   9  10
ENDBRANCH   3   9
ENDBRANCH   1   8
BRANCH   2  13
ATOM     13  C   UNL     1       2.002   7.662  19.189  0.00  0.00    +0.000 A 
ATOM     14  C   UNL     1       1.755   8.845  18.473  0.00  0.00    +0.000 A 
ATOM     15  C   UNL     1       1.215   9.968  19.105  0.00  0.00    +0.000 A 
ATOM     16  C   UNL     1       0.896   9.896  20.459  0.00  0.00    +0.000 A 
ATOM     17  C   UNL     1       1.136   8.725  21.187  0.00  0.00    +0.000 A 
ATOM     18  C   UNL     1       1.691   7.610  20.552  0.00  0.00    +0.000 A 
BRANCH  15  19
ATOM     19  O   UNL     1       1.078  11.068  18.302  0.00  0.00    +0.000 OA
ATOM     20  C   UNL     1       2.103  12.053  18.372  0.00  0.00    +0.000 C 
ENDBRANCH  15  19
BRANCH  17  21
ATOM     21  O   UNL     1       0.805   8.810  22.514  0.00  0.00    +0.000 OA
ATOM     22  C   UNL     1      -0.317   9.616  22.847  0.00  0.00    +0.000 C 
ENDBRANCH  17  21
ENDBRANCH   2  13
BRANCH   2  23
ATOM     23  C   UNL     1       1.959   5.371  17.930  0.00  0.00    +0.000 C 
ATOM     24  N   UNL     1       1.339   4.395  17.425  0.00  0.00    +0.000 NA
ENDBRANCH   2  23
TORSDOF 8
ENDMDL
MODEL 8
REMARK VINA RESULT:      -6.5      2.528      6.986
REMARK  Name = 
REMARK  11 active torsions:
REMARK  status: ('A' for Active; 'I' for Inactive)
REMARK    1  A    between atoms: C_1  and  C_2
REMARK    2  A    between atoms: C_2  and  C_3
REMARK    3  A    between atoms: C_3  and  O_4
REMARK    4  A    between atoms: O_4  and  C_5
REMARK    5  A    between atoms: C_10  and  C_11
REMARK    6  A    between atoms: C_12  and  C_13
REMARK    7  A    between atoms: C_12  and  C_15
REMARK    8  A    between atoms: C_17  and  O_18
REMARK    9  A    between atoms: O_18  and  C_19
REMARK   10  A    between atoms: C_21  and  O_22
REMARK   11  A    between atoms: O_22  and  C_23
REMARK                            x       y       z     vdW  Elec       q    Type
REMARK                         _______ _______ _______ _____ _____    ______ ____
ROOT
ATOM      1  C   UNL     1       3.936   6.864  17.878  0.00  0.00    +0.000 C 
ATOM      2  C   UNL     1       2.703   6.654  18.398  0.00  0.00    +0.000 C 
ENDROOT
BRANCH   1   8
ATOM      3  C   UNL     1       5.157   4.615  17.630  0.00  0.00    +0.000 A 
ATOM      4  C   UNL     1       6.089   3.888  16.877  0.00  0.00    +0.000 A 
ATOM      5  C   UNL     1       6.469   4.318  15.604  0.00  0.00    +0.000 A 
ATOM      6  C   UNL     1       5.898   5.462  15.054  0.00  0.00    +0.000 A 
ATOM      7  C   UNL     1       4.972   6.197  15.792  0.00  0.00    +0.000 A 
ATOM      8  C   UNL     1       4.620   5.806  17.099  0.00  0.00    +0.000 A 
BRANCH   3   9
ATOM      9  O   UNL     1       5.015   4.190  18.932  0.00  0.00    +0.000 OA
BRANCH   9  10
ATOM     10  C   UNL     1       4.287   2.972  19.088  0.00  0.00    +0.000 C 
BRANCH  10  12
ATOM     11  C   UNL     1       2.017   2.403  20.179  0.00  0.00    +0.000 C 
ATOM     12  C   UNL     1       3.399   3.024  20.346  0.00  0.00    +0.000 C 
ENDBRANCH  10  12
ENDBRANCH   9  10
ENDBRANCH   3   9
ENDBRANCH   1   8
BRANCH   2  13
ATOM     13  C   UNL     1       2.006   7.798  19.004  0.00  0.00    +0.000 A 
ATOM     14  C   UNL     1       1.881   7.879  20.400  0.00  0.00    +0.000 A 
ATOM     15  C   UNL     1       1.106   8.877  20.995  0.00  0.00    +0.000 A 
ATOM     16  C   UNL     1       0.473   9.818  20.185  0.00  0.00    +0.000 A 
ATOM     17  C   UNL     1       0.588   9.751  18.792  0.00  0.00    +0.000 A 
ATOM     18  C   UNL     1       1.351   8.740  18.202  0.00  0.00    +0.000 A 
BRANCH  15  19
ATOM     19  O   UNL     1       1.027   8.807  22.360  0.00  0.00    +0.000 OA
ATOM     20  C   UNL     1      -0.017   9.544  22.987  0.00  0.00    +0.000 C 
ENDBRANCH  15  19
BRANCH  17  21
ATOM     21  O   UNL     1      -0.115  10.719  18.123  0.00  0.00    +0.000 OA
ATOM     22  C   UNL     1      -1.420  10.374  17.677  0.00  0.00    +0.000 C 
ENDBRANCH  17  21
ENDBRANCH   2  13
BRANCH   2  23
ATOM     23  C   UNL     1       1.952   5.443  17.869  0.00  0.00    +0.000 C 
ATOM     24  N   UNL     1       1.328   4.438  17.430  0.00  0.00    +0.000 NA
ENDBRANCH   2  23
TORSDOF 8
ENDMDL
MODEL 9
REMARK VINA RESULT:      -6.5      3.440      7.011
REMARK  Name = 
REMARK  11 active torsions:
REMARK  status: ('A' for Active; 'I' for Inactive)
REMARK    1  A    between atoms: C_1  and  C_2
REMARK    2  A    between atoms: C_2  and  C_3
REMARK    3  A    between atoms: C_3  and  O_4
REMARK    4  A    between atoms: O_4  and  C_5
REMARK    5  A    between atoms: C_10  and  C_11
REMARK    6  A    between atoms: C_12  and  C_13
REMARK    7  A    between atoms: C_12  and  C_15
REMARK    8  A    between atoms: C_17  and  O_18
REMARK    9  A    between atoms: O_18  and  C_19
REMARK   10  A    between atoms: C_21  and  O_22
REMARK   11  A    between atoms: O_22  and  C_23
REMARK                            x       y       z     vdW  Elec       q    Type
REMARK                         _______ _______ _______ _____ _____    ______ ____
ROOT
ATOM      1  C   UNL     1       1.372   9.330  18.705  0.00  0.00    +0.000 C 
ATOM      2  C   UNL     1       1.396   8.496  19.772  0.00  0.00    +0.000 C 
ENDROOT
BRANCH   1   8
ATOM      3  C   UNL     1      -0.433  11.152  18.886  0.00  0.00    +0.000 A 
ATOM      4  C   UNL     1      -0.735  12.500  18.649  0.00  0.00    +0.000 A 
ATOM      5  C   UNL     1       0.280  13.427  18.402  0.00  0.00    +0.000 A 
ATOM      6  C   UNL     1       1.612  13.024  18.421  0.00  0.00    +0.000 A 
ATOM      7  C   UNL     1       1.929  11.687  18.652  0.00  0.00    +0.000 A 
ATOM      8  C   UNL     1       0.913  10.730  18.848  0.00  0.00    +0.000 A 
BRANCH   3   9
ATOM      9  O   UNL     1      -1.527  10.317  18.925  0.00  0.00    +0.000 OA
BRANCH   9  10
ATOM     10  C   UNL     1      -2.557  10.638  17.990  0.00  0.00    +0.000 C 
BRANCH  10  12
ATOM     11  C   UNL     1      -2.798  10.615  15.420  0.00  0.00    +0.000 C 
ATOM     12  C   UNL     1      -2.356   9.867  16.672  0.00  0.00    +0.000 C 
ENDBRANCH  10  12
ENDBRANCH   9  10
ENDBRANCH   3   9
ENDBRANCH   1   8
BRANCH   2  13
ATOM     13  C   UNL     1       2.028   7.179  19.604  0.00  0.00    +0.000 A 
ATOM     14  C   UNL     1       1.812   6.174  20.562  0.00  0.00    +0.000 A 
ATOM     15  C   UNL     1       2.508   4.964  20.502  0.00  0.00    +0.000 A 
ATOM     16  C   UNL     1       3.407   4.749  19.459  0.00  0.00    +0.000 A 
ATOM     17  C   UNL     1       3.633   5.740  18.497  0.00  0.00    +0.000 A 
ATOM     18  C   UNL     1       2.946   6.955  18.572  0.00  0.00    +0.000 A 
BRANCH  15  19
ATOM     19  O   UNL     1       2.242   4.097  21.528  0.00  0.00    +0.000 OA
ATOM     20  C   UNL     1       1.411   2.980  21.233  0.00  0.00    +0.000 C 
ENDBRANCH  15  19
BRANCH  17  21
ATOM     21  O   UNL     1       4.567   5.404  17.553  0.00  0.00    +0.000 OA
ATOM     22  C   UNL     1       5.779   4.828  18.023  0.00  0.00    +0.000 C 
ENDBRANCH  17  21
ENDBRANCH   2  13
BRANCH   2  23
ATOM     23  C   UNL     1       1.255   9.151  21.136  0.00  0.00    +0.000 C 
ATOM     24  N   UNL     1       1.137   9.695  22.268  0.00  0.00    +0.000 NA
ENDBRANCH   2  23
TORSDOF 8
ENDMDL
