MODEL 1
REMARK VINA RESULT:      -7.6      0.000      0.000
REMARK  Name = 
REMARK  6 active torsions:
REMARK  status: ('A' for Active; 'I' for Inactive)
REMARK    1  A    between atoms: N_2  and  C_4
REMARK    2  A    between atoms: C_9  and  C_10
REMARK    3  A    between atoms: C_11  and  C_12
REMARK    4  A    between atoms: N_13  and  N_14
REMARK    5  A    between atoms: C_15  and  S_16
REMARK    6  A    between atoms: C_19  and  C_20
REMARK                            x       y       z     vdW  Elec       q    Type
REMARK                         _______ _______ _______ _____ _____    ______ ____
ROOT
ATOM      1  C   UNL     1       2.617   6.603  18.929  0.00  0.00    +0.000 C 
ATOM      2  N   UNL     1       3.084   6.002  19.976  0.00  0.00    +0.000 NA
ENDROOT
BRANCH   2   3
ATOM      3  N   UNL     1       3.628   4.744  19.769  0.00  0.00    +0.000 N 
ATOM      4  C   UNL     1       2.999   3.558  20.101  0.00  0.00    +0.000 A 
ATOM      5  N   UNL     1       3.718   2.522  19.736  0.00  0.00    +0.000 NA
ATOM      6  N   UNL     1       4.892   3.005  19.213  0.00  0.00    +0.000 NA
ATOM      7  C   UNL     1       4.869   4.322  19.300  0.00  0.00    +0.000 A 
BRANCH   7   8
ATOM      8  C   UNL     1       6.000   5.145  19.005  0.00  0.00    +0.000 A 
ATOM      9  C   UNL     1       6.197   5.970  17.909  0.00  0.00    +0.000 A 
ATOM     10  C   UNL     1       7.462   6.584  18.070  0.00  0.00    +0.000 A 
ATOM     11  C   UNL     1       7.982   6.084  19.237  0.00  0.00    +0.000 A 
ATOM     12  O   UNL     1       7.110   5.218  19.807  0.00  0.00    +0.000 OA
ENDBRANCH   7   8
BRANCH   4  13
ATOM     13  S   UNL     1       1.435   3.494  20.838  0.00  0.00    +0.000 S 
ATOM     14  H   UNL     1       1.855   3.409  22.110  0.00  0.00    +0.000 HD
ENDBRANCH   4  13
ENDBRANCH   2   3
BRANCH   1  16
ATOM     15  C   UNL     1       1.403   8.396  20.067  0.00  0.00    +0.000 C 
ATOM     16  C   UNL     1       2.128   7.999  19.013  0.00  0.00    +0.000 C 
BRANCH  15  22
ATOM     17  C   UNL     1       0.164  10.240  21.299  0.00  0.00    +0.000 A 
ATOM     18  C   UNL     1      -0.362  11.541  21.348  0.00  0.00    +0.000 A 
ATOM     19  C   UNL     1      -0.201  12.384  20.251  0.00  0.00    +0.000 A 
ATOM     20  C   UNL     1       0.474  11.923  19.119  0.00  0.00    +0.000 A 
ATOM     21  C   UNL     1       0.986  10.619  19.076  0.00  0.00    +0.000 A 
ATOM     22  C   UNL     1       0.843   9.753  20.169  0.00  0.00    +0.000 A 
BRANCH  17  24
ATOM     23  O   UNL     1      -0.820   8.479  22.399  0.00  0.00    +0.000 OA
ATOM     24  N   UNL     1      -0.007   9.409  22.479  0.00  0.00    +0.000 N 
ATOM     25  O   UNL     1       0.644   9.711  23.491  0.00  0.00    +0.000 OA
ENDBRANCH  17  24
ENDBRANCH  15  22
ENDBRANCH   1  16
TORSDOF 6
ENDMDL
MODEL 2
REMARK VINA RESULT:      -7.5      2.837      3.964
REMARK  Name = 
REMARK  6 active torsions:
REMARK  status: ('A' for Active; 'I' for Inactive)
REMARK    1  A    between atoms: N_2  and  C_4
REMARK    2  A    between atoms: C_9  and  C_10
REMARK    3  A    between atoms: C_11  and  C_12
REMARK    4  A    between atoms: N_13  and  N_14
REMARK    5  A    between atoms: C_15  and  S_16
REMARK    6  A    between atoms: C_19  and  C_20
REMARK                            x       y       z     vdW  Elec       q    Type
REMARK                         _______ _______ _______ _____ _____    ______ ____
ROOT
ATOM      1  C   UNL     1       2.939   7.336  18.578  0.00  0.00    +0.000 C 
ATOM      2  N   UNL     1       3.497   6.528  17.736  0.00  0.00    +0.000 NA
ENDROOT
BRANCH   2   3
ATOM      3  N   UNL     1       4.354   5.579  18.270  0.00  0.00    +0.000 N 
ATOM      4  C   UNL     1       5.730   5.605  18.135  0.00  0.00    +0.000 A 
ATOM      5  N   UNL     1       6.291   4.619  18.795  0.00  0.00    +0.000 NA
ATOM      6  N   UNL     1       5.279   3.861  19.331  0.00  0.00    +0.000 NA
ATOM      7  C   UNL     1       4.128   4.390  18.958  0.00  0.00    +0.000 A 
BRANCH   7   8
ATOM      8  C   UNL     1       2.866   3.761  19.194  0.00  0.00    +0.000 A 
ATOM      9  C   UNL     1       1.907   3.389  18.266  0.00  0.00    +0.000 A 
ATOM     10  C   UNL     1       0.839   2.797  18.982  0.00  0.00    +0.000 A 
ATOM     11  C   UNL     1       1.187   2.863  20.307  0.00  0.00    +0.000 A 
ATOM     12  O   UNL     1       2.405   3.441  20.445  0.00  0.00    +0.000 OA
ENDBRANCH   7   8
BRANCH   4  13
ATOM     13  S   UNL     1       6.567   6.838  17.256  0.00  0.00    +0.000 S 
ATOM     14  H   UNL     1       6.604   6.203  16.074  0.00  0.00    +0.000 HD
ENDBRANCH   4  13
ENDBRANCH   2   3
BRANCH   1  16
ATOM     15  C   UNL     1       1.412   9.202  18.993  0.00  0.00    +0.000 C 
ATOM     16  C   UNL     1       1.911   8.304  18.131  0.00  0.00    +0.000 C 
BRANCH  15  22
ATOM     17  C   UNL     1       0.323  11.497  18.998  0.00  0.00    +0.000 A 
ATOM     18  C   UNL     1      -0.720  12.359  18.623  0.00  0.00    +0.000 A 
ATOM     19  C   UNL     1      -1.759  11.868  17.836  0.00  0.00    +0.000 A 
ATOM     20  C   UNL     1      -1.755  10.530  17.440  0.00  0.00    +0.000 A 
ATOM     21  C   UNL     1      -0.714   9.675  17.830  0.00  0.00    +0.000 A 
ATOM     22  C   UNL     1       0.347  10.144  18.615  0.00  0.00    +0.000 A 
BRANCH  17  24
ATOM     23  O   UNL     1       1.306  11.949  21.026  0.00  0.00    +0.000 OA
ATOM     24  N   UNL     1       1.398  12.062  19.796  0.00  0.00    +0.000 N 
ATOM     25  O   UNL     1       2.310  12.649  19.194  0.00  0.00    +0.000 OA
ENDBRANCH  17  24
ENDBRANCH  15  22
ENDBRANCH   1  16
TORSDOF 6
ENDMDL
MODEL 3
REMARK VINA RESULT:      -7.5      2.541      3.728
REMARK  Name = 
REMARK  6 active torsions:
REMARK  status: ('A' for Active; 'I' for Inactive)
REMARK    1  A    between atoms: N_2  and  C_4
REMARK    2  A    between atoms: C_9  and  C_10
REMARK    3  A    between atoms: C_11  and  C_12
REMARK    4  A    between atoms: N_13  and  N_14
REMARK    5  A    between atoms: C_15  and  S_16
REMARK    6  A    between atoms: C_19  and  C_20
REMARK                            x       y       z     vdW  Elec       q    Type
REMARK                         _______ _______ _______ _____ _____    ______ ____
ROOT
ATOM      1  C   UNL     1       2.803   7.268  18.849  0.00  0.00    +0.000 C 
ATOM      2  N   UNL     1       3.445   6.620  17.932  0.00  0.00    +0.000 NA
ENDROOT
BRANCH   2   3
ATOM      3  N   UNL     1       4.300   5.621  18.371  0.00  0.00    +0.000 N 
ATOM      4  C   UNL     1       5.668   5.617  18.163  0.00  0.00    +0.000 A 
ATOM      5  N   UNL     1       6.232   4.582  18.741  0.00  0.00    +0.000 NA
ATOM      6  N   UNL     1       5.227   3.825  19.291  0.00  0.00    +0.000 NA
ATOM      7  C   UNL     1       4.075   4.404  19.008  0.00  0.00    +0.000 A 
BRANCH   7   8
ATOM      8  C   UNL     1       2.809   3.798  19.279  0.00  0.00    +0.000 A 
ATOM      9  C   UNL     1       2.054   3.873  20.439  0.00  0.00    +0.000 A 
ATOM     10  C   UNL     1       0.876   3.118  20.221  0.00  0.00    +0.000 A 
ATOM     11  C   UNL     1       0.985   2.601  18.954  0.00  0.00    +0.000 A 
ATOM     12  O   UNL     1       2.144   3.005  18.380  0.00  0.00    +0.000 OA
ENDBRANCH   7   8
BRANCH   4  13
ATOM     13  S   UNL     1       6.494   6.871  17.305  0.00  0.00    +0.000 S 
ATOM     14  H   UNL     1       7.296   7.258  18.311  0.00  0.00    +0.000 HD
ENDBRANCH   4  13
ENDBRANCH   2   3
BRANCH   1  16
ATOM     15  C   UNL     1       1.269   9.085  19.424  0.00  0.00    +0.000 C 
ATOM     16  C   UNL     1       1.771   8.268  18.488  0.00  0.00    +0.000 C 
BRANCH  15  22
ATOM     17  C   UNL     1      -0.099  11.163  19.939  0.00  0.00    +0.000 A 
ATOM     18  C   UNL     1      -1.136  12.056  19.624  0.00  0.00    +0.000 A 
ATOM     19  C   UNL     1      -1.887  11.848  18.470  0.00  0.00    +0.000 A 
ATOM     20  C   UNL     1      -1.605  10.756  17.648  0.00  0.00    +0.000 A 
ATOM     21  C   UNL     1      -0.575   9.863  17.978  0.00  0.00    +0.000 A 
ATOM     22  C   UNL     1       0.201  10.053  19.129  0.00  0.00    +0.000 A 
BRANCH  17  24
ATOM     23  O   UNL     1       0.314  10.873  22.181  0.00  0.00    +0.000 OA
ATOM     24  N   UNL     1       0.673  11.437  21.139  0.00  0.00    +0.000 N 
ATOM     25  O   UNL     1       1.611  12.243  21.044  0.00  0.00    +0.000 OA
ENDBRANCH  17  24
ENDBRANCH  15  22
ENDBRANCH   1  16
TORSDOF 6
ENDMDL
MODEL 4
REMARK VINA RESULT:      -7.3      0.673      1.057
REMARK  Name = 
REMARK  6 active torsions:
REMARK  status: ('A' for Active; 'I' for Inactive)
REMARK    1  A    between atoms: N_2  and  C_4
REMARK    2  A    between atoms: C_9  and  C_10
REMARK    3  A    between atoms: C_11  and  C_12
REMARK    4  A    between atoms: N_13  and  N_14
REMARK    5  A    between atoms: C_15  and  S_16
REMARK    6  A    between atoms: C_19  and  C_20
REMARK                            x       y       z     vdW  Elec       q    Type
REMARK                         _______ _______ _______ _____ _____    ______ ____
ROOT
ATOM      1  C   UNL     1       2.701   6.653  18.737  0.00  0.00    +0.000 C 
ATOM      2  N   UNL     1       3.111   6.076  19.820  0.00  0.00    +0.000 NA
ENDROOT
BRANCH   2   3
ATOM      3  N   UNL     1       3.771   4.867  19.659  0.00  0.00    +0.000 N 
ATOM      4  C   UNL     1       3.292   3.651  20.113  0.00  0.00    +0.000 A 
ATOM      5  N   UNL     1       4.091   2.669  19.767  0.00  0.00    +0.000 NA
ATOM      6  N   UNL     1       5.171   3.228  19.130  0.00  0.00    +0.000 NA
ATOM      7  C   UNL     1       5.016   4.538  19.131  0.00  0.00    +0.000 A 
BRANCH   7   8
ATOM      8  C   UNL     1       6.033   5.447  18.702  0.00  0.00    +0.000 A 
ATOM      9  C   UNL     1       7.239   5.737  19.319  0.00  0.00    +0.000 A 
ATOM     10  C   UNL     1       7.905   6.688  18.509  0.00  0.00    +0.000 A 
ATOM     11  C   UNL     1       7.064   6.948  17.457  0.00  0.00    +0.000 A 
ATOM     12  O   UNL     1       5.935   6.206  17.564  0.00  0.00    +0.000 OA
ENDBRANCH   7   8
BRANCH   4  13
ATOM     13  S   UNL     1       1.795   3.485  20.963  0.00  0.00    +0.000 S 
ATOM     14  H   UNL     1       2.318   3.269  22.179  0.00  0.00    +0.000 HD
ENDBRANCH   4  13
ENDBRANCH   2   3
BRANCH   1  16
ATOM     15  C   UNL     1       1.560   8.465  19.920  0.00  0.00    +0.000 C 
ATOM     16  C   UNL     1       2.098   8.006  18.782  0.00  0.00    +0.000 C 
BRANCH  15  22
ATOM     17  C   UNL     1       0.192  10.231  21.130  0.00  0.00    +0.000 A 
ATOM     18  C   UNL     1      -0.436  11.486  21.159  0.00  0.00    +0.000 A 
ATOM     19  C   UNL     1      -0.353  12.316  20.044  0.00  0.00    +0.000 A 
ATOM     20  C   UNL     1       0.345  11.888  18.914  0.00  0.00    +0.000 A 
ATOM     21  C   UNL     1       0.959  10.627  18.890  0.00  0.00    +0.000 A 
ATOM     22  C   UNL     1       0.896   9.776  20.002  0.00  0.00    +0.000 A 
BRANCH  17  24
ATOM     23  O   UNL     1       0.885   9.671  23.248  0.00  0.00    +0.000 OA
ATOM     24  N   UNL     1       0.099   9.413  22.327  0.00  0.00    +0.000 N 
ATOM     25  O   UNL     1      -0.733   8.493  22.329  0.00  0.00    +0.000 OA
ENDBRANCH  17  24
ENDBRANCH  15  22
ENDBRANCH   1  16
TORSDOF 6
ENDMDL
MODEL 5
REMARK VINA RESULT:      -7.3      2.454      3.517
REMARK  Name = 
REMARK  6 active torsions:
REMARK  status: ('A' for Active; 'I' for Inactive)
REMARK    1  A    between atoms: N_2  and  C_4
REMARK    2  A    between atoms: C_9  and  C_10
REMARK    3  A    between atoms: C_11  and  C_12
REMARK    4  A    between atoms: N_13  and  N_14
REMARK    5  A    between atoms: C_15  and  S_16
REMARK    6  A    between atoms: C_19  and  C_20
REMARK                            x       y       z     vdW  Elec       q    Type
REMARK                         _______ _______ _______ _____ _____    ______ ____
ROOT
ATOM      1  C   UNL     1       3.050   7.419  18.133  0.00  0.00    +0.000 C 
ATOM      2  N   UNL     1       2.990   6.188  17.740  0.00  0.00    +0.000 NA
ENDROOT
BRANCH   2   3
ATOM      3  N   UNL     1       4.094   5.399  18.022  0.00  0.00    +0.000 N 
ATOM      4  C   UNL     1       5.229   5.333  17.234  0.00  0.00    +0.000 A 
ATOM      5  N   UNL     1       6.138   4.556  17.775  0.00  0.00    +0.000 NA
ATOM      6  N   UNL     1       5.590   4.022  18.915  0.00  0.00    +0.000 NA
ATOM      7  C   UNL     1       4.352   4.465  19.022  0.00  0.00    +0.000 A 
BRANCH   7   8
ATOM      8  C   UNL     1       3.429   3.979  20.000  0.00  0.00    +0.000 A 
ATOM      9  C   UNL     1       2.374   4.654  20.592  0.00  0.00    +0.000 A 
ATOM     10  C   UNL     1       1.748   3.751  21.486  0.00  0.00    +0.000 A 
ATOM     11  C   UNL     1       2.468   2.585  21.413  0.00  0.00    +0.000 A 
ATOM     12  O   UNL     1       3.481   2.712  20.522  0.00  0.00    +0.000 OA
ENDBRANCH   7   8
BRANCH   4  13
ATOM     13  S   UNL     1       5.411   6.231  15.766  0.00  0.00    +0.000 S 
ATOM     14  H   UNL     1       6.112   7.252  16.283  0.00  0.00    +0.000 HD
ENDBRANCH   4  13
ENDBRANCH   2   3
BRANCH   1  16
ATOM     15  C   UNL     1       1.512   9.106  19.014  0.00  0.00    +0.000 C 
ATOM     16  C   UNL     1       1.877   8.315  17.996  0.00  0.00    +0.000 C 
BRANCH  15  22
ATOM     17  C   UNL     1      -0.008  10.925  19.927  0.00  0.00    +0.000 A 
ATOM     18  C   UNL     1      -1.162  11.719  19.830  0.00  0.00    +0.000 A 
ATOM     19  C   UNL     1      -2.003  11.569  18.730  0.00  0.00    +0.000 A 
ATOM     20  C   UNL     1      -1.693  10.628  17.747  0.00  0.00    +0.000 A 
ATOM     21  C   UNL     1      -0.545   9.831  17.858  0.00  0.00    +0.000 A 
ATOM     22  C   UNL     1       0.322   9.968  18.951  0.00  0.00    +0.000 A 
BRANCH  17  24
ATOM     23  O   UNL     1       0.743  10.339  22.018  0.00  0.00    +0.000 OA
ATOM     24  N   UNL     1       0.851  11.138  21.078  0.00  0.00    +0.000 N 
ATOM     25  O   UNL     1       1.604  12.123  21.056  0.00  0.00    +0.000 OA
ENDBRANCH  17  24
ENDBRANCH  15  22
ENDBRANCH   1  16
TORSDOF 6
ENDMDL
MODEL 6
REMARK VINA RESULT:      -7.2      3.682      8.325
REMARK  Name = 
REMARK  6 active torsions:
REMARK  status: ('A' for Active; 'I' for Inactive)
REMARK    1  A    between atoms: N_2  and  C_4
REMARK    2  A    between atoms: C_9  and  C_10
REMARK    3  A    between atoms: C_11  and  C_12
REMARK    4  A    between atoms: N_13  and  N_14
REMARK    5  A    between atoms: C_15  and  S_16
REMARK    6  A    between atoms: C_19  and  C_20
REMARK                            x       y       z     vdW  Elec       q    Type
REMARK                         _______ _______ _______ _____ _____    ______ ____
ROOT
ATOM      1  C   UNL     1       1.375   9.594  18.412  0.00  0.00    +0.000 C 
ATOM      2  N   UNL     1       0.251   9.234  18.942  0.00  0.00    +0.000 NA
ENDROOT
BRANCH   2   3
ATOM      3  N   UNL     1      -0.535  10.250  19.464  0.00  0.00    +0.000 N 
ATOM      4  C   UNL     1      -0.458  10.705  20.767  0.00  0.00    +0.000 A 
ATOM      5  N   UNL     1      -1.273  11.715  20.966  0.00  0.00    +0.000 NA
ATOM      6  N   UNL     1      -1.975  11.906  19.801  0.00  0.00    +0.000 NA
ATOM      7  C   UNL     1      -1.588  10.990  18.933  0.00  0.00    +0.000 A 
BRANCH   7   8
ATOM      8  C   UNL     1      -2.231  10.785  17.673  0.00  0.00    +0.000 A 
ATOM      9  C   UNL     1      -1.990   9.789  16.740  0.00  0.00    +0.000 A 
ATOM     10  C   UNL     1      -2.883  10.001  15.662  0.00  0.00    +0.000 A 
ATOM     11  C   UNL     1      -3.601  11.127  15.979  0.00  0.00    +0.000 A 
ATOM     12  O   UNL     1      -3.216  11.605  17.187  0.00  0.00    +0.000 OA
ENDBRANCH   7   8
BRANCH   4  13
ATOM     13  S   UNL     1       0.637  10.046  21.933  0.00  0.00    +0.000 S 
ATOM     14  H   UNL     1       1.051  11.214  22.450  0.00  0.00    +0.000 HD
ENDBRANCH   4  13
ENDBRANCH   2   3
BRANCH   1  16
ATOM     15  C   UNL     1       2.569   7.460  18.320  0.00  0.00    +0.000 C 
ATOM     16  C   UNL     1       2.233   8.608  17.715  0.00  0.00    +0.000 C 
BRANCH  15  22
ATOM     17  C   UNL     1       3.213   5.094  17.657  0.00  0.00    +0.000 A 
ATOM     18  C   UNL     1       4.105   4.190  17.058  0.00  0.00    +0.000 A 
ATOM     19  C   UNL     1       5.271   4.671  16.470  0.00  0.00    +0.000 A 
ATOM     20  C   UNL     1       5.542   6.040  16.492  0.00  0.00    +0.000 A 
ATOM     21  C   UNL     1       4.651   6.934  17.103  0.00  0.00    +0.000 A 
ATOM     22  C   UNL     1       3.467   6.476  17.695  0.00  0.00    +0.000 A 
BRANCH  17  24
ATOM     23  O   UNL     1       1.952   4.447  19.466  0.00  0.00    +0.000 OA
ATOM     24  N   UNL     1       1.996   4.546  18.232  0.00  0.00    +0.000 N 
ATOM     25  O   UNL     1       1.106   4.182  17.449  0.00  0.00    +0.000 OA
ENDBRANCH  17  24
ENDBRANCH  15  22
ENDBRANCH   1  16
TORSDOF 6
ENDMDL
MODEL 7
REMARK VINA RESULT:      -7.1      2.446      2.910
REMARK  Name = 
REMARK  6 active torsions:
REMARK  status: ('A' for Active; 'I' for Inactive)
REMARK    1  A    between atoms: N_2  and  C_4
REMARK    2  A    between atoms: C_9  and  C_10
REMARK    3  A    between atoms: C_11  and  C_12
REMARK    4  A    between atoms: N_13  and  N_14
REMARK    5  A    between atoms: C_15  and  S_16
REMARK    6  A    between atoms: C_19  and  C_20
REMARK                            x       y       z     vdW  Elec       q    Type
REMARK                         _______ _______ _______ _____ _____    ______ ____
ROOT
ATOM      1  C   UNL     1       3.046   6.464  18.676  0.00  0.00    +0.000 C 
ATOM      2  N   UNL     1       3.950   5.585  18.966  0.00  0.00    +0.000 NA
ENDROOT
BRANCH   2   3
ATOM      3  N   UNL     1       4.627   5.024  17.895  0.00  0.00    +0.000 N 
ATOM      4  C   UNL     1       4.260   3.845  17.270  0.00  0.00    +0.000 A 
ATOM      5  N   UNL     1       5.042   3.587  16.248  0.00  0.00    +0.000 NA
ATOM      6  N   UNL     1       6.006   4.565  16.216  0.00  0.00    +0.000 NA
ATOM      7  C   UNL     1       5.803   5.375  17.237  0.00  0.00    +0.000 A 
BRANCH   7   8
ATOM      8  C   UNL     1       6.718   6.409  17.610  0.00  0.00    +0.000 A 
ATOM      9  C   UNL     1       7.691   6.376  18.596  0.00  0.00    +0.000 A 
ATOM     10  C   UNL     1       8.346   7.631  18.579  0.00  0.00    +0.000 A 
ATOM     11  C   UNL     1       7.724   8.371  17.605  0.00  0.00    +0.000 A 
ATOM     12  O   UNL     1       6.743   7.645  17.017  0.00  0.00    +0.000 OA
ENDBRANCH   7   8
BRANCH   4  13
ATOM     13  S   UNL     1       2.896   2.902  17.763  0.00  0.00    +0.000 S 
ATOM     14  H   UNL     1       1.954   3.816  17.484  0.00  0.00    +0.000 HD
ENDBRANCH   4  13
ENDBRANCH   2   3
BRANCH   1  16
ATOM     15  C   UNL     1       1.596   8.281  19.439  0.00  0.00    +0.000 C 
ATOM     16  C   UNL     1       2.352   7.217  19.746  0.00  0.00    +0.000 C 
BRANCH  15  22
ATOM     17  C   UNL     1       0.335  10.344  20.217  0.00  0.00    +0.000 A 
ATOM     18  C   UNL     1      -0.276  11.095  21.234  0.00  0.00    +0.000 A 
ATOM     19  C   UNL     1      -0.302  10.591  22.532  0.00  0.00    +0.000 A 
ATOM     20  C   UNL     1       0.284   9.354  22.805  0.00  0.00    +0.000 A 
ATOM     21  C   UNL     1       0.902   8.616  21.784  0.00  0.00    +0.000 A 
ATOM     22  C   UNL     1       0.935   9.098  20.469  0.00  0.00    +0.000 A 
BRANCH  17  24
ATOM     23  O   UNL     1      -0.640  10.584  18.150  0.00  0.00    +0.000 OA
ATOM     24  N   UNL     1       0.313  10.900  18.875  0.00  0.00    +0.000 N 
ATOM     25  O   UNL     1       1.265  11.620  18.538  0.00  0.00    +0.000 OA
ENDBRANCH  17  24
ENDBRANCH  15  22
ENDBRANCH   1  16
TORSDOF 6
ENDMDL
MODEL 8
REMARK VINA RESULT:      -7.1      1.616      2.014
REMARK  Name = 
REMARK  6 active torsions:
REMARK  status: ('A' for Active; 'I' for Inactive)
REMARK    1  A    between atoms: N_2  and  C_4
REMARK    2  A    between atoms: C_9  and  C_10
REMARK    3  A    between atoms: C_11  and  C_12
REMARK    4  A    between atoms: N_13  and  N_14
REMARK    5  A    between atoms: C_15  and  S_16
REMARK    6  A    between atoms: C_19  and  C_20
REMARK                            x       y       z     vdW  Elec       q    Type
REMARK                         _______ _______ _______ _____ _____    ______ ____
ROOT
ATOM      1  C   UNL     1       2.496   7.027  18.752  0.00  0.00    +0.000 C 
ATOM      2  N   UNL     1       2.923   6.252  19.696  0.00  0.00    +0.000 NA
ENDROOT
BRANCH   2   3
ATOM      3  N   UNL     1       3.340   4.987  19.310  0.00  0.00    +0.000 N 
ATOM      4  C   UNL     1       2.581   3.839  19.453  0.00  0.00    +0.000 A 
ATOM      5  N   UNL     1       3.199   2.797  18.946  0.00  0.00    +0.000 NA
ATOM      6  N   UNL     1       4.431   3.224  18.516  0.00  0.00    +0.000 NA
ATOM      7  C   UNL     1       4.542   4.508  18.799  0.00  0.00    +0.000 A 
BRANCH   7   8
ATOM      8  C   UNL     1       5.761   5.240  18.644  0.00  0.00    +0.000 A 
ATOM      9  C   UNL     1       6.099   6.140  17.645  0.00  0.00    +0.000 A 
ATOM     10  C   UNL     1       7.404   6.609  17.930  0.00  0.00    +0.000 A 
ATOM     11  C   UNL     1       7.804   5.954  19.068  0.00  0.00    +0.000 A 
ATOM     12  O   UNL     1       6.822   5.129  19.505  0.00  0.00    +0.000 OA
ENDBRANCH   7   8
BRANCH   4  13
ATOM     13  S   UNL     1       0.999   3.835  20.153  0.00  0.00    +0.000 S 
ATOM     14  H   UNL     1       0.795   2.510  20.090  0.00  0.00    +0.000 HD
ENDBRANCH   4  13
ENDBRANCH   2   3
BRANCH   1  16
ATOM     15  C   UNL     1       1.785   9.254  18.031  0.00  0.00    +0.000 C 
ATOM     16  C   UNL     1       2.147   8.439  19.032  0.00  0.00    +0.000 C 
BRANCH  15  22
ATOM     17  C   UNL     1       0.258  11.160  18.730  0.00  0.00    +0.000 A 
ATOM     18  C   UNL     1       0.015  12.531  18.912  0.00  0.00    +0.000 A 
ATOM     19  C   UNL     1       1.022  13.447  18.618  0.00  0.00    +0.000 A 
ATOM     20  C   UNL     1       2.252  12.992  18.142  0.00  0.00    +0.000 A 
ATOM     21  C   UNL     1       2.482  11.621  17.953  0.00  0.00    +0.000 A 
ATOM     22  C   UNL     1       1.487  10.679  18.247  0.00  0.00    +0.000 A 
BRANCH  17  24
ATOM     23  O   UNL     1      -0.811   9.779  20.224  0.00  0.00    +0.000 OA
ATOM     24  N   UNL     1      -0.815  10.243  19.076  0.00  0.00    +0.000 N 
ATOM     25  O   UNL     1      -1.635   9.961  18.189  0.00  0.00    +0.000 OA
ENDBRANCH  17  24
ENDBRANCH  15  22
ENDBRANCH   1  16
TORSDOF 6
ENDMDL
MODEL 9
REMARK VINA RESULT:      -7.1      1.966      3.290
REMARK  Name = 
REMARK  6 active torsions:
REMARK  status: ('A' for Active; 'I' for Inactive)
REMARK    1  A    between atoms: N_2  and  C_4
REMARK    2  A    between atoms: C_9  and  C_10
REMARK    3  A    between atoms: C_11  and  C_12
REMARK    4  A    between atoms: N_13  and  N_14
REMARK    5  A    between atoms: C_15  and  S_16
REMARK    6  A    between atoms: C_19  and  C_20
REMARK                            x       y       z     vdW  Elec       q    Type
REMARK                         _______ _______ _______ _____ _____    ______ ____
ROOT
ATOM      1  C   UNL     1       2.770   6.897  18.440  0.00  0.00    +0.000 C 
ATOM      2  N   UNL     1       3.669   6.596  19.320  0.00  0.00    +0.000 NA
ENDROOT
BRANCH   2   3
ATOM      3  N   UNL     1       4.382   5.428  19.096  0.00  0.00    +0.000 N 
ATOM      4  C   UNL     1       5.536   5.353  18.338  0.00  0.00    +0.000 A 
ATOM      5  N   UNL     1       6.031   4.136  18.348  0.00  0.00    +0.000 NA
ATOM      6  N   UNL     1       5.162   3.350  19.063  0.00  0.00    +0.000 NA
ATOM      7  C   UNL     1       4.146   4.102  19.444  0.00  0.00    +0.000 A 
BRANCH   7   8
ATOM      8  C   UNL     1       2.971   3.573  20.064  0.00  0.00    +0.000 A 
ATOM      9  C   UNL     1       1.664   3.622  19.605  0.00  0.00    +0.000 A 
ATOM     10  C   UNL     1       0.860   2.954  20.560  0.00  0.00    +0.000 A 
ATOM     11  C   UNL     1       1.710   2.556  21.561  0.00  0.00    +0.000 A 
ATOM     12  O   UNL     1       2.982   2.924  21.272  0.00  0.00    +0.000 OA
ENDBRANCH   7   8
BRANCH   4  13
ATOM     13  S   UNL     1       6.240   6.723  17.553  0.00  0.00    +0.000 S 
ATOM     14  H   UNL     1       6.804   7.266  18.643  0.00  0.00    +0.000 HD
ENDBRANCH   4  13
ENDBRANCH   2   3
BRANCH   1  16
ATOM     15  C   UNL     1       1.507   8.590  19.674  0.00  0.00    +0.000 C 
ATOM     16  C   UNL     1       2.040   8.184  18.513  0.00  0.00    +0.000 C 
BRANCH  15  22
ATOM     17  C   UNL     1       0.002  10.201  20.936  0.00  0.00    +0.000 A 
ATOM     18  C   UNL     1      -0.744  11.389  20.995  0.00  0.00    +0.000 A 
ATOM     19  C   UNL     1      -0.768  12.235  19.889  0.00  0.00    +0.000 A 
ATOM     20  C   UNL     1      -0.058  11.888  18.738  0.00  0.00    +0.000 A 
ATOM     21  C   UNL     1       0.674  10.693  18.685  0.00  0.00    +0.000 A 
ATOM     22  C   UNL     1       0.720   9.828  19.787  0.00  0.00    +0.000 A 
BRANCH  17  24
ATOM     23  O   UNL     1      -0.801   8.437  22.172  0.00  0.00    +0.000 OA
ATOM     24  N   UNL     1       0.017   9.366  22.125  0.00  0.00    +0.000 N 
ATOM     25  O   UNL     1       0.820   9.662  23.023  0.00  0.00    +0.000 OA
ENDBRANCH  17  24
ENDBRANCH  15  22
ENDBRANCH   1  16
TORSDOF 6
ENDMDL
