MODEL 1
REMARK VINA RESULT:      -7.0      0.000      0.000
REMARK  Name = 
REMARK  5 active torsions:
REMARK  status: ('A' for Active; 'I' for Inactive)
REMARK    1  A    between atoms: C_2  and  C_13
REMARK    2  A    between atoms: N_3  and  C_4
REMARK    3  A    between atoms: C_4  and  C_5
REMARK    4  A    between atoms: C_5  and  S_6
REMARK    5  A    between atoms: S_6  and  C_7
REMARK                            x       y       z     vdW  Elec       q    Type
REMARK                         _______ _______ _______ _____ _____    ______ ____
ROOT
ATOM      1  O   UNL     1       7.670   4.868  16.435  0.00  0.00    +0.000 OA
ATOM      2  C   UNL     1       6.855   5.266  15.603  0.00  0.00    +0.000 C 
ATOM      3  N   UNL     1       5.909   6.223  15.909  0.00  0.00    +0.000 N 
ATOM      4  H   UNL     1       5.195   6.410  15.213  0.00  0.00    +0.000 HD
ENDROOT
BRANCH   2   5
ATOM      5  C   UNL     1       6.823   4.771  14.246  0.00  0.00    +0.000 A 
ATOM      6  C   UNL     1       6.079   3.746  13.693  0.00  0.00    +0.000 A 
ATOM      7  C   UNL     1       6.445   3.660  12.334  0.00  0.00    +0.000 A 
ATOM      8  C   UNL     1       7.390   4.638  12.131  0.00  0.00    +0.000 A 
ATOM      9  O   UNL     1       7.628   5.324  13.283  0.00  0.00    +0.000 OA
ENDBRANCH   2   5
BRANCH   3  10
ATOM     10  C   UNL     1       5.765   6.742  17.259  0.00  0.00    +0.000 C 
BRANCH  10  11
ATOM     11  C   UNL     1       4.883   5.863  18.152  0.00  0.00    +0.000 C 
BRANCH  11  12
ATOM     12  S   UNL     1       3.142   6.401  18.027  0.00  0.00    +0.000 S 
BRANCH  12  13
ATOM     13  C   UNL     1       2.238   5.035  18.748  0.00  0.00    +0.000 A 
ATOM     14  C   UNL     1       1.667   3.985  18.022  0.00  0.00    +0.000 A 
ATOM     15  C   UNL     1       0.957   2.971  18.672  0.00  0.00    +0.000 A 
ATOM     16  C   UNL     1       0.816   2.990  20.057  0.00  0.00    +0.000 A 
ATOM     17  C   UNL     1       1.395   4.019  20.796  0.00  0.00    +0.000 A 
ATOM     18  C   UNL     1       2.102   5.033  20.144  0.00  0.00    +0.000 A 
ENDBRANCH  12  13
ENDBRANCH  11  12
ENDBRANCH  10  11
ENDBRANCH   3  10
TORSDOF 5
ENDMDL
MODEL 2
REMARK VINA RESULT:      -6.8      0.858      1.363
REMARK  Name = 
REMARK  5 active torsions:
REMARK  status: ('A' for Active; 'I' for Inactive)
REMARK    1  A    between atoms: C_2  and  C_13
REMARK    2  A    between atoms: N_3  and  C_4
REMARK    3  A    between atoms: C_4  and  C_5
REMARK    4  A    between atoms: C_5  and  S_6
REMARK    5  A    between atoms: S_6  and  C_7
REMARK                            x       y       z     vdW  Elec       q    Type
REMARK                         _______ _______ _______ _____ _____    ______ ____
ROOT
ATOM      1  O   UNL     1       7.197   4.659  16.555  0.00  0.00    +0.000 OA
ATOM      2  C   UNL     1       6.627   5.235  15.629  0.00  0.00    +0.000 C 
ATOM      3  N   UNL     1       5.852   6.358  15.835  0.00  0.00    +0.000 N 
ATOM      4  H   UNL     1       5.316   6.704  15.047  0.00  0.00    +0.000 HD
ENDROOT
BRANCH   2   5
ATOM      5  C   UNL     1       6.724   4.789  14.258  0.00  0.00    +0.000 A 
ATOM      6  C   UNL     1       5.996   3.826  13.585  0.00  0.00    +0.000 A 
ATOM      7  C   UNL     1       6.508   3.766  12.273  0.00  0.00    +0.000 A 
ATOM      8  C   UNL     1       7.518   4.698  12.216  0.00  0.00    +0.000 A 
ATOM      9  O   UNL     1       7.659   5.330  13.412  0.00  0.00    +0.000 OA
ENDBRANCH   2   5
BRANCH   3  10
ATOM     10  C   UNL     1       5.592   6.864  17.173  0.00  0.00    +0.000 C 
BRANCH  10  11
ATOM     11  C   UNL     1       4.275   6.352  17.765  0.00  0.00    +0.000 C 
BRANCH  11  12
ATOM     12  S   UNL     1       4.619   5.207  19.146  0.00  0.00    +0.000 S 
BRANCH  12  13
ATOM     13  C   UNL     1       3.092   4.287  19.305  0.00  0.00    +0.000 A 
ATOM     14  C   UNL     1       2.059   4.602  20.193  0.00  0.00    +0.000 A 
ATOM     15  C   UNL     1       0.910   3.808  20.262  0.00  0.00    +0.000 A 
ATOM     16  C   UNL     1       0.777   2.694  19.439  0.00  0.00    +0.000 A 
ATOM     17  C   UNL     1       1.789   2.377  18.537  0.00  0.00    +0.000 A 
ATOM     18  C   UNL     1       2.937   3.170  18.471  0.00  0.00    +0.000 A 
ENDBRANCH  12  13
ENDBRANCH  11  12
ENDBRANCH  10  11
ENDBRANCH   3  10
TORSDOF 5
ENDMDL
MODEL 3
REMARK VINA RESULT:      -6.6      1.003      1.193
REMARK  Name = 
REMARK  5 active torsions:
REMARK  status: ('A' for Active; 'I' for Inactive)
REMARK    1  A    between atoms: C_2  and  C_13
REMARK    2  A    between atoms: N_3  and  C_4
REMARK    3  A    between atoms: C_4  and  C_5
REMARK    4  A    between atoms: C_5  and  S_6
REMARK    5  A    between atoms: S_6  and  C_7
REMARK                            x       y       z     vdW  Elec       q    Type
REMARK                         _______ _______ _______ _____ _____    ______ ____
ROOT
ATOM      1  O   UNL     1       7.783   4.711  16.201  0.00  0.00    +0.000 OA
ATOM      2  C   UNL     1       6.940   5.099  15.392  0.00  0.00    +0.000 C 
ATOM      3  N   UNL     1       6.007   6.062  15.716  0.00  0.00    +0.000 N 
ATOM      4  H   UNL     1       5.270   6.241  15.043  0.00  0.00    +0.000 HD
ENDROOT
BRANCH   2   5
ATOM      5  C   UNL     1       6.860   4.584  14.044  0.00  0.00    +0.000 A 
ATOM      6  C   UNL     1       7.602   4.910  12.925  0.00  0.00    +0.000 A 
ATOM      7  C   UNL     1       7.104   4.132  11.860  0.00  0.00    +0.000 A 
ATOM      8  C   UNL     1       6.087   3.371  12.388  0.00  0.00    +0.000 A 
ATOM      9  O   UNL     1       5.930   3.631  13.715  0.00  0.00    +0.000 OA
ENDBRANCH   2   5
BRANCH   3  10
ATOM     10  C   UNL     1       5.911   6.601  17.062  0.00  0.00    +0.000 C 
BRANCH  10  11
ATOM     11  C   UNL     1       4.624   6.193  17.786  0.00  0.00    +0.000 C 
BRANCH  11  12
ATOM     12  S   UNL     1       4.059   4.565  17.176  0.00  0.00    +0.000 S 
BRANCH  12  13
ATOM     13  C   UNL     1       2.795   4.102  18.355  0.00  0.00    +0.000 A 
ATOM     14  C   UNL     1       1.846   3.095  18.154  0.00  0.00    +0.000 A 
ATOM     15  C   UNL     1       0.880   2.820  19.126  0.00  0.00    +0.000 A 
ATOM     16  C   UNL     1       0.855   3.542  20.316  0.00  0.00    +0.000 A 
ATOM     17  C   UNL     1       1.805   4.536  20.539  0.00  0.00    +0.000 A 
ATOM     18  C   UNL     1       2.769   4.811  19.565  0.00  0.00    +0.000 A 
ENDBRANCH  12  13
ENDBRANCH  11  12
ENDBRANCH  10  11
ENDBRANCH   3  10
TORSDOF 5
ENDMDL
MODEL 4
REMARK VINA RESULT:      -6.6      0.740      1.424
REMARK  Name = 
REMARK  5 active torsions:
REMARK  status: ('A' for Active; 'I' for Inactive)
REMARK    1  A    between atoms: C_2  and  C_13
REMARK    2  A    between atoms: N_3  and  C_4
REMARK    3  A    between atoms: C_4  and  C_5
REMARK    4  A    between atoms: C_5  and  S_6
REMARK    5  A    between atoms: S_6  and  C_7
REMARK                            x       y       z     vdW  Elec       q    Type
REMARK                         _______ _______ _______ _____ _____    ______ ____
ROOT
ATOM      1  O   UNL     1       7.629   5.776  16.210  0.00  0.00    +0.000 OA
ATOM      2  C   UNL     1       6.827   4.982  15.720  0.00  0.00    +0.000 C 
ATOM      3  N   UNL     1       5.871   4.346  16.485  0.00  0.00    +0.000 N 
ATOM      4  H   UNL     1       5.328   3.615  16.038  0.00  0.00    +0.000 HD
ENDROOT
BRANCH   2   5
ATOM      5  C   UNL     1       6.818   4.653  14.313  0.00  0.00    +0.000 A 
ATOM      6  C   UNL     1       6.079   3.707  13.628  0.00  0.00    +0.000 A 
ATOM      7  C   UNL     1       6.469   3.781  12.275  0.00  0.00    +0.000 A 
ATOM      8  C   UNL     1       7.420   4.772  12.207  0.00  0.00    +0.000 A 
ATOM      9  O   UNL     1       7.641   5.314  13.436  0.00  0.00    +0.000 OA
ENDBRANCH   2   5
BRANCH   3  10
ATOM     10  C   UNL     1       5.823   4.511  17.928  0.00  0.00    +0.000 C 
BRANCH  10  11
ATOM     11  C   UNL     1       5.297   5.884  18.361  0.00  0.00    +0.000 C 
BRANCH  11  12
ATOM     12  S   UNL     1       3.591   6.116  17.748  0.00  0.00    +0.000 S 
BRANCH  12  13
ATOM     13  C   UNL     1       2.647   4.939  18.711  0.00  0.00    +0.000 A 
ATOM     14  C   UNL     1       2.707   4.815  20.103  0.00  0.00    +0.000 A 
ATOM     15  C   UNL     1       1.947   3.848  20.767  0.00  0.00    +0.000 A 
ATOM     16  C   UNL     1       1.110   2.998  20.049  0.00  0.00    +0.000 A 
ATOM     17  C   UNL     1       1.025   3.121  18.665  0.00  0.00    +0.000 A 
ATOM     18  C   UNL     1       1.787   4.087  18.002  0.00  0.00    +0.000 A 
ENDBRANCH  12  13
ENDBRANCH  11  12
ENDBRANCH  10  11
ENDBRANCH   3  10
TORSDOF 5
ENDMDL
MODEL 5
REMARK VINA RESULT:      -6.6      0.972      1.237
REMARK  Name = 
REMARK  5 active torsions:
REMARK  status: ('A' for Active; 'I' for Inactive)
REMARK    1  A    between atoms: C_2  and  C_13
REMARK    2  A    between atoms: N_3  and  C_4
REMARK    3  A    between atoms: C_4  and  C_5
REMARK    4  A    between atoms: C_5  and  S_6
REMARK    5  A    between atoms: S_6  and  C_7
REMARK                            x       y       z     vdW  Elec       q    Type
REMARK                         _______ _______ _______ _____ _____    ______ ____
ROOT
ATOM      1  O   UNL     1       7.622   4.788  16.433  0.00  0.00    +0.000 OA
ATOM      2  C   UNL     1       6.650   4.507  15.733  0.00  0.00    +0.000 C 
ATOM      3  N   UNL     1       5.392   4.330  16.270  0.00  0.00    +0.000 N 
ATOM      4  H   UNL     1       4.667   3.979  15.652  0.00  0.00    +0.000 HD
ENDROOT
BRANCH   2   5
ATOM      5  C   UNL     1       6.744   4.342  14.300  0.00  0.00    +0.000 A 
ATOM      6  C   UNL     1       7.513   5.026  13.378  0.00  0.00    +0.000 A 
ATOM      7  C   UNL     1       7.210   4.487  12.110  0.00  0.00    +0.000 A 
ATOM      8  C   UNL     1       6.276   3.502  12.329  0.00  0.00    +0.000 A 
ATOM      9  O   UNL     1       5.986   3.399  13.655  0.00  0.00    +0.000 OA
ENDBRANCH   2   5
BRANCH   3  10
ATOM     10  C   UNL     1       5.167   4.374  17.705  0.00  0.00    +0.000 C 
BRANCH  10  11
ATOM     11  C   UNL     1       4.952   5.795  18.238  0.00  0.00    +0.000 C 
BRANCH  11  12
ATOM     12  S   UNL     1       3.192   6.258  18.077  0.00  0.00    +0.000 S 
BRANCH  12  13
ATOM     13  C   UNL     1       2.339   4.922  18.908  0.00  0.00    +0.000 A 
ATOM     14  C   UNL     1       1.611   3.917  18.264  0.00  0.00    +0.000 A 
ATOM     15  C   UNL     1       0.958   2.925  19.001  0.00  0.00    +0.000 A 
ATOM     16  C   UNL     1       1.030   2.920  20.391  0.00  0.00    +0.000 A 
ATOM     17  C   UNL     1       1.766   3.904  21.046  0.00  0.00    +0.000 A 
ATOM     18  C   UNL     1       2.417   4.896  20.308  0.00  0.00    +0.000 A 
ENDBRANCH  12  13
ENDBRANCH  11  12
ENDBRANCH  10  11
ENDBRANCH   3  10
TORSDOF 5
ENDMDL
MODEL 6
REMARK VINA RESULT:      -6.5      1.655      1.875
REMARK  Name = 
REMARK  5 active torsions:
REMARK  status: ('A' for Active; 'I' for Inactive)
REMARK    1  A    between atoms: C_2  and  C_13
REMARK    2  A    between atoms: N_3  and  C_4
REMARK    3  A    between atoms: C_4  and  C_5
REMARK    4  A    between atoms: C_5  and  S_6
REMARK    5  A    between atoms: S_6  and  C_7
REMARK                            x       y       z     vdW  Elec       q    Type
REMARK                         _______ _______ _______ _____ _____    ______ ____
ROOT
ATOM      1  O   UNL     1       7.595   5.688  15.019  0.00  0.00    +0.000 OA
ATOM      2  C   UNL     1       6.850   4.709  14.984  0.00  0.00    +0.000 C 
ATOM      3  N   UNL     1       6.414   4.082  16.133  0.00  0.00    +0.000 N 
ATOM      4  H   UNL     1       5.906   3.212  16.024  0.00  0.00    +0.000 HD
ENDROOT
BRANCH   2   5
ATOM      5  C   UNL     1       6.370   4.141  13.745  0.00  0.00    +0.000 A 
ATOM      6  C   UNL     1       7.069   3.757  12.616  0.00  0.00    +0.000 A 
ATOM      7  C   UNL     1       6.120   3.287  11.685  0.00  0.00    +0.000 A 
ATOM      8  C   UNL     1       4.894   3.407  12.298  0.00  0.00    +0.000 A 
ATOM      9  O   UNL     1       5.030   3.921  13.551  0.00  0.00    +0.000 OA
ENDBRANCH   2   5
BRANCH   3  10
ATOM     10  C   UNL     1       6.890   4.490  17.445  0.00  0.00    +0.000 C 
BRANCH  10  11
ATOM     11  C   UNL     1       5.794   4.469  18.516  0.00  0.00    +0.000 C 
BRANCH  11  12
ATOM     12  S   UNL     1       4.150   4.536  17.724  0.00  0.00    +0.000 S 
BRANCH  12  13
ATOM     13  C   UNL     1       3.048   3.974  19.017  0.00  0.00    +0.000 A 
ATOM     14  C   UNL     1       1.688   4.289  19.101  0.00  0.00    +0.000 A 
ATOM     15  C   UNL     1       0.911   3.822  20.164  0.00  0.00    +0.000 A 
ATOM     16  C   UNL     1       1.481   3.026  21.154  0.00  0.00    +0.000 A 
ATOM     17  C   UNL     1       2.830   2.688  21.076  0.00  0.00    +0.000 A 
ATOM     18  C   UNL     1       3.606   3.158  20.013  0.00  0.00    +0.000 A 
ENDBRANCH  12  13
ENDBRANCH  11  12
ENDBRANCH  10  11
ENDBRANCH   3  10
TORSDOF 5
ENDMDL
MODEL 7
REMARK VINA RESULT:      -6.5      1.538      1.877
REMARK  Name = 
REMARK  5 active torsions:
REMARK  status: ('A' for Active; 'I' for Inactive)
REMARK    1  A    between atoms: C_2  and  C_13
REMARK    2  A    between atoms: N_3  and  C_4
REMARK    3  A    between atoms: C_4  and  C_5
REMARK    4  A    between atoms: C_5  and  S_6
REMARK    5  A    between atoms: S_6  and  C_7
REMARK                            x       y       z     vdW  Elec       q    Type
REMARK                         _______ _______ _______ _____ _____    ______ ____
ROOT
ATOM      1  O   UNL     1       7.669   5.428  14.934  0.00  0.00    +0.000 OA
ATOM      2  C   UNL     1       6.823   4.535  14.916  0.00  0.00    +0.000 C 
ATOM      3  N   UNL     1       6.311   3.993  16.077  0.00  0.00    +0.000 N 
ATOM      4  H   UNL     1       5.712   3.179  15.986  0.00  0.00    +0.000 HD
ENDROOT
BRANCH   2   5
ATOM      5  C   UNL     1       6.298   3.984  13.688  0.00  0.00    +0.000 A 
ATOM      6  C   UNL     1       5.002   3.642  13.353  0.00  0.00    +0.000 A 
ATOM      7  C   UNL     1       5.038   3.127  12.040  0.00  0.00    +0.000 A 
ATOM      8  C   UNL     1       6.354   3.187  11.646  0.00  0.00    +0.000 A 
ATOM      9  O   UNL     1       7.131   3.709  12.634  0.00  0.00    +0.000 OA
ENDBRANCH   2   5
BRANCH   3  10
ATOM     10  C   UNL     1       6.814   4.386  17.383  0.00  0.00    +0.000 C 
BRANCH  10  11
ATOM     11  C   UNL     1       5.702   4.650  18.403  0.00  0.00    +0.000 C 
BRANCH  11  12
ATOM     12  S   UNL     1       4.070   4.398  17.621  0.00  0.00    +0.000 S 
BRANCH  12  13
ATOM     13  C   UNL     1       3.057   3.801  18.970  0.00  0.00    +0.000 A 
ATOM     14  C   UNL     1       3.550   3.213  20.140  0.00  0.00    +0.000 A 
ATOM     15  C   UNL     1       2.678   2.754  21.131  0.00  0.00    +0.000 A 
ATOM     16  C   UNL     1       1.301   2.884  20.970  0.00  0.00    +0.000 A 
ATOM     17  C   UNL     1       0.795   3.483  19.819  0.00  0.00    +0.000 A 
ATOM     18  C   UNL     1       1.668   3.940  18.829  0.00  0.00    +0.000 A 
ENDBRANCH  12  13
ENDBRANCH  11  12
ENDBRANCH  10  11
ENDBRANCH   3  10
TORSDOF 5
ENDMDL
MODEL 8
REMARK VINA RESULT:      -6.5      1.916      2.176
REMARK  Name = 
REMARK  5 active torsions:
REMARK  status: ('A' for Active; 'I' for Inactive)
REMARK    1  A    between atoms: C_2  and  C_13
REMARK    2  A    between atoms: N_3  and  C_4
REMARK    3  A    between atoms: C_4  and  C_5
REMARK    4  A    between atoms: C_5  and  S_6
REMARK    5  A    between atoms: S_6  and  C_7
REMARK                            x       y       z     vdW  Elec       q    Type
REMARK                         _______ _______ _______ _____ _____    ______ ____
ROOT
ATOM      1  O   UNL     1       5.556   6.390  15.619  0.00  0.00    +0.000 OA
ATOM      2  C   UNL     1       6.432   5.554  15.403  0.00  0.00    +0.000 C 
ATOM      3  N   UNL     1       7.369   5.216  16.358  0.00  0.00    +0.000 N 
ATOM      4  H   UNL     1       8.132   4.614  16.069  0.00  0.00    +0.000 HD
ENDROOT
BRANCH   2   5
ATOM      5  C   UNL     1       6.550   4.857  14.142  0.00  0.00    +0.000 A 
ATOM      6  C   UNL     1       5.812   3.804  13.639  0.00  0.00    +0.000 A 
ATOM      7  C   UNL     1       6.355   3.487  12.376  0.00  0.00    +0.000 A 
ATOM      8  C   UNL     1       7.393   4.367  12.177  0.00  0.00    +0.000 A 
ATOM      9  O   UNL     1       7.522   5.208  13.240  0.00  0.00    +0.000 OA
ENDBRANCH   2   5
BRANCH   3  10
ATOM     10  C   UNL     1       7.427   5.902  17.638  0.00  0.00    +0.000 C 
BRANCH  10  11
ATOM     11  C   UNL     1       6.876   5.064  18.797  0.00  0.00    +0.000 C 
BRANCH  11  12
ATOM     12  S   UNL     1       5.165   5.579  19.177  0.00  0.00    +0.000 S 
BRANCH  12  13
ATOM     13  C   UNL     1       4.192   4.158  18.691  0.00  0.00    +0.000 A 
ATOM     14  C   UNL     1       4.265   2.897  19.292  0.00  0.00    +0.000 A 
ATOM     15  C   UNL     1       3.479   1.838  18.828  0.00  0.00    +0.000 A 
ATOM     16  C   UNL     1       2.604   2.028  17.762  0.00  0.00    +0.000 A 
ATOM     17  C   UNL     1       2.507   3.282  17.165  0.00  0.00    +0.000 A 
ATOM     18  C   UNL     1       3.294   4.339  17.629  0.00  0.00    +0.000 A 
ENDBRANCH  12  13
ENDBRANCH  11  12
ENDBRANCH  10  11
ENDBRANCH   3  10
TORSDOF 5
ENDMDL
MODEL 9
REMARK VINA RESULT:      -6.5      1.348      1.805
REMARK  Name = 
REMARK  5 active torsions:
REMARK  status: ('A' for Active; 'I' for Inactive)
REMARK    1  A    between atoms: C_2  and  C_13
REMARK    2  A    between atoms: N_3  and  C_4
REMARK    3  A    between atoms: C_4  and  C_5
REMARK    4  A    between atoms: C_5  and  S_6
REMARK    5  A    between atoms: S_6  and  C_7
REMARK                            x       y       z     vdW  Elec       q    Type
REMARK                         _______ _______ _______ _____ _____    ______ ____
ROOT
ATOM      1  O   UNL     1       7.789   5.612  15.044  0.00  0.00    +0.000 OA
ATOM      2  C   UNL     1       6.936   4.725  15.058  0.00  0.00    +0.000 C 
ATOM      3  N   UNL     1       6.415   4.234  16.238  0.00  0.00    +0.000 N 
ATOM      4  H   UNL     1       5.810   3.422  16.176  0.00  0.00    +0.000 HD
ENDROOT
BRANCH   2   5
ATOM      5  C   UNL     1       6.411   4.131  13.850  0.00  0.00    +0.000 A 
ATOM      6  C   UNL     1       5.119   3.754  13.537  0.00  0.00    +0.000 A 
ATOM      7  C   UNL     1       5.155   3.203  12.239  0.00  0.00    +0.000 A 
ATOM      8  C   UNL     1       6.466   3.277  11.831  0.00  0.00    +0.000 A 
ATOM      9  O   UNL     1       7.241   3.842  12.797  0.00  0.00    +0.000 OA
ENDBRANCH   2   5
BRANCH   3  10
ATOM     10  C   UNL     1       6.916   4.674  17.529  0.00  0.00    +0.000 C 
BRANCH  10  11
ATOM     11  C   UNL     1       5.843   4.676  18.623  0.00  0.00    +0.000 C 
BRANCH  11  12
ATOM     12  S   UNL     1       4.357   5.561  18.035  0.00  0.00    +0.000 S 
BRANCH  12  13
ATOM     13  C   UNL     1       3.029   4.417  18.398  0.00  0.00    +0.000 A 
ATOM     14  C   UNL     1       2.022   4.638  19.343  0.00  0.00    +0.000 A 
ATOM     15  C   UNL     1       1.037   3.674  19.575  0.00  0.00    +0.000 A 
ATOM     16  C   UNL     1       1.041   2.480  18.859  0.00  0.00    +0.000 A 
ATOM     17  C   UNL     1       2.026   2.253  17.901  0.00  0.00    +0.000 A 
ATOM     18  C   UNL     1       3.011   3.217  17.672  0.00  0.00    +0.000 A 
ENDBRANCH  12  13
ENDBRANCH  11  12
ENDBRANCH  10  11
ENDBRANCH   3  10
TORSDOF 5
ENDMDL
