MODEL 1
REMARK VINA RESULT:      -8.5      0.000      0.000
REMARK  Name = 
REMARK  6 active torsions:
REMARK  status: ('A' for Active; 'I' for Inactive)
REMARK    1  A    between atoms: C_1  and  N_2
REMARK    2  A    between atoms: N_5  and  C_6
REMARK    3  A    between atoms: C_12  and  S_13
REMARK    4  A    between atoms: S_13  and  C_16
REMARK    5  A    between atoms: N_27  and  C_28
REMARK    6  A    between atoms: C_28  and  C_29
REMARK                            x       y       z     vdW  Elec       q    Type
REMARK                         _______ _______ _______ _____ _____    ______ ____
ROOT
ATOM      1  C   UNL     1      -2.635  11.711  18.640  0.00  0.00    +0.000 A 
ATOM      2  C   UNL     1      -2.336  10.446  18.122  0.00  0.00    +0.000 A 
ATOM      3  C   UNL     1      -1.036   9.970  18.025  0.00  0.00    +0.000 A 
ATOM      4  C   UNL     1       0.009  10.806  18.438  0.00  0.00    +0.000 A 
ATOM      5  C   UNL     1      -0.165  12.081  19.000  0.00  0.00    +0.000 A 
ATOM      6  C   UNL     1      -1.528  12.534  19.060  0.00  0.00    +0.000 A 
ATOM      7  C   UNL     1       1.198  12.490  19.365  0.00  0.00    +0.000 A 
ATOM      8  N   UNL     1       2.091  11.620  18.813  0.00  0.00    +0.000 NA
ATOM      9  N   UNL     1       1.362  10.567  18.390  0.00  0.00    +0.000 N 
ENDROOT
BRANCH   1  14
ATOM     10  C   UNL     1      -7.916  13.722  19.123  0.00  0.00    +0.000 C 
ATOM     11  N   UNL     1      -6.785  12.812  19.309  0.00  0.00    +0.000 NA
ATOM     12  C   UNL     1      -5.666  13.518  19.966  0.00  0.00    +0.000 C 
ATOM     13  C   UNL     1      -4.425  12.614  20.147  0.00  0.00    +0.000 C 
ATOM     14  N   UNL     1      -3.976  12.074  18.833  0.00  0.00    +0.000 N 
ATOM     15  C   UNL     1      -5.062  11.350  18.145  0.00  0.00    +0.000 C 
ATOM     16  C   UNL     1      -6.304  12.280  18.009  0.00  0.00    +0.000 C 
ENDBRANCH   1  14
BRANCH   7  17
ATOM     17  S   UNL     1       1.843  13.979  20.397  0.00  0.00    +0.000 S 
ATOM     18  O   UNL     1       1.443  13.658  21.744  0.00  0.00    +0.000 OA
ATOM     19  O   UNL     1       3.250  14.104  20.009  0.00  0.00    +0.000 OA
BRANCH  17  20
ATOM     20  C   UNL     1       0.916  15.513  19.887  0.00  0.00    +0.000 A 
ATOM     21  C   UNL     1      -0.198  15.566  20.706  0.00  0.00    +0.000 A 
ATOM     22  C   UNL     1      -0.835  16.753  20.837  0.00  0.00    +0.000 A 
ATOM     23  C   UNL     1      -1.295  17.101  19.609  0.00  0.00    +0.000 A 
ATOM     24  C   UNL     1      -0.352  17.129  18.591  0.00  0.00    +0.000 A 
ATOM     25  C   UNL     1      -0.785  17.894  17.501  0.00  0.00    +0.000 A 
ATOM     26  C   UNL     1       0.121  18.435  16.624  0.00  0.00    +0.000 A 
ATOM     27  C   UNL     1       1.462  18.134  16.823  0.00  0.00    +0.000 A 
ATOM     28  C   UNL     1       1.871  17.161  17.810  0.00  0.00    +0.000 A 
ATOM     29  C   UNL     1       0.943  16.530  18.766  0.00  0.00    +0.000 A 
ENDBRANCH  17  20
ENDBRANCH   7  17
BRANCH   9  30
ATOM     30  C   UNL     1       2.000   9.389  17.765  0.00  0.00    +0.000 C 
BRANCH  30  31
ATOM     31  C   UNL     1       2.030   8.143  18.641  0.00  0.00    +0.000 A 
ATOM     32  C   UNL     1       2.462   6.908  18.129  0.00  0.00    +0.000 A 
ATOM     33  C   UNL     1       2.500   5.769  18.942  0.00  0.00    +0.000 A 
ATOM     34  C   UNL     1       2.108   5.854  20.279  0.00  0.00    +0.000 A 
ATOM     35  C   UNL     1       1.711   7.081  20.804  0.00  0.00    +0.000 A 
ATOM     36  C   UNL     1       1.669   8.212  19.989  0.00  0.00    +0.000 A 
ENDBRANCH  30  31
ENDBRANCH   9  30
TORSDOF 5
ENDMDL
MODEL 2
REMARK VINA RESULT:      -8.4      2.691      9.065
REMARK  Name = 
REMARK  6 active torsions:
REMARK  status: ('A' for Active; 'I' for Inactive)
REMARK    1  A    between atoms: C_1  and  N_2
REMARK    2  A    between atoms: N_5  and  C_6
REMARK    3  A    between atoms: C_12  and  S_13
REMARK    4  A    between atoms: S_13  and  C_16
REMARK    5  A    between atoms: N_27  and  C_28
REMARK    6  A    between atoms: C_28  and  C_29
REMARK                            x       y       z     vdW  Elec       q    Type
REMARK                         _______ _______ _______ _____ _____    ______ ____
ROOT
ATOM      1  C   UNL     1       1.809  13.783  19.492  0.00  0.00    +0.000 A 
ATOM      2  C   UNL     1       0.732  14.288  18.755  0.00  0.00    +0.000 A 
ATOM      3  C   UNL     1      -0.384  13.524  18.449  0.00  0.00    +0.000 A 
ATOM      4  C   UNL     1      -0.412  12.190  18.874  0.00  0.00    +0.000 A 
ATOM      5  C   UNL     1       0.591  11.578  19.642  0.00  0.00    +0.000 A 
ATOM      6  C   UNL     1       1.734  12.407  19.916  0.00  0.00    +0.000 A 
ATOM      7  C   UNL     1       0.050  10.240  19.921  0.00  0.00    +0.000 A 
ATOM      8  N   UNL     1      -1.056  10.034  19.150  0.00  0.00    +0.000 NA
ATOM      9  N   UNL     1      -1.382  11.242  18.648  0.00  0.00    +0.000 N 
ENDROOT
BRANCH   1  14
ATOM     10  C   UNL     1       6.366  16.945  20.672  0.00  0.00    +0.000 C 
ATOM     11  N   UNL     1       4.990  16.456  20.762  0.00  0.00    +0.000 NA
ATOM     12  C   UNL     1       4.980  15.021  21.110  0.00  0.00    +0.000 C 
ATOM     13  C   UNL     1       3.549  14.440  21.174  0.00  0.00    +0.000 C 
ATOM     14  N   UNL     1       2.843  14.647  19.879  0.00  0.00    +0.000 N 
ATOM     15  C   UNL     1       2.818  16.073  19.497  0.00  0.00    +0.000 C 
ATOM     16  C   UNL     1       4.273  16.631  19.474  0.00  0.00    +0.000 C 
ENDBRANCH   1  14
BRANCH   7  17
ATOM     17  S   UNL     1       0.655   8.846  21.099  0.00  0.00    +0.000 S 
ATOM     18  O   UNL     1       1.566   9.522  21.987  0.00  0.00    +0.000 OA
ATOM     19  O   UNL     1      -0.579   8.216  21.576  0.00  0.00    +0.000 OA
BRANCH  17  20
ATOM     20  C   UNL     1       1.644   7.611  20.112  0.00  0.00    +0.000 A 
ATOM     21  C   UNL     1       2.011   8.269  18.952  0.00  0.00    +0.000 A 
ATOM     22  C   UNL     1       3.047   7.769  18.239  0.00  0.00    +0.000 A 
ATOM     23  C   UNL     1       2.692   6.525  17.831  0.00  0.00    +0.000 A 
ATOM     24  C   UNL     1       2.280   5.652  18.827  0.00  0.00    +0.000 A 
ATOM     25  C   UNL     1       2.355   4.316  18.413  0.00  0.00    +0.000 A 
ATOM     26  C   UNL     1       2.453   3.303  19.334  0.00  0.00    +0.000 A 
ATOM     27  C   UNL     1       2.402   3.654  20.677  0.00  0.00    +0.000 A 
ATOM     28  C   UNL     1       2.095   5.006  21.086  0.00  0.00    +0.000 A 
ATOM     29  C   UNL     1       1.957   6.131  20.143  0.00  0.00    +0.000 A 
ENDBRANCH  17  20
ENDBRANCH   7  17
BRANCH   9  30
ATOM     30  C   UNL     1      -2.568  11.423  17.784  0.00  0.00    +0.000 C 
BRANCH  30  31
ATOM     31  C   UNL     1      -3.886  11.564  18.534  0.00  0.00    +0.000 A 
ATOM     32  C   UNL     1      -3.994  12.398  19.660  0.00  0.00    +0.000 A 
ATOM     33  C   UNL     1      -5.210  12.533  20.339  0.00  0.00    +0.000 A 
ATOM     34  C   UNL     1      -6.336  11.837  19.895  0.00  0.00    +0.000 A 
ATOM     35  C   UNL     1      -6.248  11.036  18.760  0.00  0.00    +0.000 A 
ATOM     36  C   UNL     1      -5.032  10.898  18.091  0.00  0.00    +0.000 A 
ENDBRANCH  30  31
ENDBRANCH   9  30
TORSDOF 5
ENDMDL
MODEL 3
REMARK VINA RESULT:      -8.3      2.740      9.045
REMARK  Name = 
REMARK  6 active torsions:
REMARK  status: ('A' for Active; 'I' for Inactive)
REMARK    1  A    between atoms: C_1  and  N_2
REMARK    2  A    between atoms: N_5  and  C_6
REMARK    3  A    between atoms: C_12  and  S_13
REMARK    4  A    between atoms: S_13  and  C_16
REMARK    5  A    between atoms: N_27  and  C_28
REMARK    6  A    between atoms: C_28  and  C_29
REMARK                            x       y       z     vdW  Elec       q    Type
REMARK                         _______ _______ _______ _____ _____    ______ ____
ROOT
ATOM      1  C   UNL     1       1.893  13.803  19.315  0.00  0.00    +0.000 A 
ATOM      2  C   UNL     1       0.803  14.308  18.597  0.00  0.00    +0.000 A 
ATOM      3  C   UNL     1      -0.335  13.555  18.345  0.00  0.00    +0.000 A 
ATOM      4  C   UNL     1      -0.371  12.234  18.806  0.00  0.00    +0.000 A 
ATOM      5  C   UNL     1       0.644  11.624  19.560  0.00  0.00    +0.000 A 
ATOM      6  C   UNL     1       1.808  12.440  19.777  0.00  0.00    +0.000 A 
ATOM      7  C   UNL     1       0.090  10.304  19.890  0.00  0.00    +0.000 A 
ATOM      8  N   UNL     1      -1.042  10.097  19.158  0.00  0.00    +0.000 NA
ATOM      9  N   UNL     1      -1.363  11.297  18.634  0.00  0.00    +0.000 N 
ENDROOT
BRANCH   1  14
ATOM     10  C   UNL     1       5.776  17.746  20.554  0.00  0.00    +0.000 C 
ATOM     11  N   UNL     1       5.221  16.415  20.304  0.00  0.00    +0.000 NA
ATOM     12  C   UNL     1       4.648  16.349  18.945  0.00  0.00    +0.000 C 
ATOM     13  C   UNL     1       4.006  14.976  18.643  0.00  0.00    +0.000 C 
ATOM     14  N   UNL     1       2.952  14.659  19.648  0.00  0.00    +0.000 N 
ATOM     15  C   UNL     1       3.485  14.703  21.024  0.00  0.00    +0.000 C 
ATOM     16  C   UNL     1       4.152  16.088  21.280  0.00  0.00    +0.000 C 
ENDBRANCH   1  14
BRANCH   7  17
ATOM     17  S   UNL     1       0.708   8.930  21.085  0.00  0.00    +0.000 S 
ATOM     18  O   UNL     1       1.654   9.614  21.930  0.00  0.00    +0.000 OA
ATOM     19  O   UNL     1      -0.521   8.333  21.614  0.00  0.00    +0.000 OA
BRANCH  17  20
ATOM     20  C   UNL     1       1.649   7.656  20.104  0.00  0.00    +0.000 A 
ATOM     21  C   UNL     1       2.014   8.286  18.927  0.00  0.00    +0.000 A 
ATOM     22  C   UNL     1       3.026   7.748  18.206  0.00  0.00    +0.000 A 
ATOM     23  C   UNL     1       2.633   6.508  17.823  0.00  0.00    +0.000 A 
ATOM     24  C   UNL     1       2.215   5.661  18.840  0.00  0.00    +0.000 A 
ATOM     25  C   UNL     1       2.249   4.318  18.446  0.00  0.00    +0.000 A 
ATOM     26  C   UNL     1       2.336   3.317  19.381  0.00  0.00    +0.000 A 
ATOM     27  C   UNL     1       2.315   3.689  20.719  0.00  0.00    +0.000 A 
ATOM     28  C   UNL     1       2.049   5.054  21.111  0.00  0.00    +0.000 A 
ATOM     29  C   UNL     1       1.925   6.168  20.153  0.00  0.00    +0.000 A 
ENDBRANCH  17  20
ENDBRANCH   7  17
BRANCH   9  30
ATOM     30  C   UNL     1      -2.571  11.476  17.801  0.00  0.00    +0.000 C 
BRANCH  30  31
ATOM     31  C   UNL     1      -3.865  11.647  18.587  0.00  0.00    +0.000 A 
ATOM     32  C   UNL     1      -5.047  11.002  18.187  0.00  0.00    +0.000 A 
ATOM     33  C   UNL     1      -6.230  11.153  18.919  0.00  0.00    +0.000 A 
ATOM     34  C   UNL     1      -6.242  11.952  20.065  0.00  0.00    +0.000 A 
ATOM     35  C   UNL     1      -5.068  12.567  20.489  0.00  0.00    +0.000 A 
ATOM     36  C   UNL     1      -3.893  12.419  19.752  0.00  0.00    +0.000 A 
ENDBRANCH  30  31
ENDBRANCH   9  30
TORSDOF 5
ENDMDL
MODEL 4
REMARK VINA RESULT:      -8.2      2.960      8.890
REMARK  Name = 
REMARK  6 active torsions:
REMARK  status: ('A' for Active; 'I' for Inactive)
REMARK    1  A    between atoms: C_1  and  N_2
REMARK    2  A    between atoms: N_5  and  C_6
REMARK    3  A    between atoms: C_12  and  S_13
REMARK    4  A    between atoms: S_13  and  C_16
REMARK    5  A    between atoms: N_27  and  C_28
REMARK    6  A    between atoms: C_28  and  C_29
REMARK                            x       y       z     vdW  Elec       q    Type
REMARK                         _______ _______ _______ _____ _____    ______ ____
ROOT
ATOM      1  C   UNL     1       1.886  13.579  19.063  0.00  0.00    +0.000 A 
ATOM      2  C   UNL     1       0.686  14.123  18.591  0.00  0.00    +0.000 A 
ATOM      3  C   UNL     1      -0.516  13.434  18.649  0.00  0.00    +0.000 A 
ATOM      4  C   UNL     1      -0.513  12.136  19.174  0.00  0.00    +0.000 A 
ATOM      5  C   UNL     1       0.618  11.494  19.704  0.00  0.00    +0.000 A 
ATOM      6  C   UNL     1       1.841  12.243  19.603  0.00  0.00    +0.000 A 
ATOM      7  C   UNL     1       0.089  10.225  20.221  0.00  0.00    +0.000 A 
ATOM      8  N   UNL     1      -1.192  10.061  19.783  0.00  0.00    +0.000 NA
ATOM      9  N   UNL     1      -1.564  11.258  19.286  0.00  0.00    +0.000 N 
ENDROOT
BRANCH   1  14
ATOM     10  C   UNL     1       6.837  16.318  19.449  0.00  0.00    +0.000 C 
ATOM     11  N   UNL     1       5.410  16.118  19.193  0.00  0.00    +0.000 NA
ATOM     12  C   UNL     1       4.735  15.641  20.418  0.00  0.00    +0.000 C 
ATOM     13  C   UNL     1       3.231  15.369  20.193  0.00  0.00    +0.000 C 
ATOM     14  N   UNL     1       3.037  14.380  19.096  0.00  0.00    +0.000 N 
ATOM     15  C   UNL     1       3.687  14.822  17.847  0.00  0.00    +0.000 C 
ATOM     16  C   UNL     1       5.192  15.117  18.119  0.00  0.00    +0.000 C 
ENDBRANCH   1  14
BRANCH   7  17
ATOM     17  S   UNL     1       0.897   8.863  21.312  0.00  0.00    +0.000 S 
ATOM     18  O   UNL     1       1.927   9.569  22.031  0.00  0.00    +0.000 OA
ATOM     19  O   UNL     1      -0.235   8.226  21.991  0.00  0.00    +0.000 OA
BRANCH  17  20
ATOM     20  C   UNL     1       1.736   7.622  20.203  0.00  0.00    +0.000 A 
ATOM     21  C   UNL     1       2.008   8.298  19.026  0.00  0.00    +0.000 A 
ATOM     22  C   UNL     1       2.948   7.781  18.200  0.00  0.00    +0.000 A 
ATOM     23  C   UNL     1       2.509   6.562  17.802  0.00  0.00    +0.000 A 
ATOM     24  C   UNL     1       2.170   5.677  18.815  0.00  0.00    +0.000 A 
ATOM     25  C   UNL     1       2.155   4.351  18.365  0.00  0.00    +0.000 A 
ATOM     26  C   UNL     1       2.309   3.311  19.249  0.00  0.00    +0.000 A 
ATOM     27  C   UNL     1       2.406   3.628  20.598  0.00  0.00    +0.000 A 
ATOM     28  C   UNL     1       2.190   4.978  21.066  0.00  0.00    +0.000 A 
ATOM     29  C   UNL     1       1.998   6.132  20.168  0.00  0.00    +0.000 A 
ENDBRANCH  17  20
ENDBRANCH   7  17
BRANCH   9  30
ATOM     30  C   UNL     1      -2.923  11.479  18.746  0.00  0.00    +0.000 C 
BRANCH  30  31
ATOM     31  C   UNL     1      -3.117  11.022  17.306  0.00  0.00    +0.000 A 
ATOM     32  C   UNL     1      -2.303  10.022  16.747  0.00  0.00    +0.000 A 
ATOM     33  C   UNL     1      -2.493   9.598  15.427  0.00  0.00    +0.000 A 
ATOM     34  C   UNL     1      -3.506  10.167  14.652  0.00  0.00    +0.000 A 
ATOM     35  C   UNL     1      -4.340  11.133  15.208  0.00  0.00    +0.000 A 
ATOM     36  C   UNL     1      -4.142  11.558  16.521  0.00  0.00    +0.000 A 
ENDBRANCH  30  31
ENDBRANCH   9  30
TORSDOF 5
ENDMDL
MODEL 5
REMARK VINA RESULT:      -8.2      2.942      8.900
REMARK  Name = 
REMARK  6 active torsions:
REMARK  status: ('A' for Active; 'I' for Inactive)
REMARK    1  A    between atoms: C_1  and  N_2
REMARK    2  A    between atoms: N_5  and  C_6
REMARK    3  A    between atoms: C_12  and  S_13
REMARK    4  A    between atoms: S_13  and  C_16
REMARK    5  A    between atoms: N_27  and  C_28
REMARK    6  A    between atoms: C_28  and  C_29
REMARK                            x       y       z     vdW  Elec       q    Type
REMARK                         _______ _______ _______ _____ _____    ______ ____
ROOT
ATOM      1  C   UNL     1       1.859  13.624  19.221  0.00  0.00    +0.000 A 
ATOM      2  C   UNL     1       0.661  14.165  18.741  0.00  0.00    +0.000 A 
ATOM      3  C   UNL     1      -0.535  13.463  18.762  0.00  0.00    +0.000 A 
ATOM      4  C   UNL     1      -0.526  12.153  19.258  0.00  0.00    +0.000 A 
ATOM      5  C   UNL     1       0.603  11.511  19.792  0.00  0.00    +0.000 A 
ATOM      6  C   UNL     1       1.819  12.275  19.729  0.00  0.00    +0.000 A 
ATOM      7  C   UNL     1       0.079  10.225  20.272  0.00  0.00    +0.000 A 
ATOM      8  N   UNL     1      -1.192  10.058  19.808  0.00  0.00    +0.000 NA
ATOM      9  N   UNL     1      -1.569  11.261  19.331  0.00  0.00    +0.000 N 
ENDROOT
BRANCH   1  14
ATOM     10  C   UNL     1       6.077  17.401  19.542  0.00  0.00    +0.000 C 
ATOM     11  N   UNL     1       5.426  16.099  19.388  0.00  0.00    +0.000 NA
ATOM     12  C   UNL     1       4.500  16.126  18.237  0.00  0.00    +0.000 C 
ATOM     13  C   UNL     1       3.749  14.787  18.054  0.00  0.00    +0.000 C 
ATOM     14  N   UNL     1       3.000  14.436  19.292  0.00  0.00    +0.000 N 
ATOM     15  C   UNL     1       3.890  14.386  20.469  0.00  0.00    +0.000 C 
ATOM     16  C   UNL     1       4.653  15.738  20.602  0.00  0.00    +0.000 C 
ENDBRANCH   1  14
BRANCH   7  17
ATOM     17  S   UNL     1       0.883   8.847  21.345  0.00  0.00    +0.000 S 
ATOM     18  O   UNL     1       1.919   9.539  22.069  0.00  0.00    +0.000 OA
ATOM     19  O   UNL     1      -0.250   8.209  22.021  0.00  0.00    +0.000 OA
BRANCH  17  20
ATOM     20  C   UNL     1       1.712   7.614  20.220  0.00  0.00    +0.000 A 
ATOM     21  C   UNL     1       1.986   8.301  19.050  0.00  0.00    +0.000 A 
ATOM     22  C   UNL     1       2.922   7.789  18.217  0.00  0.00    +0.000 A 
ATOM     23  C   UNL     1       2.474   6.577  17.805  0.00  0.00    +0.000 A 
ATOM     24  C   UNL     1       2.130   5.682  18.809  0.00  0.00    +0.000 A 
ATOM     25  C   UNL     1       2.106   4.362  18.343  0.00  0.00    +0.000 A 
ATOM     26  C   UNL     1       2.255   3.311  19.214  0.00  0.00    +0.000 A 
ATOM     27  C   UNL     1       2.357   3.611  20.567  0.00  0.00    +0.000 A 
ATOM     28  C   UNL     1       2.150   4.957  21.051  0.00  0.00    +0.000 A 
ATOM     29  C   UNL     1       1.965   6.123  20.167  0.00  0.00    +0.000 A 
ENDBRANCH  17  20
ENDBRANCH   7  17
BRANCH   9  30
ATOM     30  C   UNL     1      -2.921  11.481  18.774  0.00  0.00    +0.000 C 
BRANCH  30  31
ATOM     31  C   UNL     1      -3.100  11.007  17.337  0.00  0.00    +0.000 A 
ATOM     32  C   UNL     1      -4.119  11.529  16.523  0.00  0.00    +0.000 A 
ATOM     33  C   UNL     1      -4.272  11.098  15.200  0.00  0.00    +0.000 A 
ATOM     34  C   UNL     1      -3.402  10.141  14.675  0.00  0.00    +0.000 A 
ATOM     35  C   UNL     1      -2.367   9.644  15.462  0.00  0.00    +0.000 A 
ATOM     36  C   UNL     1      -2.224  10.070  16.782  0.00  0.00    +0.000 A 
ENDBRANCH  30  31
ENDBRANCH   9  30
TORSDOF 5
ENDMDL
MODEL 6
REMARK VINA RESULT:      -8.2      3.735      6.187
REMARK  Name = 
REMARK  6 active torsions:
REMARK  status: ('A' for Active; 'I' for Inactive)
REMARK    1  A    between atoms: C_1  and  N_2
REMARK    2  A    between atoms: N_5  and  C_6
REMARK    3  A    between atoms: C_12  and  S_13
REMARK    4  A    between atoms: S_13  and  C_16
REMARK    5  A    between atoms: N_27  and  C_28
REMARK    6  A    between atoms: C_28  and  C_29
REMARK                            x       y       z     vdW  Elec       q    Type
REMARK                         _______ _______ _______ _____ _____    ______ ____
ROOT
ATOM      1  C   UNL     1      -2.131  12.943  21.196  0.00  0.00    +0.000 A 
ATOM      2  C   UNL     1      -0.742  12.850  21.338  0.00  0.00    +0.000 A 
ATOM      3  C   UNL     1       0.050  12.131  20.456  0.00  0.00    +0.000 A 
ATOM      4  C   UNL     1      -0.577  11.453  19.403  0.00  0.00    +0.000 A 
ATOM      5  C   UNL     1      -1.955  11.492  19.138  0.00  0.00    +0.000 A 
ATOM      6  C   UNL     1      -2.733  12.235  20.093  0.00  0.00    +0.000 A 
ATOM      7  C   UNL     1      -2.092  10.733  17.888  0.00  0.00    +0.000 A 
ATOM      8  N   UNL     1      -0.915  10.101  17.616  0.00  0.00    +0.000 NA
ATOM      9  N   UNL     1      -0.005  10.649  18.445  0.00  0.00    +0.000 N 
ENDROOT
BRANCH   1  14
ATOM     10  C   UNL     1      -5.550  16.282  24.249  0.00  0.00    +0.000 C 
ATOM     11  N   UNL     1      -4.312  15.628  23.826  0.00  0.00    +0.000 NA
ATOM     12  C   UNL     1      -4.006  15.974  22.422  0.00  0.00    +0.000 C 
ATOM     13  C   UNL     1      -2.729  15.272  21.908  0.00  0.00    +0.000 C 
ATOM     14  N   UNL     1      -2.854  13.794  22.044  0.00  0.00    +0.000 N 
ATOM     15  C   UNL     1      -3.148  13.401  23.437  0.00  0.00    +0.000 C 
ATOM     16  C   UNL     1      -4.421  14.151  23.931  0.00  0.00    +0.000 C 
ENDBRANCH   1  14
BRANCH   7  17
ATOM     17  S   UNL     1      -3.588  10.500  16.702  0.00  0.00    +0.000 S 
ATOM     18  O   UNL     1      -3.284  11.373  15.596  0.00  0.00    +0.000 OA
ATOM     19  O   UNL     1      -3.700   9.048  16.543  0.00  0.00    +0.000 OA
BRANCH  17  20
ATOM     20  C   UNL     1      -5.122  11.157  17.531  0.00  0.00    +0.000 A 
ATOM     21  C   UNL     1      -5.243  12.469  17.107  0.00  0.00    +0.000 A 
ATOM     22  C   UNL     1      -6.453  13.065  17.225  0.00  0.00    +0.000 A 
ATOM     23  C   UNL     1      -6.757  13.102  18.545  0.00  0.00    +0.000 A 
ATOM     24  C   UNL     1      -6.712  11.888  19.215  0.00  0.00    +0.000 A 
ATOM     25  C   UNL     1      -7.438  11.926  20.412  0.00  0.00    +0.000 A 
ATOM     26  C   UNL     1      -7.914  10.769  20.977  0.00  0.00    +0.000 A 
ATOM     27  C   UNL     1      -7.584   9.571  20.356  0.00  0.00    +0.000 A 
ATOM     28  C   UNL     1      -6.647   9.533  19.256  0.00  0.00    +0.000 A 
ATOM     29  C   UNL     1      -6.086  10.739  18.620  0.00  0.00    +0.000 A 
ENDBRANCH  17  20
ENDBRANCH   7  17
BRANCH   9  30
ATOM     30  C   UNL     1       1.415  10.238  18.412  0.00  0.00    +0.000 C 
BRANCH  30  31
ATOM     31  C   UNL     1       1.685   8.844  18.965  0.00  0.00    +0.000 A 
ATOM     32  C   UNL     1       2.289   7.854  18.172  0.00  0.00    +0.000 A 
ATOM     33  C   UNL     1       2.546   6.579  18.688  0.00  0.00    +0.000 A 
ATOM     34  C   UNL     1       2.205   6.281  20.009  0.00  0.00    +0.000 A 
ATOM     35  C   UNL     1       1.638   7.266  20.814  0.00  0.00    +0.000 A 
ATOM     36  C   UNL     1       1.377   8.533  20.292  0.00  0.00    +0.000 A 
ENDBRANCH  30  31
ENDBRANCH   9  30
TORSDOF 5
ENDMDL
MODEL 7
REMARK VINA RESULT:      -8.1      3.625      6.376
REMARK  Name = 
REMARK  6 active torsions:
REMARK  status: ('A' for Active; 'I' for Inactive)
REMARK    1  A    between atoms: C_1  and  N_2
REMARK    2  A    between atoms: N_5  and  C_6
REMARK    3  A    between atoms: C_12  and  S_13
REMARK    4  A    between atoms: S_13  and  C_16
REMARK    5  A    between atoms: N_27  and  C_28
REMARK    6  A    between atoms: C_28  and  C_29
REMARK                            x       y       z     vdW  Elec       q    Type
REMARK                         _______ _______ _______ _____ _____    ______ ____
ROOT
ATOM      1  C   UNL     1      -2.420  13.578  21.022  0.00  0.00    +0.000 A 
ATOM      2  C   UNL     1      -1.032  13.569  21.206  0.00  0.00    +0.000 A 
ATOM      3  C   UNL     1      -0.182  12.811  20.415  0.00  0.00    +0.000 A 
ATOM      4  C   UNL     1      -0.745  12.006  19.417  0.00  0.00    +0.000 A 
ATOM      5  C   UNL     1      -2.116  11.951  19.117  0.00  0.00    +0.000 A 
ATOM      6  C   UNL     1      -2.955  12.740  19.978  0.00  0.00    +0.000 A 
ATOM      7  C   UNL     1      -2.181  11.070  17.943  0.00  0.00    +0.000 A 
ATOM      8  N   UNL     1      -0.968  10.476  17.760  0.00  0.00    +0.000 NA
ATOM      9  N   UNL     1      -0.109  11.145  18.555  0.00  0.00    +0.000 N 
ENDROOT
BRANCH   1  14
ATOM     10  C   UNL     1      -6.075  16.768  23.959  0.00  0.00    +0.000 C 
ATOM     11  N   UNL     1      -4.826  16.393  23.294  0.00  0.00    +0.000 NA
ATOM     12  C   UNL     1      -5.073  16.120  21.863  0.00  0.00    +0.000 C 
ATOM     13  C   UNL     1      -3.792  15.674  21.121  0.00  0.00    +0.000 C 
ATOM     14  N   UNL     1      -3.205  14.468  21.768  0.00  0.00    +0.000 N 
ATOM     15  C   UNL     1      -2.932  14.700  23.200  0.00  0.00    +0.000 C 
ATOM     16  C   UNL     1      -4.235  15.178  23.908  0.00  0.00    +0.000 C 
ENDBRANCH   1  14
BRANCH   7  17
ATOM     17  S   UNL     1      -3.630  10.652  16.749  0.00  0.00    +0.000 S 
ATOM     18  O   UNL     1      -3.455  11.582  15.663  0.00  0.00    +0.000 OA
ATOM     19  O   UNL     1      -3.533   9.202  16.560  0.00  0.00    +0.000 OA
BRANCH  17  20
ATOM     20  C   UNL     1      -5.241  11.065  17.589  0.00  0.00    +0.000 A 
ATOM     21  C   UNL     1      -5.565  12.343  17.168  0.00  0.00    +0.000 A 
ATOM     22  C   UNL     1      -6.851  12.746  17.294  0.00  0.00    +0.000 A 
ATOM     23  C   UNL     1      -7.148  12.736  18.617  0.00  0.00    +0.000 A 
ATOM     24  C   UNL     1      -6.913  11.543  19.285  0.00  0.00    +0.000 A 
ATOM     25  C   UNL     1      -7.628  11.469  20.487  0.00  0.00    +0.000 A 
ATOM     26  C   UNL     1      -7.916  10.252  21.054  0.00  0.00    +0.000 A 
ATOM     27  C   UNL     1      -7.411   9.120  20.429  0.00  0.00    +0.000 A 
ATOM     28  C   UNL     1      -6.486   9.226  19.323  0.00  0.00    +0.000 A 
ATOM     29  C   UNL     1      -6.121  10.504  18.685  0.00  0.00    +0.000 A 
ENDBRANCH  17  20
ENDBRANCH   7  17
BRANCH   9  30
ATOM     30  C   UNL     1       1.329  10.804  18.595  0.00  0.00    +0.000 C 
BRANCH  30  31
ATOM     31  C   UNL     1       1.631   9.373  19.020  0.00  0.00    +0.000 A 
ATOM     32  C   UNL     1       1.262   8.901  20.291  0.00  0.00    +0.000 A 
ATOM     33  C   UNL     1       1.531   7.581  20.672  0.00  0.00    +0.000 A 
ATOM     34  C   UNL     1       2.171   6.717  19.782  0.00  0.00    +0.000 A 
ATOM     35  C   UNL     1       2.510   7.165  18.508  0.00  0.00    +0.000 A 
ATOM     36  C   UNL     1       2.246   8.482  18.135  0.00  0.00    +0.000 A 
ENDBRANCH  30  31
ENDBRANCH   9  30
TORSDOF 5
ENDMDL
MODEL 8
REMARK VINA RESULT:      -8.1      2.704      9.044
REMARK  Name = 
REMARK  6 active torsions:
REMARK  status: ('A' for Active; 'I' for Inactive)
REMARK    1  A    between atoms: C_1  and  N_2
REMARK    2  A    between atoms: N_5  and  C_6
REMARK    3  A    between atoms: C_12  and  S_13
REMARK    4  A    between atoms: S_13  and  C_16
REMARK    5  A    between atoms: N_27  and  C_28
REMARK    6  A    between atoms: C_28  and  C_29
REMARK                            x       y       z     vdW  Elec       q    Type
REMARK                         _______ _______ _______ _____ _____    ______ ____
ROOT
ATOM      1  C   UNL     1       1.636  13.801  19.630  0.00  0.00    +0.000 A 
ATOM      2  C   UNL     1       0.612  14.216  18.771  0.00  0.00    +0.000 A 
ATOM      3  C   UNL     1      -0.385  13.357  18.331  0.00  0.00    +0.000 A 
ATOM      4  C   UNL     1      -0.340  12.021  18.746  0.00  0.00    +0.000 A 
ATOM      5  C   UNL     1       0.617  11.492  19.627  0.00  0.00    +0.000 A 
ATOM      6  C   UNL     1       1.638  12.418  20.038  0.00  0.00    +0.000 A 
ATOM      7  C   UNL     1       0.173  10.107  19.835  0.00  0.00    +0.000 A 
ATOM      8  N   UNL     1      -0.810   9.811  18.937  0.00  0.00    +0.000 NA
ATOM      9  N   UNL     1      -1.184  10.992  18.403  0.00  0.00    +0.000 N 
ENDROOT
BRANCH   1  14
ATOM     10  C   UNL     1       4.780  17.854  22.048  0.00  0.00    +0.000 C 
ATOM     11  N   UNL     1       4.438  16.757  21.141  0.00  0.00    +0.000 NA
ATOM     12  C   UNL     1       3.272  17.127  20.312  0.00  0.00    +0.000 C 
ATOM     13  C   UNL     1       2.839  15.985  19.365  0.00  0.00    +0.000 C 
ATOM     14  N   UNL     1       2.532  14.751  20.140  0.00  0.00    +0.000 N 
ATOM     15  C   UNL     1       3.676  14.337  20.976  0.00  0.00    +0.000 C 
ATOM     16  C   UNL     1       4.105  15.522  21.894  0.00  0.00    +0.000 C 
ENDBRANCH   1  14
BRANCH   7  17
ATOM     17  S   UNL     1       0.759   8.757  21.073  0.00  0.00    +0.000 S 
ATOM     18  O   UNL     1       1.700   9.453  21.915  0.00  0.00    +0.000 OA
ATOM     19  O   UNL     1      -0.483   8.184  21.597  0.00  0.00    +0.000 OA
BRANCH  17  20
ATOM     20  C   UNL     1       1.703   7.451  20.137  0.00  0.00    +0.000 A 
ATOM     21  C   UNL     1       2.136   8.064  18.975  0.00  0.00    +0.000 A 
ATOM     22  C   UNL     1       3.161   7.493  18.299  0.00  0.00    +0.000 A 
ATOM     23  C   UNL     1       2.748   6.263  17.905  0.00  0.00    +0.000 A 
ATOM     24  C   UNL     1       2.263   5.434  18.906  0.00  0.00    +0.000 A 
ATOM     25  C   UNL     1       2.275   4.088  18.520  0.00  0.00    +0.000 A 
ATOM     26  C   UNL     1       2.293   3.090  19.463  0.00  0.00    +0.000 A 
ATOM     27  C   UNL     1       2.227   3.470  20.797  0.00  0.00    +0.000 A 
ATOM     28  C   UNL     1       1.984   4.845  21.171  0.00  0.00    +0.000 A 
ATOM     29  C   UNL     1       1.933   5.957  20.205  0.00  0.00    +0.000 A 
ENDBRANCH  17  20
ENDBRANCH   7  17
BRANCH   9  30
ATOM     30  C   UNL     1      -2.270  11.075  17.403  0.00  0.00    +0.000 C 
BRANCH  30  31
ATOM     31  C   UNL     1      -3.591  11.607  17.944  0.00  0.00    +0.000 A 
ATOM     32  C   UNL     1      -3.699  12.076  19.264  0.00  0.00    +0.000 A 
ATOM     33  C   UNL     1      -4.912  12.575  19.751  0.00  0.00    +0.000 A 
ATOM     34  C   UNL     1      -6.033  12.613  18.920  0.00  0.00    +0.000 A 
ATOM     35  C   UNL     1      -5.928  12.184  17.600  0.00  0.00    +0.000 A 
ATOM     36  C   UNL     1      -4.719  11.681  17.121  0.00  0.00    +0.000 A 
ENDBRANCH  30  31
ENDBRANCH   9  30
TORSDOF 5
ENDMDL
MODEL 9
REMARK VINA RESULT:      -8.1      2.782      8.715
REMARK  Name = 
REMARK  6 active torsions:
REMARK  status: ('A' for Active; 'I' for Inactive)
REMARK    1  A    between atoms: C_1  and  N_2
REMARK    2  A    between atoms: N_5  and  C_6
REMARK    3  A    between atoms: C_12  and  S_13
REMARK    4  A    between atoms: S_13  and  C_16
REMARK    5  A    between atoms: N_27  and  C_28
REMARK    6  A    between atoms: C_28  and  C_29
REMARK                            x       y       z     vdW  Elec       q    Type
REMARK                         _______ _______ _______ _____ _____    ______ ____
ROOT
ATOM      1  C   UNL     1       1.874  13.643  19.560  0.00  0.00    +0.000 A 
ATOM      2  C   UNL     1       0.853  14.120  18.730  0.00  0.00    +0.000 A 
ATOM      3  C   UNL     1      -0.240  13.344  18.373  0.00  0.00    +0.000 A 
ATOM      4  C   UNL     1      -0.300  12.026  18.844  0.00  0.00    +0.000 A 
ATOM      5  C   UNL     1       0.645  11.443  19.704  0.00  0.00    +0.000 A 
ATOM      6  C   UNL     1       1.767  12.283  20.028  0.00  0.00    +0.000 A 
ATOM      7  C   UNL     1       0.083  10.116  19.991  0.00  0.00    +0.000 A 
ATOM      8  N   UNL     1      -0.964   9.881  19.151  0.00  0.00    +0.000 NA
ATOM      9  N   UNL     1      -1.252  11.070  18.584  0.00  0.00    +0.000 N 
ENDROOT
BRANCH   1  14
ATOM     10  C   UNL     1       6.345  16.830  20.978  0.00  0.00    +0.000 C 
ATOM     11  N   UNL     1       4.957  16.368  20.955  0.00  0.00    +0.000 NA
ATOM     12  C   UNL     1       4.879  14.965  21.411  0.00  0.00    +0.000 C 
ATOM     13  C   UNL     1       3.438  14.410  21.364  0.00  0.00    +0.000 C 
ATOM     14  N   UNL     1       2.878  14.522  19.988  0.00  0.00    +0.000 N 
ATOM     15  C   UNL     1       2.925  15.913  19.496  0.00  0.00    +0.000 C 
ATOM     16  C   UNL     1       4.386  16.449  19.588  0.00  0.00    +0.000 C 
ENDBRANCH   1  14
BRANCH   7  17
ATOM     17  S   UNL     1       0.601   8.766  21.259  0.00  0.00    +0.000 S 
ATOM     18  O   UNL     1       1.549   9.442  22.109  0.00  0.00    +0.000 OA
ATOM     19  O   UNL     1      -0.670   8.243  21.768  0.00  0.00    +0.000 OA
BRANCH  17  20
ATOM     20  C   UNL     1       1.517   7.415  20.360  0.00  0.00    +0.000 A 
ATOM     21  C   UNL     1       1.353   6.277  21.131  0.00  0.00    +0.000 A 
ATOM     22  C   UNL     1       1.565   5.076  20.543  0.00  0.00    +0.000 A 
ATOM     23  C   UNL     1       2.863   5.042  20.152  0.00  0.00    +0.000 A 
ATOM     24  C   UNL     1       3.285   6.092  19.349  0.00  0.00    +0.000 A 
ATOM     25  C   UNL     1       4.454   5.774  18.647  0.00  0.00    +0.000 A 
ATOM     26  C   UNL     1       4.776   6.438  17.489  0.00  0.00    +0.000 A 
ATOM     27  C   UNL     1       3.939   7.473  17.092  0.00  0.00    +0.000 A 
ATOM     28  C   UNL     1       2.869   7.938  17.944  0.00  0.00    +0.000 A 
ATOM     29  C   UNL     1       2.488   7.281  19.208  0.00  0.00    +0.000 A 
ENDBRANCH  17  20
ENDBRANCH   7  17
BRANCH   9  30
ATOM     30  C   UNL     1      -2.373  11.217  17.631  0.00  0.00    +0.000 C 
BRANCH  30  31
ATOM     31  C   UNL     1      -3.723  11.502  18.277  0.00  0.00    +0.000 A 
ATOM     32  C   UNL     1      -4.914  11.015  17.712  0.00  0.00    +0.000 A 
ATOM     33  C   UNL     1      -6.151  11.269  18.316  0.00  0.00    +0.000 A 
ATOM     34  C   UNL     1      -6.209  12.013  19.496  0.00  0.00    +0.000 A 
ATOM     35  C   UNL     1      -5.031  12.471  20.082  0.00  0.00    +0.000 A 
ATOM     36  C   UNL     1      -3.802  12.221  19.473  0.00  0.00    +0.000 A 
ENDBRANCH  30  31
ENDBRANCH   9  30
TORSDOF 5
ENDMDL
