MODEL 1
REMARK VINA RESULT:      -9.0      0.000      0.000
REMARK  Name = 
REMARK  5 active torsions:
REMARK  status: ('A' for Active; 'I' for Inactive)
REMARK    1  A    between atoms: N_1  and  C_2
REMARK    2  A    between atoms: C_12  and  C_13
REMARK    3  A    between atoms: C_13  and  C_15
REMARK    4  A    between atoms: C_16  and  C_17
REMARK    5  A    between atoms: C_20  and  N_21
REMARK                            x       y       z     vdW  Elec       q    Type
REMARK                         _______ _______ _______ _____ _____    ______ ____
ROOT
ATOM      1  C   UNL     1       6.748   5.499  19.364  0.00  0.00    +0.000 A 
ATOM      2  N   UNL     1       5.619   4.878  19.825  0.00  0.00    +0.000 NA
ATOM      3  C   UNL     1       4.588   5.101  19.036  0.00  0.00    +0.000 A 
ATOM      4  N   UNL     1       3.358   4.535  19.218  0.00  0.00    +0.000 N 
ATOM      5  C   UNL     1       3.121   3.637  20.350  0.00  0.00    +0.000 C 
ATOM      6  C   UNL     1       2.336   2.406  19.880  0.00  0.00    +0.000 C 
ATOM      7  C   UNL     1       1.087   2.781  19.083  0.00  0.00    +0.000 C 
ATOM      8  C   UNL     1       1.421   3.770  17.969  0.00  0.00    +0.000 C 
ATOM      9  C   UNL     1       2.160   4.987  18.518  0.00  0.00    +0.000 C 
ATOM     10  S   UNL     1       4.981   6.139  17.701  0.00  0.00    +0.000 S 
ATOM     11  C   UNL     1       6.616   6.239  18.205  0.00  0.00    +0.000 A 
ENDROOT
BRANCH   1  12
ATOM     12  N   UNL     1       7.856   5.258  20.085  0.00  0.00    +0.000 N 
ATOM     13  H   UNL     1       8.725   5.435  19.583  0.00  0.00    +0.000 HD
ATOM     14  H   UNL     1       7.928   5.502  21.066  0.00  0.00    +0.000 HD
ENDBRANCH   1  12
BRANCH  11  15
ATOM     15  C   UNL     1       7.549   7.009  17.399  0.00  0.00    +0.000 C 
ATOM     16  O   UNL     1       7.742   6.800  16.199  0.00  0.00    +0.000 OA
BRANCH  15  17
ATOM     17  C   UNL     1       8.293   8.131  18.056  0.00  0.00    +0.000 C 
ATOM     18  C   UNL     1       8.005   9.416  17.783  0.00  0.00    +0.000 C 
BRANCH  18  19
ATOM     19  C   UNL     1       8.762  10.508  18.401  0.00  0.00    +0.000 A 
ATOM     20  C   UNL     1       8.781  11.769  17.791  0.00  0.00    +0.000 A 
ATOM     21  C   UNL     1       9.524  12.816  18.347  0.00  0.00    +0.000 A 
ATOM     22  C   UNL     1      10.251  12.599  19.525  0.00  0.00    +0.000 A 
ATOM     23  C   UNL     1      10.235  11.342  20.145  0.00  0.00    +0.000 A 
ATOM     24  C   UNL     1       9.490  10.299  19.579  0.00  0.00    +0.000 A 
BRANCH  22  25
ATOM     25  N   UNL     1      11.032  13.696  20.112  0.00  0.00    +0.000 N 
ATOM     26  O   UNL     1      10.475  14.409  20.959  0.00  0.00    +0.000 OA
ATOM     27  O   UNL     1      12.200  13.843  19.727  0.00  0.00    +0.000 OA
ENDBRANCH  22  25
ENDBRANCH  18  19
ENDBRANCH  15  17
ENDBRANCH  11  15
TORSDOF 5
ENDMDL
MODEL 2
REMARK VINA RESULT:      -8.7      0.702      1.357
REMARK  Name = 
REMARK  5 active torsions:
REMARK  status: ('A' for Active; 'I' for Inactive)
REMARK    1  A    between atoms: N_1  and  C_2
REMARK    2  A    between atoms: C_12  and  C_13
REMARK    3  A    between atoms: C_13  and  C_15
REMARK    4  A    between atoms: C_16  and  C_17
REMARK    5  A    between atoms: C_20  and  N_21
REMARK                            x       y       z     vdW  Elec       q    Type
REMARK                         _______ _______ _______ _____ _____    ______ ____
ROOT
ATOM      1  C   UNL     1       6.686   5.555  19.251  0.00  0.00    +0.000 A 
ATOM      2  N   UNL     1       5.581   4.884  19.702  0.00  0.00    +0.000 NA
ATOM      3  C   UNL     1       4.531   5.119  18.944  0.00  0.00    +0.000 A 
ATOM      4  N   UNL     1       3.318   4.513  19.120  0.00  0.00    +0.000 N 
ATOM      5  C   UNL     1       3.125   3.557  20.212  0.00  0.00    +0.000 C 
ATOM      6  C   UNL     1       2.362   2.330  19.697  0.00  0.00    +0.000 C 
ATOM      7  C   UNL     1       1.088   2.712  18.942  0.00  0.00    +0.000 C 
ATOM      8  C   UNL     1       1.376   3.761  17.872  0.00  0.00    +0.000 C 
ATOM      9  C   UNL     1       2.097   4.968  18.466  0.00  0.00    +0.000 C 
ATOM     10  S   UNL     1       4.872   6.229  17.654  0.00  0.00    +0.000 S 
ATOM     11  C   UNL     1       6.514   6.346  18.132  0.00  0.00    +0.000 A 
ENDROOT
BRANCH   1  12
ATOM     12  N   UNL     1       7.813   5.308  19.940  0.00  0.00    +0.000 N 
ATOM     13  H   UNL     1       8.560   5.980  19.768  0.00  0.00    +0.000 HD
ATOM     14  H   UNL     1       7.802   4.991  20.901  0.00  0.00    +0.000 HD
ENDBRANCH   1  12
BRANCH  11  15
ATOM     15  C   UNL     1       7.411   7.177  17.347  0.00  0.00    +0.000 C 
ATOM     16  O   UNL     1       7.968   6.791  16.316  0.00  0.00    +0.000 OA
BRANCH  15  17
ATOM     17  C   UNL     1       7.651   8.585  17.801  0.00  0.00    +0.000 C 
ATOM     18  C   UNL     1       8.824   8.954  18.346  0.00  0.00    +0.000 C 
BRANCH  18  19
ATOM     19  C   UNL     1       9.038  10.323  18.822  0.00  0.00    +0.000 A 
ATOM     20  C   UNL     1       9.311  10.550  20.177  0.00  0.00    +0.000 A 
ATOM     21  C   UNL     1       9.486  11.852  20.658  0.00  0.00    +0.000 A 
ATOM     22  C   UNL     1       9.392  12.935  19.774  0.00  0.00    +0.000 A 
ATOM     23  C   UNL     1       9.123  12.718  18.415  0.00  0.00    +0.000 A 
ATOM     24  C   UNL     1       8.946  11.410  17.944  0.00  0.00    +0.000 A 
BRANCH  22  25
ATOM     25  N   UNL     1       9.576  14.303  20.275  0.00  0.00    +0.000 N 
ATOM     26  O   UNL     1      10.696  14.818  20.145  0.00  0.00    +0.000 OA
ATOM     27  O   UNL     1       8.601  14.863  20.797  0.00  0.00    +0.000 OA
ENDBRANCH  22  25
ENDBRANCH  18  19
ENDBRANCH  15  17
ENDBRANCH  11  15
TORSDOF 5
ENDMDL
MODEL 3
REMARK VINA RESULT:      -8.1      1.543      2.116
REMARK  Name = 
REMARK  5 active torsions:
REMARK  status: ('A' for Active; 'I' for Inactive)
REMARK    1  A    between atoms: N_1  and  C_2
REMARK    2  A    between atoms: C_12  and  C_13
REMARK    3  A    between atoms: C_13  and  C_15
REMARK    4  A    between atoms: C_16  and  C_17
REMARK    5  A    between atoms: C_20  and  N_21
REMARK                            x       y       z     vdW  Elec       q    Type
REMARK                         _______ _______ _______ _____ _____    ______ ____
ROOT
ATOM      1  C   UNL     1       4.527   6.477  17.371  0.00  0.00    +0.000 A 
ATOM      2  N   UNL     1       3.481   5.782  17.917  0.00  0.00    +0.000 NA
ATOM      3  C   UNL     1       3.899   4.735  18.597  0.00  0.00    +0.000 A 
ATOM      4  N   UNL     1       3.070   3.915  19.311  0.00  0.00    +0.000 N 
ATOM      5  C   UNL     1       1.628   4.166  19.333  0.00  0.00    +0.000 C 
ATOM      6  C   UNL     1       1.099   4.022  20.766  0.00  0.00    +0.000 C 
ATOM      7  C   UNL     1       1.536   2.710  21.418  0.00  0.00    +0.000 C 
ATOM      8  C   UNL     1       3.042   2.504  21.286  0.00  0.00    +0.000 C 
ATOM      9  C   UNL     1       3.487   2.618  19.831  0.00  0.00    +0.000 C 
ATOM     10  S   UNL     1       5.624   4.550  18.546  0.00  0.00    +0.000 S 
ATOM     11  C   UNL     1       5.791   5.972  17.604  0.00  0.00    +0.000 A 
ENDROOT
BRANCH   1  12
ATOM     12  N   UNL     1       4.177   7.598  16.719  0.00  0.00    +0.000 N 
ATOM     13  H   UNL     1       3.172   7.703  16.584  0.00  0.00    +0.000 HD
ATOM     14  H   UNL     1       4.632   8.487  16.886  0.00  0.00    +0.000 HD
ENDBRANCH   1  12
BRANCH  11  15
ATOM     15  C   UNL     1       7.127   6.409  17.233  0.00  0.00    +0.000 C 
ATOM     16  O   UNL     1       7.774   5.910  16.309  0.00  0.00    +0.000 OA
BRANCH  15  17
ATOM     17  C   UNL     1       7.738   7.544  17.998  0.00  0.00    +0.000 C 
ATOM     18  C   UNL     1       7.850   8.771  17.458  0.00  0.00    +0.000 C 
BRANCH  18  19
ATOM     19  C   UNL     1       8.482   9.866  18.197  0.00  0.00    +0.000 A 
ATOM     20  C   UNL     1       8.447  11.165  17.675  0.00  0.00    +0.000 A 
ATOM     21  C   UNL     1       9.073  12.220  18.349  0.00  0.00    +0.000 A 
ATOM     22  C   UNL     1       9.735  11.972  19.558  0.00  0.00    +0.000 A 
ATOM     23  C   UNL     1       9.772  10.676  20.092  0.00  0.00    +0.000 A 
ATOM     24  C   UNL     1       9.146   9.626  19.408  0.00  0.00    +0.000 A 
BRANCH  22  25
ATOM     25  N   UNL     1      10.392  13.076  20.270  0.00  0.00    +0.000 N 
ATOM     26  O   UNL     1      11.618  13.200  20.133  0.00  0.00    +0.000 OA
ATOM     27  O   UNL     1       9.684  13.817  20.965  0.00  0.00    +0.000 OA
ENDBRANCH  22  25
ENDBRANCH  18  19
ENDBRANCH  15  17
ENDBRANCH  11  15
TORSDOF 5
ENDMDL
MODEL 4
REMARK VINA RESULT:      -7.8      1.746      2.426
REMARK  Name = 
REMARK  5 active torsions:
REMARK  status: ('A' for Active; 'I' for Inactive)
REMARK    1  A    between atoms: N_1  and  C_2
REMARK    2  A    between atoms: C_12  and  C_13
REMARK    3  A    between atoms: C_13  and  C_15
REMARK    4  A    between atoms: C_16  and  C_17
REMARK    5  A    between atoms: C_20  and  N_21
REMARK                            x       y       z     vdW  Elec       q    Type
REMARK                         _______ _______ _______ _____ _____    ______ ____
ROOT
ATOM      1  C   UNL     1       4.577   6.118  17.245  0.00  0.00    +0.000 A 
ATOM      2  N   UNL     1       3.490   5.429  17.712  0.00  0.00    +0.000 NA
ATOM      3  C   UNL     1       3.838   4.528  18.607  0.00  0.00    +0.000 A 
ATOM      4  N   UNL     1       2.942   3.757  19.293  0.00  0.00    +0.000 N 
ATOM      5  C   UNL     1       1.507   3.894  19.039  0.00  0.00    +0.000 C 
ATOM      6  C   UNL     1       0.744   3.917  20.370  0.00  0.00    +0.000 C 
ATOM      7  C   UNL     1       1.129   2.752  21.282  0.00  0.00    +0.000 C 
ATOM      8  C   UNL     1       2.644   2.648  21.433  0.00  0.00    +0.000 C 
ATOM      9  C   UNL     1       3.330   2.585  20.071  0.00  0.00    +0.000 C 
ATOM     10  S   UNL     1       5.553   4.474  18.870  0.00  0.00    +0.000 S 
ATOM     11  C   UNL     1       5.806   5.753  17.758  0.00  0.00    +0.000 A 
ENDROOT
BRANCH   1  12
ATOM     12  N   UNL     1       4.287   7.102  16.377  0.00  0.00    +0.000 N 
ATOM     13  H   UNL     1       3.685   6.812  15.608  0.00  0.00    +0.000 HD
ATOM     14  H   UNL     1       4.090   8.049  16.677  0.00  0.00    +0.000 HD
ENDBRANCH   1  12
BRANCH  11  15
ATOM     15  C   UNL     1       7.161   6.236  17.548  0.00  0.00    +0.000 C 
ATOM     16  O   UNL     1       8.109   5.500  17.266  0.00  0.00    +0.000 OA
BRANCH  15  17
ATOM     17  C   UNL     1       7.411   7.710  17.656  0.00  0.00    +0.000 C 
ATOM     18  C   UNL     1       8.456   8.193  18.352  0.00  0.00    +0.000 C 
BRANCH  18  19
ATOM     19  C   UNL     1       8.673   9.636  18.484  0.00  0.00    +0.000 A 
ATOM     20  C   UNL     1       9.378  10.131  19.588  0.00  0.00    +0.000 A 
ATOM     21  C   UNL     1       9.568  11.508  19.751  0.00  0.00    +0.000 A 
ATOM     22  C   UNL     1       9.052  12.395  18.798  0.00  0.00    +0.000 A 
ATOM     23  C   UNL     1       8.348  11.909  17.687  0.00  0.00    +0.000 A 
ATOM     24  C   UNL     1       8.160  10.529  17.535  0.00  0.00    +0.000 A 
BRANCH  22  25
ATOM     25  N   UNL     1       9.250  13.841  18.963  0.00  0.00    +0.000 N 
ATOM     26  O   UNL     1       8.775  14.374  19.976  0.00  0.00    +0.000 OA
ATOM     27  O   UNL     1       9.879  14.442  18.081  0.00  0.00    +0.000 OA
ENDBRANCH  22  25
ENDBRANCH  18  19
ENDBRANCH  15  17
ENDBRANCH  11  15
TORSDOF 5
ENDMDL
MODEL 5
REMARK VINA RESULT:      -7.7      0.887      1.061
REMARK  Name = 
REMARK  5 active torsions:
REMARK  status: ('A' for Active; 'I' for Inactive)
REMARK    1  A    between atoms: N_1  and  C_2
REMARK    2  A    between atoms: C_12  and  C_13
REMARK    3  A    between atoms: C_13  and  C_15
REMARK    4  A    between atoms: C_16  and  C_17
REMARK    5  A    between atoms: C_20  and  N_21
REMARK                            x       y       z     vdW  Elec       q    Type
REMARK                         _______ _______ _______ _____ _____    ______ ____
ROOT
ATOM      1  C   UNL     1       7.003   4.760  18.421  0.00  0.00    +0.000 A 
ATOM      2  N   UNL     1       6.009   4.018  19.000  0.00  0.00    +0.000 NA
ATOM      3  C   UNL     1       4.869   4.677  19.028  0.00  0.00    +0.000 A 
ATOM      4  N   UNL     1       3.695   4.141  19.479  0.00  0.00    +0.000 N 
ATOM      5  C   UNL     1       3.659   2.767  19.983  0.00  0.00    +0.000 C 
ATOM      6  C   UNL     1       2.431   2.040  19.420  0.00  0.00    +0.000 C 
ATOM      7  C   UNL     1       1.141   2.835  19.623  0.00  0.00    +0.000 C 
ATOM      8  C   UNL     1       1.295   4.271  19.130  0.00  0.00    +0.000 C 
ATOM      9  C   UNL     1       2.510   4.942  19.764  0.00  0.00    +0.000 C 
ATOM     10  S   UNL     1       5.004   6.277  18.369  0.00  0.00    +0.000 S 
ATOM     11  C   UNL     1       6.659   6.028  17.998  0.00  0.00    +0.000 A 
ENDROOT
BRANCH   1  12
ATOM     12  N   UNL     1       8.179   4.122  18.297  0.00  0.00    +0.000 N 
ATOM     13  H   UNL     1       8.093   3.142  18.030  0.00  0.00    +0.000 HD
ATOM     14  H   UNL     1       8.991   4.560  17.878  0.00  0.00    +0.000 HD
ENDBRANCH   1  12
BRANCH  11  15
ATOM     15  C   UNL     1       7.392   7.094  17.334  0.00  0.00    +0.000 C 
ATOM     16  O   UNL     1       7.696   7.067  16.139  0.00  0.00    +0.000 OA
BRANCH  15  17
ATOM     17  C   UNL     1       7.775   8.299  18.140  0.00  0.00    +0.000 C 
ATOM     18  C   UNL     1       8.566   9.259  17.629  0.00  0.00    +0.000 C 
BRANCH  18  19
ATOM     19  C   UNL     1       8.966  10.415  18.435  0.00  0.00    +0.000 A 
ATOM     20  C   UNL     1       8.875  11.703  17.891  0.00  0.00    +0.000 A 
ATOM     21  C   UNL     1       9.283  12.818  18.632  0.00  0.00    +0.000 A 
ATOM     22  C   UNL     1       9.781  12.642  19.929  0.00  0.00    +0.000 A 
ATOM     23  C   UNL     1       9.873  11.358  20.484  0.00  0.00    +0.000 A 
ATOM     24  C   UNL     1       9.465  10.247  19.733  0.00  0.00    +0.000 A 
BRANCH  22  25
ATOM     25  N   UNL     1      10.210  13.809  20.711  0.00  0.00    +0.000 N 
ATOM     26  O   UNL     1      11.024  14.584  20.188  0.00  0.00    +0.000 OA
ATOM     27  O   UNL     1       9.733  13.950  21.845  0.00  0.00    +0.000 OA
ENDBRANCH  22  25
ENDBRANCH  18  19
ENDBRANCH  15  17
ENDBRANCH  11  15
TORSDOF 5
ENDMDL
MODEL 6
REMARK VINA RESULT:      -7.6      6.736      9.995
REMARK  Name = 
REMARK  5 active torsions:
REMARK  status: ('A' for Active; 'I' for Inactive)
REMARK    1  A    between atoms: N_1  and  C_2
REMARK    2  A    between atoms: C_12  and  C_13
REMARK    3  A    between atoms: C_13  and  C_15
REMARK    4  A    between atoms: C_16  and  C_17
REMARK    5  A    between atoms: C_20  and  N_21
REMARK                            x       y       z     vdW  Elec       q    Type
REMARK                         _______ _______ _______ _____ _____    ______ ____
ROOT
ATOM      1  C   UNL     1      -0.825  10.572  18.434  0.00  0.00    +0.000 A 
ATOM      2  N   UNL     1      -1.684  11.179  19.310  0.00  0.00    +0.000 NA
ATOM      3  C   UNL     1      -1.094  11.449  20.457  0.00  0.00    +0.000 A 
ATOM      4  N   UNL     1      -1.699  12.126  21.479  0.00  0.00    +0.000 N 
ATOM      5  C   UNL     1      -3.084  12.581  21.343  0.00  0.00    +0.000 C 
ATOM      6  C   UNL     1      -3.210  14.019  21.858  0.00  0.00    +0.000 C 
ATOM      7  C   UNL     1      -2.609  14.192  23.254  0.00  0.00    +0.000 C 
ATOM      8  C   UNL     1      -1.192  13.630  23.316  0.00  0.00    +0.000 C 
ATOM      9  C   UNL     1      -1.152  12.184  22.830  0.00  0.00    +0.000 C 
ATOM     10  S   UNL     1       0.555  10.911  20.503  0.00  0.00    +0.000 S 
ATOM     11  C   UNL     1       0.458  10.339  18.890  0.00  0.00    +0.000 A 
ENDROOT
BRANCH   1  12
ATOM     12  N   UNL     1      -1.342  10.329  17.218  0.00  0.00    +0.000 N 
ATOM     13  H   UNL     1      -1.671  11.163  16.734  0.00  0.00    +0.000 HD
ATOM     14  H   UNL     1      -0.934   9.656  16.581  0.00  0.00    +0.000 HD
ENDBRANCH   1  12
BRANCH  11  15
ATOM     15  C   UNL     1       1.644   9.756  18.284  0.00  0.00    +0.000 C 
ATOM     16  O   UNL     1       2.383  10.370  17.511  0.00  0.00    +0.000 OA
BRANCH  15  17
ATOM     17  C   UNL     1       1.999   8.344  18.639  0.00  0.00    +0.000 C 
ATOM     18  C   UNL     1       2.866   7.634  17.897  0.00  0.00    +0.000 C 
BRANCH  18  19
ATOM     19  C   UNL     1       3.180   6.241  18.228  0.00  0.00    +0.000 A 
ATOM     20  C   UNL     1       2.464   5.593  19.243  0.00  0.00    +0.000 A 
ATOM     21  C   UNL     1       2.770   4.274  19.597  0.00  0.00    +0.000 A 
ATOM     22  C   UNL     1       3.798   3.599  18.927  0.00  0.00    +0.000 A 
ATOM     23  C   UNL     1       4.518   4.237  17.908  0.00  0.00    +0.000 A 
ATOM     24  C   UNL     1       4.206   5.559  17.562  0.00  0.00    +0.000 A 
BRANCH  22  25
ATOM     25  N   UNL     1       4.122   2.214  19.296  0.00  0.00    +0.000 N 
ATOM     26  O   UNL     1       3.632   1.306  18.609  0.00  0.00    +0.000 OA
ATOM     27  O   UNL     1       4.866   2.035  20.270  0.00  0.00    +0.000 OA
ENDBRANCH  22  25
ENDBRANCH  18  19
ENDBRANCH  15  17
ENDBRANCH  11  15
TORSDOF 5
ENDMDL
MODEL 7
REMARK VINA RESULT:      -7.5      3.753     10.306
REMARK  Name = 
REMARK  5 active torsions:
REMARK  status: ('A' for Active; 'I' for Inactive)
REMARK    1  A    between atoms: N_1  and  C_2
REMARK    2  A    between atoms: C_12  and  C_13
REMARK    3  A    between atoms: C_13  and  C_15
REMARK    4  A    between atoms: C_16  and  C_17
REMARK    5  A    between atoms: C_20  and  N_21
REMARK                            x       y       z     vdW  Elec       q    Type
REMARK                         _______ _______ _______ _____ _____    ______ ____
ROOT
ATOM      1  C   UNL     1      10.895  12.253  17.851  0.00  0.00    +0.000 A 
ATOM      2  N   UNL     1      10.941  13.546  17.403  0.00  0.00    +0.000 NA
ATOM      3  C   UNL     1       9.952  14.262  17.894  0.00  0.00    +0.000 A 
ATOM      4  N   UNL     1       9.806  15.604  17.674  0.00  0.00    +0.000 N 
ATOM      5  C   UNL     1      10.769  16.321  16.837  0.00  0.00    +0.000 C 
ATOM      6  C   UNL     1      11.148  17.649  17.505  0.00  0.00    +0.000 C 
ATOM      7  C   UNL     1       9.922  18.463  17.919  0.00  0.00    +0.000 C 
ATOM      8  C   UNL     1       8.946  17.615  18.729  0.00  0.00    +0.000 C 
ATOM      9  C   UNL     1       8.581  16.334  17.984  0.00  0.00    +0.000 C 
ATOM     10  S   UNL     1       8.892  13.334  18.907  0.00  0.00    +0.000 S 
ATOM     11  C   UNL     1       9.851  11.929  18.695  0.00  0.00    +0.000 A 
ENDROOT
BRANCH   1  12
ATOM     12  N   UNL     1      11.916  11.481  17.443  0.00  0.00    +0.000 N 
ATOM     13  H   UNL     1      11.708  10.923  16.615  0.00  0.00    +0.000 HD
ATOM     14  H   UNL     1      12.876  11.803  17.452  0.00  0.00    +0.000 HD
ENDBRANCH   1  12
BRANCH  11  15
ATOM     15  C   UNL     1       9.466  10.711  19.388  0.00  0.00    +0.000 C 
ATOM     16  O   UNL     1       9.689  10.510  20.584  0.00  0.00    +0.000 OA
BRANCH  15  17
ATOM     17  C   UNL     1       8.739   9.655  18.612  0.00  0.00    +0.000 C 
ATOM     18  C   UNL     1       8.596   8.407  19.093  0.00  0.00    +0.000 C 
BRANCH  18  19
ATOM     19  C   UNL     1       7.916   7.370  18.313  0.00  0.00    +0.000 A 
ATOM     20  C   UNL     1       7.134   7.735  17.210  0.00  0.00    +0.000 A 
ATOM     21  C   UNL     1       6.450   6.764  16.471  0.00  0.00    +0.000 A 
ATOM     22  C   UNL     1       6.553   5.416  16.838  0.00  0.00    +0.000 A 
ATOM     23  C   UNL     1       7.336   5.040  17.938  0.00  0.00    +0.000 A 
ATOM     24  C   UNL     1       8.015   6.020  18.673  0.00  0.00    +0.000 A 
BRANCH  22  25
ATOM     25  N   UNL     1       5.837   4.392  16.064  0.00  0.00    +0.000 N 
ATOM     26  O   UNL     1       4.616   4.284  16.245  0.00  0.00    +0.000 OA
ATOM     27  O   UNL     1       6.496   3.698  15.278  0.00  0.00    +0.000 OA
ENDBRANCH  22  25
ENDBRANCH  18  19
ENDBRANCH  15  17
ENDBRANCH  11  15
TORSDOF 5
ENDMDL
MODEL 8
REMARK VINA RESULT:      -7.4      5.996      7.529
REMARK  Name = 
REMARK  5 active torsions:
REMARK  status: ('A' for Active; 'I' for Inactive)
REMARK    1  A    between atoms: N_1  and  C_2
REMARK    2  A    between atoms: C_12  and  C_13
REMARK    3  A    between atoms: C_13  and  C_15
REMARK    4  A    between atoms: C_16  and  C_17
REMARK    5  A    between atoms: C_20  and  N_21
REMARK                            x       y       z     vdW  Elec       q    Type
REMARK                         _______ _______ _______ _____ _____    ______ ____
ROOT
ATOM      1  C   UNL     1       2.150   4.290  20.945  0.00  0.00    +0.000 A 
ATOM      2  N   UNL     1       1.804   5.544  21.370  0.00  0.00    +0.000 NA
ATOM      3  C   UNL     1       1.843   6.416  20.383  0.00  0.00    +0.000 A 
ATOM      4  N   UNL     1       1.466   7.724  20.513  0.00  0.00    +0.000 N 
ATOM      5  C   UNL     1       1.004   8.232  21.805  0.00  0.00    +0.000 C 
ATOM      6  C   UNL     1      -0.245   9.099  21.605  0.00  0.00    +0.000 C 
ATOM      7  C   UNL     1      -0.047  10.165  20.527  0.00  0.00    +0.000 C 
ATOM      8  C   UNL     1       0.499   9.552  19.240  0.00  0.00    +0.000 C 
ATOM      9  C   UNL     1       1.764   8.742  19.511  0.00  0.00    +0.000 C 
ATOM     10  S   UNL     1       2.359   5.708  18.885  0.00  0.00    +0.000 S 
ATOM     11  C   UNL     1       2.484   4.160  19.611  0.00  0.00    +0.000 A 
ENDROOT
BRANCH   1  12
ATOM     12  N   UNL     1       2.066   3.335  21.886  0.00  0.00    +0.000 N 
ATOM     13  H   UNL     1       1.358   3.516  22.598  0.00  0.00    +0.000 HD
ATOM     14  H   UNL     1       2.140   2.349  21.667  0.00  0.00    +0.000 HD
ENDBRANCH   1  12
BRANCH  11  15
ATOM     15  C   UNL     1       2.874   3.031  18.783  0.00  0.00    +0.000 C 
ATOM     16  O   UNL     1       2.550   1.866  19.025  0.00  0.00    +0.000 OA
BRANCH  15  17
ATOM     17  C   UNL     1       3.692   3.303  17.557  0.00  0.00    +0.000 C 
ATOM     18  C   UNL     1       4.809   4.050  17.613  0.00  0.00    +0.000 C 
BRANCH  18  19
ATOM     19  C   UNL     1       5.584   4.342  16.404  0.00  0.00    +0.000 A 
ATOM     20  C   UNL     1       5.047   4.036  15.147  0.00  0.00    +0.000 A 
ATOM     21  C   UNL     1       5.783   4.276  13.982  0.00  0.00    +0.000 A 
ATOM     22  C   UNL     1       7.065   4.832  14.076  0.00  0.00    +0.000 A 
ATOM     23  C   UNL     1       7.610   5.145  15.329  0.00  0.00    +0.000 A 
ATOM     24  C   UNL     1       6.866   4.898  16.490  0.00  0.00    +0.000 A 
BRANCH  22  25
ATOM     25  N   UNL     1       7.842   5.087  12.856  0.00  0.00    +0.000 N 
ATOM     26  O   UNL     1       7.524   4.466  11.831  0.00  0.00    +0.000 OA
ATOM     27  O   UNL     1       8.768   5.907  12.922  0.00  0.00    +0.000 OA
ENDBRANCH  22  25
ENDBRANCH  18  19
ENDBRANCH  15  17
ENDBRANCH  11  15
TORSDOF 5
ENDMDL
MODEL 9
REMARK VINA RESULT:      -7.3      6.303      9.183
REMARK  Name = 
REMARK  5 active torsions:
REMARK  status: ('A' for Active; 'I' for Inactive)
REMARK    1  A    between atoms: N_1  and  C_2
REMARK    2  A    between atoms: C_12  and  C_13
REMARK    3  A    between atoms: C_13  and  C_15
REMARK    4  A    between atoms: C_16  and  C_17
REMARK    5  A    between atoms: C_20  and  N_21
REMARK                            x       y       z     vdW  Elec       q    Type
REMARK                         _______ _______ _______ _____ _____    ______ ____
ROOT
ATOM      1  C   UNL     1       1.032  10.197  18.953  0.00  0.00    +0.000 A 
ATOM      2  N   UNL     1       0.322  11.325  19.268  0.00  0.00    +0.000 NA
ATOM      3  C   UNL     1      -0.221  11.235  20.464  0.00  0.00    +0.000 A 
ATOM      4  N   UNL     1      -0.915  12.252  21.059  0.00  0.00    +0.000 N 
ATOM      5  C   UNL     1      -1.104  13.523  20.358  0.00  0.00    +0.000 C 
ATOM      6  C   UNL     1      -0.844  14.689  21.319  0.00  0.00    +0.000 C 
ATOM      7  C   UNL     1      -1.626  14.551  22.626  0.00  0.00    +0.000 C 
ATOM      8  C   UNL     1      -1.420  13.173  23.248  0.00  0.00    +0.000 C 
ATOM      9  C   UNL     1      -1.739  12.065  22.248  0.00  0.00    +0.000 C 
ATOM     10  S   UNL     1       0.097   9.711  21.230  0.00  0.00    +0.000 S 
ATOM     11  C   UNL     1       1.041   9.191  19.898  0.00  0.00    +0.000 A 
ENDROOT
BRANCH   1  12
ATOM     12  N   UNL     1       1.670  10.247  17.772  0.00  0.00    +0.000 N 
ATOM     13  H   UNL     1       2.634  10.573  17.835  0.00  0.00    +0.000 HD
ATOM     14  H   UNL     1       1.558   9.532  17.064  0.00  0.00    +0.000 HD
ENDBRANCH   1  12
BRANCH  11  15
ATOM     15  C   UNL     1       1.674   7.883  19.960  0.00  0.00    +0.000 C 
ATOM     16  O   UNL     1       1.503   7.089  20.888  0.00  0.00    +0.000 OA
BRANCH  15  17
ATOM     17  C   UNL     1       2.560   7.471  18.824  0.00  0.00    +0.000 C 
ATOM     18  C   UNL     1       3.020   6.212  18.717  0.00  0.00    +0.000 C 
BRANCH  18  19
ATOM     19  C   UNL     1       3.915   5.825  17.624  0.00  0.00    +0.000 A 
ATOM     20  C   UNL     1       4.099   4.469  17.327  0.00  0.00    +0.000 A 
ATOM     21  C   UNL     1       4.975   4.077  16.308  0.00  0.00    +0.000 A 
ATOM     22  C   UNL     1       5.669   5.051  15.580  0.00  0.00    +0.000 A 
ATOM     23  C   UNL     1       5.489   6.411  15.867  0.00  0.00    +0.000 A 
ATOM     24  C   UNL     1       4.612   6.794  16.890  0.00  0.00    +0.000 A 
BRANCH  22  25
ATOM     25  N   UNL     1       6.589   4.644  14.509  0.00  0.00    +0.000 N 
ATOM     26  O   UNL     1       7.635   5.294  14.372  0.00  0.00    +0.000 OA
ATOM     27  O   UNL     1       6.265   3.676  13.807  0.00  0.00    +0.000 OA
ENDBRANCH  22  25
ENDBRANCH  18  19
ENDBRANCH  15  17
ENDBRANCH  11  15
TORSDOF 5
ENDMDL
