MODEL 1
REMARK VINA RESULT:      -7.3      0.000      0.000
REMARK  Name = 
REMARK  3 active torsions:
REMARK  status: ('A' for Active; 'I' for Inactive)
REMARK    1  A    between atoms: C_1  and  O_2
REMARK    2  A    between atoms: O_2  and  C_3
REMARK    3  A    between atoms: C_8  and  C_9
REMARK                            x       y       z     vdW  Elec       q    Type
REMARK                         _______ _______ _______ _____ _____    ______ ____
ROOT
ATOM      1  C   UNL     1       4.458   4.335  18.430  0.00  0.00    +0.000 A 
ATOM      2  N   UNL     1       4.329   3.751  17.158  0.00  0.00    +0.000 NA
ATOM      3  C   UNL     1       5.334   4.229  16.499  0.00  0.00    +0.000 A 
ATOM      4  C   UNL     1       5.750   4.031  15.099  0.00  0.00    +0.000 A 
ATOM      5  C   UNL     1       6.839   4.721  14.719  0.00  0.00    +0.000 A 
ATOM      6  N   UNL     1       7.549   5.545  15.563  0.00  0.00    +0.000 N 
ATOM      7  C   UNL     1       7.169   5.731  16.877  0.00  0.00    +0.000 A 
ATOM      8  C   UNL     1       6.103   5.108  17.382  0.00  0.00    +0.000 A 
ATOM      9  N   UNL     1       5.492   5.122  18.600  0.00  0.00    +0.000 NA
ATOM     10  H   UNL     1       8.325   6.088  15.195  0.00  0.00    +0.000 HD
ENDROOT
BRANCH   1  16
ATOM     11  C   UNL     1       2.269   4.845  19.653  0.00  0.00    +0.000 A 
ATOM     12  C   UNL     1       1.301   4.433  20.586  0.00  0.00    +0.000 A 
ATOM     13  C   UNL     1       1.472   3.269  21.336  0.00  0.00    +0.000 A 
ATOM     14  C   UNL     1       2.606   2.493  21.157  0.00  0.00    +0.000 A 
ATOM     15  C   UNL     1       3.563   2.872  20.216  0.00  0.00    +0.000 A 
ATOM     16  C   UNL     1       3.404   4.039  19.445  0.00  0.00    +0.000 A 
BRANCH  11  18
ATOM     17  C   UNL     1       2.322   7.213  19.579  0.00  0.00    +0.000 C 
ATOM     18  O   UNL     1       2.105   5.979  18.901  0.00  0.00    +0.000 OA
ENDBRANCH  11  18
ENDBRANCH   1  16
TORSDOF 2
ENDMDL
MODEL 2
REMARK VINA RESULT:      -7.2      1.421      2.362
REMARK  Name = 
REMARK  3 active torsions:
REMARK  status: ('A' for Active; 'I' for Inactive)
REMARK    1  A    between atoms: C_1  and  O_2
REMARK    2  A    between atoms: O_2  and  C_3
REMARK    3  A    between atoms: C_8  and  C_9
REMARK                            x       y       z     vdW  Elec       q    Type
REMARK                         _______ _______ _______ _____ _____    ______ ____
ROOT
ATOM      1  C   UNL     1       4.453   4.147  18.187  0.00  0.00    +0.000 A 
ATOM      2  N   UNL     1       4.301   3.657  16.879  0.00  0.00    +0.000 NA
ATOM      3  C   UNL     1       5.276   4.208  16.232  0.00  0.00    +0.000 A 
ATOM      4  C   UNL     1       5.656   4.126  14.810  0.00  0.00    +0.000 A 
ATOM      5  C   UNL     1       6.718   4.868  14.455  0.00  0.00    +0.000 A 
ATOM      6  N   UNL     1       7.435   5.643  15.339  0.00  0.00    +0.000 N 
ATOM      7  C   UNL     1       7.088   5.720  16.673  0.00  0.00    +0.000 A 
ATOM      8  C   UNL     1       6.051   5.036  17.158  0.00  0.00    +0.000 A 
ATOM      9  N   UNL     1       5.474   4.943  18.389  0.00  0.00    +0.000 NA
ATOM     10  H   UNL     1       8.187   6.231  14.993  0.00  0.00    +0.000 HD
ENDROOT
BRANCH   1  16
ATOM     11  C   UNL     1       3.688   2.842  20.252  0.00  0.00    +0.000 A 
ATOM     12  C   UNL     1       2.679   2.596  21.199  0.00  0.00    +0.000 A 
ATOM     13  C   UNL     1       1.425   3.199  21.091  0.00  0.00    +0.000 A 
ATOM     14  C   UNL     1       1.165   4.066  20.042  0.00  0.00    +0.000 A 
ATOM     15  C   UNL     1       2.162   4.343  19.108  0.00  0.00    +0.000 A 
ATOM     16  C   UNL     1       3.436   3.750  19.205  0.00  0.00    +0.000 A 
BRANCH  11  18
ATOM     17  C   UNL     1       5.021   1.141  21.225  0.00  0.00    +0.000 C 
ATOM     18  O   UNL     1       4.927   2.267  20.356  0.00  0.00    +0.000 OA
ENDBRANCH  11  18
ENDBRANCH   1  16
TORSDOF 2
ENDMDL
MODEL 3
REMARK VINA RESULT:      -7.1      2.194      5.913
REMARK  Name = 
REMARK  3 active torsions:
REMARK  status: ('A' for Active; 'I' for Inactive)
REMARK    1  A    between atoms: C_1  and  O_2
REMARK    2  A    between atoms: O_2  and  C_3
REMARK    3  A    between atoms: C_8  and  C_9
REMARK                            x       y       z     vdW  Elec       q    Type
REMARK                         _______ _______ _______ _____ _____    ______ ____
ROOT
ATOM      1  C   UNL     1       4.050   3.863  18.121  0.00  0.00    +0.000 A 
ATOM      2  N   UNL     1       4.397   3.215  19.319  0.00  0.00    +0.000 NA
ATOM      3  C   UNL     1       3.269   3.102  19.943  0.00  0.00    +0.000 A 
ATOM      4  C   UNL     1       2.953   2.539  21.268  0.00  0.00    +0.000 A 
ATOM      5  C   UNL     1       1.663   2.619  21.634  0.00  0.00    +0.000 A 
ATOM      6  N   UNL     1       0.679   3.163  20.838  0.00  0.00    +0.000 N 
ATOM      7  C   UNL     1       0.966   3.686  19.594  0.00  0.00    +0.000 A 
ATOM      8  C   UNL     1       2.209   3.675  19.110  0.00  0.00    +0.000 A 
ATOM      9  N   UNL     1       2.778   4.133  17.960  0.00  0.00    +0.000 NA
ATOM     10  H   UNL     1      -0.266   3.250  21.202  0.00  0.00    +0.000 HD
ENDROOT
BRANCH   1  16
ATOM     11  C   UNL     1       6.435   4.614  17.576  0.00  0.00    +0.000 A 
ATOM     12  C   UNL     1       7.416   4.847  16.596  0.00  0.00    +0.000 A 
ATOM     13  C   UNL     1       7.122   4.729  15.237  0.00  0.00    +0.000 A 
ATOM     14  C   UNL     1       5.845   4.365  14.837  0.00  0.00    +0.000 A 
ATOM     15  C   UNL     1       4.867   4.104  15.796  0.00  0.00    +0.000 A 
ATOM     16  C   UNL     1       5.148   4.211  17.172  0.00  0.00    +0.000 A 
BRANCH  11  18
ATOM     17  C   UNL     1       7.631   5.742  19.282  0.00  0.00    +0.000 C 
ATOM     18  O   UNL     1       6.717   4.714  18.913  0.00  0.00    +0.000 OA
ENDBRANCH  11  18
ENDBRANCH   1  16
TORSDOF 2
ENDMDL
MODEL 4
REMARK VINA RESULT:      -7.1      2.208      5.866
REMARK  Name = 
REMARK  3 active torsions:
REMARK  status: ('A' for Active; 'I' for Inactive)
REMARK    1  A    between atoms: C_1  and  O_2
REMARK    2  A    between atoms: O_2  and  C_3
REMARK    3  A    between atoms: C_8  and  C_9
REMARK                            x       y       z     vdW  Elec       q    Type
REMARK                         _______ _______ _______ _____ _____    ______ ____
ROOT
ATOM      1  C   UNL     1       4.522   3.880  18.378  0.00  0.00    +0.000 A 
ATOM      2  N   UNL     1       3.227   4.424  18.423  0.00  0.00    +0.000 NA
ATOM      3  C   UNL     1       2.714   3.903  19.490  0.00  0.00    +0.000 A 
ATOM      4  C   UNL     1       1.371   4.045  20.082  0.00  0.00    +0.000 A 
ATOM      5  C   UNL     1       1.152   3.320  21.191  0.00  0.00    +0.000 A 
ATOM      6  N   UNL     1       2.102   2.508  21.770  0.00  0.00    +0.000 N 
ATOM      7  C   UNL     1       3.363   2.375  21.225  0.00  0.00    +0.000 A 
ATOM      8  C   UNL     1       3.712   3.036  20.121  0.00  0.00    +0.000 A 
ATOM      9  N   UNL     1       4.844   3.077  19.363  0.00  0.00    +0.000 NA
ATOM     10  H   UNL     1       1.851   1.937  22.571  0.00  0.00    +0.000 HD
ENDROOT
BRANCH   1  16
ATOM     11  C   UNL     1       6.751   4.568  17.327  0.00  0.00    +0.000 A 
ATOM     12  C   UNL     1       7.492   4.812  16.157  0.00  0.00    +0.000 A 
ATOM     13  C   UNL     1       6.889   4.770  14.899  0.00  0.00    +0.000 A 
ATOM     14  C   UNL     1       5.540   4.474  14.791  0.00  0.00    +0.000 A 
ATOM     15  C   UNL     1       4.795   4.203  15.938  0.00  0.00    +0.000 A 
ATOM     16  C   UNL     1       5.388   4.233  17.215  0.00  0.00    +0.000 A 
BRANCH  11  18
ATOM     17  C   UNL     1       7.702   5.878  19.057  0.00  0.00    +0.000 C 
ATOM     18  O   UNL     1       7.336   4.592  18.565  0.00  0.00    +0.000 OA
ENDBRANCH  11  18
ENDBRANCH   1  16
TORSDOF 2
ENDMDL
MODEL 5
REMARK VINA RESULT:      -6.9      2.091      5.940
REMARK  Name = 
REMARK  3 active torsions:
REMARK  status: ('A' for Active; 'I' for Inactive)
REMARK    1  A    between atoms: C_1  and  O_2
REMARK    2  A    between atoms: O_2  and  C_3
REMARK    3  A    between atoms: C_8  and  C_9
REMARK                            x       y       z     vdW  Elec       q    Type
REMARK                         _______ _______ _______ _____ _____    ______ ____
ROOT
ATOM      1  C   UNL     1       4.200   3.929  17.743  0.00  0.00    +0.000 A 
ATOM      2  N   UNL     1       3.673   4.970  18.526  0.00  0.00    +0.000 NA
ATOM      3  C   UNL     1       2.745   4.392  19.219  0.00  0.00    +0.000 A 
ATOM      4  C   UNL     1       1.798   4.939  20.207  0.00  0.00    +0.000 A 
ATOM      5  C   UNL     1       0.925   4.055  20.717  0.00  0.00    +0.000 A 
ATOM      6  N   UNL     1       0.905   2.721  20.375  0.00  0.00    +0.000 N 
ATOM      7  C   UNL     1       1.792   2.201  19.454  0.00  0.00    +0.000 A 
ATOM      8  C   UNL     1       2.710   2.970  18.869  0.00  0.00    +0.000 A 
ATOM      9  N   UNL     1       3.671   2.744  17.929  0.00  0.00    +0.000 NA
ATOM     10  H   UNL     1       0.176   2.120  20.749  0.00  0.00    +0.000 HD
ENDROOT
BRANCH   1  16
ATOM     11  C   UNL     1       6.608   4.532  17.122  0.00  0.00    +0.000 A 
ATOM     12  C   UNL     1       7.554   4.767  16.109  0.00  0.00    +0.000 A 
ATOM     13  C   UNL     1       7.182   4.785  14.764  0.00  0.00    +0.000 A 
ATOM     14  C   UNL     1       5.861   4.557  14.411  0.00  0.00    +0.000 A 
ATOM     15  C   UNL     1       4.914   4.296  15.401  0.00  0.00    +0.000 A 
ATOM     16  C   UNL     1       5.273   4.266  16.762  0.00  0.00    +0.000 A 
BRANCH  11  18
ATOM     17  C   UNL     1       7.493   5.708  18.979  0.00  0.00    +0.000 C 
ATOM     18  O   UNL     1       6.965   4.498  18.444  0.00  0.00    +0.000 OA
ENDBRANCH  11  18
ENDBRANCH   1  16
TORSDOF 2
ENDMDL
MODEL 6
REMARK VINA RESULT:      -6.9      2.106      5.467
REMARK  Name = 
REMARK  3 active torsions:
REMARK  status: ('A' for Active; 'I' for Inactive)
REMARK    1  A    between atoms: C_1  and  O_2
REMARK    2  A    between atoms: O_2  and  C_3
REMARK    3  A    between atoms: C_8  and  C_9
REMARK                            x       y       z     vdW  Elec       q    Type
REMARK                         _______ _______ _______ _____ _____    ______ ____
ROOT
ATOM      1  C   UNL     1       4.691   4.602  18.561  0.00  0.00    +0.000 A 
ATOM      2  N   UNL     1       3.714   4.960  19.505  0.00  0.00    +0.000 NA
ATOM      3  C   UNL     1       2.807   4.049  19.367  0.00  0.00    +0.000 A 
ATOM      4  C   UNL     1       1.510   3.870  20.043  0.00  0.00    +0.000 A 
ATOM      5  C   UNL     1       0.782   2.821  19.625  0.00  0.00    +0.000 A 
ATOM      6  N   UNL     1       1.203   1.945  18.649  0.00  0.00    +0.000 N 
ATOM      7  C   UNL     1       2.419   2.102  18.015  0.00  0.00    +0.000 A 
ATOM      8  C   UNL     1       3.238   3.106  18.333  0.00  0.00    +0.000 A 
ATOM      9  N   UNL     1       4.452   3.516  17.869  0.00  0.00    +0.000 NA
ATOM     10  H   UNL     1       0.576   1.210  18.333  0.00  0.00    +0.000 HD
ENDROOT
BRANCH   1  16
ATOM     11  C   UNL     1       6.026   6.429  17.366  0.00  0.00    +0.000 A 
ATOM     12  C   UNL     1       7.151   7.272  17.360  0.00  0.00    +0.000 A 
ATOM     13  C   UNL     1       8.137   7.167  18.342  0.00  0.00    +0.000 A 
ATOM     14  C   UNL     1       8.008   6.225  19.350  0.00  0.00    +0.000 A 
ATOM     15  C   UNL     1       6.886   5.398  19.387  0.00  0.00    +0.000 A 
ATOM     16  C   UNL     1       5.877   5.496  18.409  0.00  0.00    +0.000 A 
BRANCH  11  18
ATOM     17  C   UNL     1       5.295   5.859  15.185  0.00  0.00    +0.000 C 
ATOM     18  O   UNL     1       5.046   6.534  16.415  0.00  0.00    +0.000 OA
ENDBRANCH  11  18
ENDBRANCH   1  16
TORSDOF 2
ENDMDL
MODEL 7
REMARK VINA RESULT:      -6.9      2.057      2.422
REMARK  Name = 
REMARK  3 active torsions:
REMARK  status: ('A' for Active; 'I' for Inactive)
REMARK    1  A    between atoms: C_1  and  O_2
REMARK    2  A    between atoms: O_2  and  C_3
REMARK    3  A    between atoms: C_8  and  C_9
REMARK                            x       y       z     vdW  Elec       q    Type
REMARK                         _______ _______ _______ _____ _____    ______ ____
ROOT
ATOM      1  C   UNL     1       4.582   4.579  18.751  0.00  0.00    +0.000 A 
ATOM      2  N   UNL     1       4.647   5.586  17.773  0.00  0.00    +0.000 NA
ATOM      3  C   UNL     1       5.817   6.108  17.950  0.00  0.00    +0.000 A 
ATOM      4  C   UNL     1       6.485   7.230  17.265  0.00  0.00    +0.000 A 
ATOM      5  C   UNL     1       7.704   7.545  17.732  0.00  0.00    +0.000 A 
ATOM      6  N   UNL     1       8.322   6.871  18.762  0.00  0.00    +0.000 N 
ATOM      7  C   UNL     1       7.705   5.816  19.404  0.00  0.00    +0.000 A 
ATOM      8  C   UNL     1       6.490   5.402  19.043  0.00  0.00    +0.000 A 
ATOM      9  N   UNL     1       5.648   4.434  19.500  0.00  0.00    +0.000 NA
ATOM     10  H   UNL     1       9.217   7.201  19.110  0.00  0.00    +0.000 HD
ENDROOT
BRANCH   1  16
ATOM     11  C   UNL     1       2.324   4.058  19.837  0.00  0.00    +0.000 A 
ATOM     12  C   UNL     1       1.134   3.309  19.812  0.00  0.00    +0.000 A 
ATOM     13  C   UNL     1       0.942   2.291  18.878  0.00  0.00    +0.000 A 
ATOM     14  C   UNL     1       1.930   2.013  17.947  0.00  0.00    +0.000 A 
ATOM     15  C   UNL     1       3.106   2.763  17.940  0.00  0.00    +0.000 A 
ATOM     16  C   UNL     1       3.315   3.800  18.870  0.00  0.00    +0.000 A 
BRANCH  11  18
ATOM     17  C   UNL     1       1.786   6.269  20.501  0.00  0.00    +0.000 C 
ATOM     18  O   UNL     1       2.517   5.070  20.740  0.00  0.00    +0.000 OA
ENDBRANCH  11  18
ENDBRANCH   1  16
TORSDOF 2
ENDMDL
MODEL 8
REMARK VINA RESULT:      -6.9      2.110      5.802
REMARK  Name = 
REMARK  3 active torsions:
REMARK  status: ('A' for Active; 'I' for Inactive)
REMARK    1  A    between atoms: C_1  and  O_2
REMARK    2  A    between atoms: O_2  and  C_3
REMARK    3  A    between atoms: C_8  and  C_9
REMARK                            x       y       z     vdW  Elec       q    Type
REMARK                         _______ _______ _______ _____ _____    ______ ____
ROOT
ATOM      1  C   UNL     1       4.269   4.232  18.055  0.00  0.00    +0.000 A 
ATOM      2  N   UNL     1       3.530   3.037  18.031  0.00  0.00    +0.000 NA
ATOM      3  C   UNL     1       2.796   3.110  19.094  0.00  0.00    +0.000 A 
ATOM      4  C   UNL     1       1.822   2.160  19.659  0.00  0.00    +0.000 A 
ATOM      5  C   UNL     1       1.256   2.537  20.818  0.00  0.00    +0.000 A 
ATOM      6  N   UNL     1       1.532   3.732  21.446  0.00  0.00    +0.000 N 
ATOM      7  C   UNL     1       2.439   4.629  20.919  0.00  0.00    +0.000 A 
ATOM      8  C   UNL     1       3.076   4.377  19.775  0.00  0.00    +0.000 A 
ATOM      9  N   UNL     1       4.018   5.044  19.052  0.00  0.00    +0.000 NA
ATOM     10  H   UNL     1       1.118   3.927  22.353  0.00  0.00    +0.000 HD
ENDROOT
BRANCH   1  16
ATOM     11  C   UNL     1       6.659   4.611  17.223  0.00  0.00    +0.000 A 
ATOM     12  C   UNL     1       7.534   4.736  16.130  0.00  0.00    +0.000 A 
ATOM     13  C   UNL     1       7.055   4.749  14.819  0.00  0.00    +0.000 A 
ATOM     14  C   UNL     1       5.696   4.624  14.581  0.00  0.00    +0.000 A 
ATOM     15  C   UNL     1       4.815   4.472  15.651  0.00  0.00    +0.000 A 
ATOM     16  C   UNL     1       5.281   4.449  16.980  0.00  0.00    +0.000 A 
BRANCH  11  18
ATOM     17  C   UNL     1       7.753   5.773  18.974  0.00  0.00    +0.000 C 
ATOM     18  O   UNL     1       7.120   4.583  18.512  0.00  0.00    +0.000 OA
ENDBRANCH  11  18
ENDBRANCH   1  16
TORSDOF 2
ENDMDL
MODEL 9
REMARK VINA RESULT:      -6.8      2.287      5.385
REMARK  Name = 
REMARK  3 active torsions:
REMARK  status: ('A' for Active; 'I' for Inactive)
REMARK    1  A    between atoms: C_1  and  O_2
REMARK    2  A    between atoms: O_2  and  C_3
REMARK    3  A    between atoms: C_8  and  C_9
REMARK                            x       y       z     vdW  Elec       q    Type
REMARK                         _______ _______ _______ _____ _____    ______ ____
ROOT
ATOM      1  C   UNL     1       4.246   4.981  18.871  0.00  0.00    +0.000 A 
ATOM      2  N   UNL     1       3.895   3.872  18.084  0.00  0.00    +0.000 NA
ATOM      3  C   UNL     1       2.755   3.501  18.570  0.00  0.00    +0.000 A 
ATOM      4  C   UNL     1       1.872   2.378  18.207  0.00  0.00    +0.000 A 
ATOM      5  C   UNL     1       0.763   2.253  18.954  0.00  0.00    +0.000 A 
ATOM      6  N   UNL     1       0.437   3.111  19.981  0.00  0.00    +0.000 N 
ATOM      7  C   UNL     1       1.256   4.168  20.323  0.00  0.00    +0.000 A 
ATOM      8  C   UNL     1       2.391   4.404  19.664  0.00  0.00    +0.000 A 
ATOM      9  N   UNL     1       3.383   5.328  19.794  0.00  0.00    +0.000 NA
ATOM     10  H   UNL     1      -0.384   2.921  20.549  0.00  0.00    +0.000 HD
ENDROOT
BRANCH   1  16
ATOM     11  C   UNL     1       5.800   6.534  17.558  0.00  0.00    +0.000 A 
ATOM     12  C   UNL     1       7.061   7.145  17.451  0.00  0.00    +0.000 A 
ATOM     13  C   UNL     1       8.089   6.840  18.343  0.00  0.00    +0.000 A 
ATOM     14  C   UNL     1       7.869   5.927  19.363  0.00  0.00    +0.000 A 
ATOM     15  C   UNL     1       6.616   5.330  19.500  0.00  0.00    +0.000 A 
ATOM     16  C   UNL     1       5.564   5.632  18.614  0.00  0.00    +0.000 A 
BRANCH  11  18
ATOM     17  C   UNL     1       5.032   6.585  15.316  0.00  0.00    +0.000 C 
ATOM     18  O   UNL     1       4.779   6.837  16.696  0.00  0.00    +0.000 OA
ENDBRANCH  11  18
ENDBRANCH   1  16
TORSDOF 2
ENDMDL
