MODEL 1
REMARK VINA RESULT:      -7.2      0.000      0.000
REMARK  Name = 
REMARK  10 active torsions:
REMARK  status: ('A' for Active; 'I' for Inactive)
REMARK    1  A    between atoms: C_1  and  C_2
REMARK    2  A    between atoms: C_2  and  C_3
REMARK    3  A    between atoms: C_2  and  C_4
REMARK    4  A    between atoms: C_4  and  C_5
REMARK    5  A    between atoms: C_5  and  O_6
REMARK    6  A    between atoms: C_5  and  C_7
REMARK    7  A    between atoms: C_8  and  C_9
REMARK    8  A    between atoms: C_10  and  C_11
REMARK    9  A    between atoms: C_11  and  O_12
REMARK   10  A    between atoms: C_11  and  C_13
REMARK                            x       y       z     vdW  Elec       q    Type
REMARK                         _______ _______ _______ _____ _____    ______ ____
ROOT
ATOM      1  C   UNL     1       4.717   3.614  16.567  0.00  0.00    +0.000 C 
ATOM      2  C   UNL     1       4.079   3.214  17.504  0.00  0.00    +0.000 C 
ENDROOT
BRANCH   1   4
ATOM      3  C   UNL     1       6.076   4.404  14.345  0.00  0.00    +0.000 C 
ATOM      4  C   UNL     1       5.468   4.043  15.313  0.00  0.00    +0.000 C 
BRANCH   3   5
ATOM      5  C   UNL     1       6.829   4.937  13.208  0.00  0.00    +0.000 C 
BRANCH   5   6
ATOM      6  O   UNL     1       8.113   5.361  13.657  0.00  0.00    +0.000 OA
ATOM      7  H   UNL     1       8.737   4.648  13.440  0.00  0.00    +0.000 HD
ENDBRANCH   5   6
BRANCH   5   8
ATOM      8  C   UNL     1       7.010   3.861  12.126  0.00  0.00    +0.000 C 
BRANCH   8  10
ATOM      9  C   UNL     1       4.595   3.388  11.492  0.00  0.00    +0.000 C 
ATOM     10  C   UNL     1       5.881   2.809  12.082  0.00  0.00    +0.000 C 
ATOM     11  C   UNL     1       6.322   1.582  11.283  0.00  0.00    +0.000 C 
ENDBRANCH   8  10
ENDBRANCH   5   8
ENDBRANCH   3   5
ENDBRANCH   1   4
BRANCH   2  12
ATOM     12  C   UNL     1       3.230   2.644  18.553  0.00  0.00    +0.000 C 
BRANCH  12  13
ATOM     13  C   UNL     1       1.816   3.277  18.504  0.00  0.00    +0.000 C 
ATOM     14  C   UNL     1       0.972   2.984  19.757  0.00  0.00    +0.000 C 
ATOM     15  C   UNL     1       1.464   3.735  20.992  0.00  0.00    +0.000 C 
ATOM     16  C   UNL     1       1.541   5.240  20.747  0.00  0.00    +0.000 C 
ATOM     17  C   UNL     1       2.309   5.599  19.478  0.00  0.00    +0.000 C 
ATOM     18  C   UNL     1       1.844   4.799  18.263  0.00  0.00    +0.000 C 
ENDBRANCH  12  13
BRANCH  12  19
ATOM     19  O   UNL     1       3.135   1.237  18.338  0.00  0.00    +0.000 OA
ATOM     20  H   UNL     1       3.316   0.805  19.191  0.00  0.00    +0.000 HD
ENDBRANCH  12  19
ENDBRANCH   2  12
TORSDOF 8
ENDMDL
MODEL 2
REMARK VINA RESULT:      -7.0      7.385      9.551
REMARK  Name = 
REMARK  10 active torsions:
REMARK  status: ('A' for Active; 'I' for Inactive)
REMARK    1  A    between atoms: C_1  and  C_2
REMARK    2  A    between atoms: C_2  and  C_3
REMARK    3  A    between atoms: C_2  and  C_4
REMARK    4  A    between atoms: C_4  and  C_5
REMARK    5  A    between atoms: C_5  and  O_6
REMARK    6  A    between atoms: C_5  and  C_7
REMARK    7  A    between atoms: C_8  and  C_9
REMARK    8  A    between atoms: C_10  and  C_11
REMARK    9  A    between atoms: C_11  and  O_12
REMARK   10  A    between atoms: C_11  and  C_13
REMARK                            x       y       z     vdW  Elec       q    Type
REMARK                         _______ _______ _______ _____ _____    ______ ____
ROOT
ATOM      1  C   UNL     1       8.307   8.954  18.020  0.00  0.00    +0.000 C 
ATOM      2  C   UNL     1       8.684  10.084  18.180  0.00  0.00    +0.000 C 
ENDROOT
BRANCH   1   4
ATOM      3  C   UNL     1       7.346   6.471  17.455  0.00  0.00    +0.000 C 
ATOM      4  C   UNL     1       7.770   7.559  17.722  0.00  0.00    +0.000 C 
BRANCH   3   5
ATOM      5  C   UNL     1       6.781   5.183  17.047  0.00  0.00    +0.000 C 
BRANCH   5   6
ATOM      6  O   UNL     1       6.861   4.273  18.141  0.00  0.00    +0.000 OA
ATOM      7  H   UNL     1       7.149   3.419  17.777  0.00  0.00    +0.000 HD
ENDBRANCH   5   6
BRANCH   5   8
ATOM      8  C   UNL     1       5.309   5.343  16.638  0.00  0.00    +0.000 C 
BRANCH   8  10
ATOM      9  C   UNL     1       3.777   7.162  17.532  0.00  0.00    +0.000 C 
ATOM     10  C   UNL     1       4.374   5.778  17.786  0.00  0.00    +0.000 C 
ATOM     11  C   UNL     1       3.259   4.751  17.987  0.00  0.00    +0.000 C 
ENDBRANCH   8  10
ENDBRANCH   5   8
ENDBRANCH   3   5
ENDBRANCH   1   4
BRANCH   2  12
ATOM     12  C   UNL     1       9.079  11.493  18.251  0.00  0.00    +0.000 C 
BRANCH  12  13
ATOM     13  C   UNL     1      10.545  11.666  17.777  0.00  0.00    +0.000 C 
ATOM     14  C   UNL     1      10.858  13.082  17.265  0.00  0.00    +0.000 C 
ATOM     15  C   UNL     1      10.907  14.120  18.384  0.00  0.00    +0.000 C 
ATOM     16  C   UNL     1      11.892  13.726  19.481  0.00  0.00    +0.000 C 
ATOM     17  C   UNL     1      11.680  12.302  19.988  0.00  0.00    +0.000 C 
ATOM     18  C   UNL     1      11.578  11.283  18.855  0.00  0.00    +0.000 C 
ENDBRANCH  12  13
BRANCH  12  19
ATOM     19  O   UNL     1       8.209  12.246  17.408  0.00  0.00    +0.000 OA
ATOM     20  H   UNL     1       7.346  11.796  17.417  0.00  0.00    +0.000 HD
ENDBRANCH  12  19
ENDBRANCH   2  12
TORSDOF 8
ENDMDL
MODEL 3
REMARK VINA RESULT:      -6.9      6.741      8.330
REMARK  Name = 
REMARK  10 active torsions:
REMARK  status: ('A' for Active; 'I' for Inactive)
REMARK    1  A    between atoms: C_1  and  C_2
REMARK    2  A    between atoms: C_2  and  C_3
REMARK    3  A    between atoms: C_2  and  C_4
REMARK    4  A    between atoms: C_4  and  C_5
REMARK    5  A    between atoms: C_5  and  O_6
REMARK    6  A    between atoms: C_5  and  C_7
REMARK    7  A    between atoms: C_8  and  C_9
REMARK    8  A    between atoms: C_10  and  C_11
REMARK    9  A    between atoms: C_11  and  O_12
REMARK   10  A    between atoms: C_11  and  C_13
REMARK                            x       y       z     vdW  Elec       q    Type
REMARK                         _______ _______ _______ _____ _____    ______ ____
ROOT
ATOM      1  C   UNL     1       7.813   8.033  17.738  0.00  0.00    +0.000 C 
ATOM      2  C   UNL     1       7.325   7.059  17.231  0.00  0.00    +0.000 C 
ENDROOT
BRANCH   1   4
ATOM      3  C   UNL     1       9.076  10.123  18.939  0.00  0.00    +0.000 C 
ATOM      4  C   UNL     1       8.530   9.206  18.394  0.00  0.00    +0.000 C 
BRANCH   3   5
ATOM      5  C   UNL     1       9.660  11.255  19.664  0.00  0.00    +0.000 C 
BRANCH   5   6
ATOM      6  O   UNL     1       9.737  10.930  21.049  0.00  0.00    +0.000 OA
ATOM      7  H   UNL     1      10.650  10.645  21.221  0.00  0.00    +0.000 HD
ENDBRANCH   5   6
BRANCH   5   8
ATOM      8  C   UNL     1      11.073  11.559  19.143  0.00  0.00    +0.000 C 
BRANCH   8  10
ATOM      9  C   UNL     1      12.308  13.766  19.394  0.00  0.00    +0.000 C 
ATOM     10  C   UNL     1      11.254  12.993  18.601  0.00  0.00    +0.000 C 
ATOM     11  C   UNL     1      11.629  12.961  17.118  0.00  0.00    +0.000 C 
ENDBRANCH   8  10
ENDBRANCH   5   8
ENDBRANCH   3   5
ENDBRANCH   1   4
BRANCH   2  12
ATOM     12  C   UNL     1       6.858   5.809  16.625  0.00  0.00    +0.000 C 
BRANCH  12  13
ATOM     13  C   UNL     1       5.381   5.947  16.176  0.00  0.00    +0.000 C 
ATOM     14  C   UNL     1       4.733   4.607  15.786  0.00  0.00    +0.000 C 
ATOM     15  C   UNL     1       4.474   3.702  16.987  0.00  0.00    +0.000 C 
ATOM     16  C   UNL     1       3.636   4.401  18.054  0.00  0.00    +0.000 C 
ATOM     17  C   UNL     1       4.186   5.771  18.440  0.00  0.00    +0.000 C 
ATOM     18  C   UNL     1       4.494   6.645  17.226  0.00  0.00    +0.000 C 
ENDBRANCH  12  13
BRANCH  12  19
ATOM     19  O   UNL     1       7.680   5.525  15.494  0.00  0.00    +0.000 OA
ATOM     20  H   UNL     1       7.500   4.605  15.235  0.00  0.00    +0.000 HD
ENDBRANCH  12  19
ENDBRANCH   2  12
TORSDOF 8
ENDMDL
MODEL 4
REMARK VINA RESULT:      -6.9      6.583      8.061
REMARK  Name = 
REMARK  10 active torsions:
REMARK  status: ('A' for Active; 'I' for Inactive)
REMARK    1  A    between atoms: C_1  and  C_2
REMARK    2  A    between atoms: C_2  and  C_3
REMARK    3  A    between atoms: C_2  and  C_4
REMARK    4  A    between atoms: C_4  and  C_5
REMARK    5  A    between atoms: C_5  and  O_6
REMARK    6  A    between atoms: C_5  and  C_7
REMARK    7  A    between atoms: C_8  and  C_9
REMARK    8  A    between atoms: C_10  and  C_11
REMARK    9  A    between atoms: C_11  and  O_12
REMARK   10  A    between atoms: C_11  and  C_13
REMARK                            x       y       z     vdW  Elec       q    Type
REMARK                         _______ _______ _______ _____ _____    ______ ____
ROOT
ATOM      1  C   UNL     1       7.827   7.468  18.110  0.00  0.00    +0.000 C 
ATOM      2  C   UNL     1       7.262   6.410  18.036  0.00  0.00    +0.000 C 
ENDROOT
BRANCH   1   4
ATOM      3  C   UNL     1       8.914   9.956  18.300  0.00  0.00    +0.000 C 
ATOM      4  C   UNL     1       8.438   8.861  18.197  0.00  0.00    +0.000 C 
BRANCH   3   5
ATOM      5  C   UNL     1       9.440  11.307  18.510  0.00  0.00    +0.000 C 
BRANCH   5   6
ATOM      6  O   UNL     1       8.588  12.244  17.858  0.00  0.00    +0.000 OA
ATOM      7  H   UNL     1       8.258  12.849  18.543  0.00  0.00    +0.000 HD
ENDBRANCH   5   6
BRANCH   5   8
ATOM      8  C   UNL     1       9.492  11.640  20.010  0.00  0.00    +0.000 C 
BRANCH   8  10
ATOM      9  C   UNL     1      11.994  11.781  19.587  0.00  0.00    +0.000 C 
ATOM     10  C   UNL     1      10.838  12.228  20.482  0.00  0.00    +0.000 C 
ATOM     11  C   UNL     1      10.767  13.756  20.529  0.00  0.00    +0.000 C 
ENDBRANCH   8  10
ENDBRANCH   5   8
ENDBRANCH   3   5
ENDBRANCH   1   4
BRANCH   2  12
ATOM     12  C   UNL     1       6.450   5.193  17.950  0.00  0.00    +0.000 C 
BRANCH  12  13
ATOM     13  C   UNL     1       5.448   5.296  16.772  0.00  0.00    +0.000 C 
ATOM     14  C   UNL     1       4.639   4.008  16.544  0.00  0.00    +0.000 C 
ATOM     15  C   UNL     1       3.605   3.755  17.638  0.00  0.00    +0.000 C 
ATOM     16  C   UNL     1       2.665   4.944  17.817  0.00  0.00    +0.000 C 
ATOM     17  C   UNL     1       3.404   6.269  17.981  0.00  0.00    +0.000 C 
ATOM     18  C   UNL     1       4.473   6.482  16.911  0.00  0.00    +0.000 C 
ENDBRANCH  12  13
BRANCH  12  19
ATOM     19  O   UNL     1       7.324   4.085  17.743  0.00  0.00    +0.000 OA
ATOM     20  H   UNL     1       8.227   4.442  17.683  0.00  0.00    +0.000 HD
ENDBRANCH  12  19
ENDBRANCH   2  12
TORSDOF 8
ENDMDL
MODEL 5
REMARK VINA RESULT:      -6.9      7.853      9.919
REMARK  Name = 
REMARK  10 active torsions:
REMARK  status: ('A' for Active; 'I' for Inactive)
REMARK    1  A    between atoms: C_1  and  C_2
REMARK    2  A    between atoms: C_2  and  C_3
REMARK    3  A    between atoms: C_2  and  C_4
REMARK    4  A    between atoms: C_4  and  C_5
REMARK    5  A    between atoms: C_5  and  O_6
REMARK    6  A    between atoms: C_5  and  C_7
REMARK    7  A    between atoms: C_8  and  C_9
REMARK    8  A    between atoms: C_10  and  C_11
REMARK    9  A    between atoms: C_11  and  O_12
REMARK   10  A    between atoms: C_11  and  C_13
REMARK                            x       y       z     vdW  Elec       q    Type
REMARK                         _______ _______ _______ _____ _____    ______ ____
ROOT
ATOM      1  C   UNL     1       8.645   9.761  18.191  0.00  0.00    +0.000 C 
ATOM      2  C   UNL     1       8.929  10.927  18.134  0.00  0.00    +0.000 C 
ENDROOT
BRANCH   1   4
ATOM      3  C   UNL     1       7.877   7.150  18.200  0.00  0.00    +0.000 C 
ATOM      4  C   UNL     1       8.207   8.301  18.179  0.00  0.00    +0.000 C 
BRANCH   3   5
ATOM      5  C   UNL     1       7.553   5.724  18.288  0.00  0.00    +0.000 C 
BRANCH   5   6
ATOM      6  O   UNL     1       7.914   5.244  19.581  0.00  0.00    +0.000 OA
ATOM      7  H   UNL     1       8.471   5.927  19.989  0.00  0.00    +0.000 HD
ENDBRANCH   5   6
BRANCH   5   8
ATOM      8  C   UNL     1       6.049   5.496  18.074  0.00  0.00    +0.000 C 
BRANCH   8  10
ATOM      9  C   UNL     1       5.134   6.357  15.865  0.00  0.00    +0.000 C 
ATOM     10  C   UNL     1       5.661   5.139  16.624  0.00  0.00    +0.000 C 
ATOM     11  C   UNL     1       6.854   4.533  15.884  0.00  0.00    +0.000 C 
ENDBRANCH   8  10
ENDBRANCH   5   8
ENDBRANCH   3   5
ENDBRANCH   1   4
BRANCH   2  12
ATOM     12  C   UNL     1       9.186  12.358  17.952  0.00  0.00    +0.000 C 
BRANCH  12  13
ATOM     13  C   UNL     1      10.607  12.581  17.374  0.00  0.00    +0.000 C 
ATOM     14  C   UNL     1      11.019  14.062  17.320  0.00  0.00    +0.000 C 
ATOM     15  C   UNL     1      11.292  14.652  18.701  0.00  0.00    +0.000 C 
ATOM     16  C   UNL     1      12.333  13.842  19.468  0.00  0.00    +0.000 C 
ATOM     17  C   UNL     1      12.020  12.349  19.502  0.00  0.00    +0.000 C 
ATOM     18  C   UNL     1      11.695  11.785  18.121  0.00  0.00    +0.000 C 
ENDBRANCH  12  13
BRANCH  12  19
ATOM     19  O   UNL     1       8.211  12.877  17.049  0.00  0.00    +0.000 OA
ATOM     20  H   UNL     1       7.838  13.676  17.461  0.00  0.00    +0.000 HD
ENDBRANCH  12  19
ENDBRANCH   2  12
TORSDOF 8
ENDMDL
MODEL 6
REMARK VINA RESULT:      -6.9      7.345      9.521
REMARK  Name = 
REMARK  10 active torsions:
REMARK  status: ('A' for Active; 'I' for Inactive)
REMARK    1  A    between atoms: C_1  and  C_2
REMARK    2  A    between atoms: C_2  and  C_3
REMARK    3  A    between atoms: C_2  and  C_4
REMARK    4  A    between atoms: C_4  and  C_5
REMARK    5  A    between atoms: C_5  and  O_6
REMARK    6  A    between atoms: C_5  and  C_7
REMARK    7  A    between atoms: C_8  and  C_9
REMARK    8  A    between atoms: C_10  and  C_11
REMARK    9  A    between atoms: C_11  and  O_12
REMARK   10  A    between atoms: C_11  and  C_13
REMARK                            x       y       z     vdW  Elec       q    Type
REMARK                         _______ _______ _______ _____ _____    ______ ____
ROOT
ATOM      1  C   UNL     1       8.353   8.894  17.990  0.00  0.00    +0.000 C 
ATOM      2  C   UNL     1       8.715  10.033  18.119  0.00  0.00    +0.000 C 
ENDROOT
BRANCH   1   4
ATOM      3  C   UNL     1       7.365   6.379  17.672  0.00  0.00    +0.000 C 
ATOM      4  C   UNL     1       7.785   7.490  17.824  0.00  0.00    +0.000 C 
BRANCH   3   5
ATOM      5  C   UNL     1       6.895   5.019  17.394  0.00  0.00    +0.000 C 
BRANCH   5   6
ATOM      6  O   UNL     1       8.015   4.140  17.355  0.00  0.00    +0.000 OA
ATOM      7  H   UNL     1       8.318   4.028  18.271  0.00  0.00    +0.000 HD
ENDBRANCH   5   6
BRANCH   5   8
ATOM      8  C   UNL     1       5.927   4.546  18.490  0.00  0.00    +0.000 C 
BRANCH   8  10
ATOM      9  C   UNL     1       3.972   3.005  19.000  0.00  0.00    +0.000 C 
ATOM     10  C   UNL     1       4.625   3.912  17.956  0.00  0.00    +0.000 C 
ATOM     11  C   UNL     1       3.644   4.997  17.512  0.00  0.00    +0.000 C 
ENDBRANCH   8  10
ENDBRANCH   5   8
ENDBRANCH   3   5
ENDBRANCH   1   4
BRANCH   2  12
ATOM     12  C   UNL     1       9.018  11.460  18.258  0.00  0.00    +0.000 C 
BRANCH  12  13
ATOM     13  C   UNL     1      10.478  11.745  17.823  0.00  0.00    +0.000 C 
ATOM     14  C   UNL     1      10.716  13.205  17.401  0.00  0.00    +0.000 C 
ATOM     15  C   UNL     1      10.686  14.175  18.580  0.00  0.00    +0.000 C 
ATOM     16  C   UNL     1      11.675  13.773  19.671  0.00  0.00    +0.000 C 
ATOM     17  C   UNL     1      11.539  12.311  20.089  0.00  0.00    +0.000 C 
ATOM     18  C   UNL     1      11.514  11.358  18.896  0.00  0.00    +0.000 C 
ENDBRANCH  12  13
BRANCH  12  19
ATOM     19  O   UNL     1       8.117  12.193  17.429  0.00  0.00    +0.000 OA
ATOM     20  H   UNL     1       7.391  12.500  18.000  0.00  0.00    +0.000 HD
ENDBRANCH  12  19
ENDBRANCH   2  12
TORSDOF 8
ENDMDL
MODEL 7
REMARK VINA RESULT:      -6.9      6.467      7.913
REMARK  Name = 
REMARK  10 active torsions:
REMARK  status: ('A' for Active; 'I' for Inactive)
REMARK    1  A    between atoms: C_1  and  C_2
REMARK    2  A    between atoms: C_2  and  C_3
REMARK    3  A    between atoms: C_2  and  C_4
REMARK    4  A    between atoms: C_4  and  C_5
REMARK    5  A    between atoms: C_5  and  O_6
REMARK    6  A    between atoms: C_5  and  C_7
REMARK    7  A    between atoms: C_8  and  C_9
REMARK    8  A    between atoms: C_10  and  C_11
REMARK    9  A    between atoms: C_11  and  O_12
REMARK   10  A    between atoms: C_11  and  C_13
REMARK                            x       y       z     vdW  Elec       q    Type
REMARK                         _______ _______ _______ _____ _____    ______ ____
ROOT
ATOM      1  C   UNL     1       7.907   7.526  17.793  0.00  0.00    +0.000 C 
ATOM      2  C   UNL     1       7.450   6.443  17.547  0.00  0.00    +0.000 C 
ENDROOT
BRANCH   1   4
ATOM      3  C   UNL     1       8.822   9.995  18.485  0.00  0.00    +0.000 C 
ATOM      4  C   UNL     1       8.417   8.904  18.199  0.00  0.00    +0.000 C 
BRANCH   3   5
ATOM      5  C   UNL     1       9.366  11.330  18.745  0.00  0.00    +0.000 C 
BRANCH   5   6
ATOM      6  O   UNL     1       9.792  11.402  20.102  0.00  0.00    +0.000 OA
ATOM      7  H   UNL     1      10.756  11.274  20.102  0.00  0.00    +0.000 HD
ENDBRANCH   5   6
BRANCH   5   8
ATOM      8  C   UNL     1      10.567  11.612  17.829  0.00  0.00    +0.000 C 
BRANCH   8  10
ATOM      9  C   UNL     1       9.562  13.946  17.844  0.00  0.00    +0.000 C 
ATOM     10  C   UNL     1      10.804  13.109  17.537  0.00  0.00    +0.000 C 
ATOM     11  C   UNL     1      12.001  13.628  18.336  0.00  0.00    +0.000 C 
ENDBRANCH   8  10
ENDBRANCH   5   8
ENDBRANCH   3   5
ENDBRANCH   1   4
BRANCH   2  12
ATOM     12  C   UNL     1       6.822   5.130  17.372  0.00  0.00    +0.000 C 
BRANCH  12  13
ATOM     13  C   UNL     1       5.682   5.215  16.326  0.00  0.00    +0.000 C 
ATOM     14  C   UNL     1       4.759   3.984  16.327  0.00  0.00    +0.000 C 
ATOM     15  C   UNL     1       3.865   3.913  17.562  0.00  0.00    +0.000 C 
ATOM     16  C   UNL     1       3.045   5.187  17.742  0.00  0.00    +0.000 C 
ATOM     17  C   UNL     1       3.892   6.456  17.683  0.00  0.00    +0.000 C 
ATOM     18  C   UNL     1       4.821   6.485  16.471  0.00  0.00    +0.000 C 
ENDBRANCH  12  13
BRANCH  12  19
ATOM     19  O   UNL     1       7.819   4.212  16.925  0.00  0.00    +0.000 OA
ATOM     20  H   UNL     1       8.682   4.641  17.062  0.00  0.00    +0.000 HD
ENDBRANCH  12  19
ENDBRANCH   2  12
TORSDOF 8
ENDMDL
MODEL 8
REMARK VINA RESULT:      -6.8      6.774      8.370
REMARK  Name = 
REMARK  10 active torsions:
REMARK  status: ('A' for Active; 'I' for Inactive)
REMARK    1  A    between atoms: C_1  and  C_2
REMARK    2  A    between atoms: C_2  and  C_3
REMARK    3  A    between atoms: C_2  and  C_4
REMARK    4  A    between atoms: C_4  and  C_5
REMARK    5  A    between atoms: C_5  and  O_6
REMARK    6  A    between atoms: C_5  and  C_7
REMARK    7  A    between atoms: C_8  and  C_9
REMARK    8  A    between atoms: C_10  and  C_11
REMARK    9  A    between atoms: C_11  and  O_12
REMARK   10  A    between atoms: C_11  and  C_13
REMARK                            x       y       z     vdW  Elec       q    Type
REMARK                         _______ _______ _______ _____ _____    ______ ____
ROOT
ATOM      1  C   UNL     1       7.961   8.006  17.920  0.00  0.00    +0.000 C 
ATOM      2  C   UNL     1       7.505   6.902  17.783  0.00  0.00    +0.000 C 
ENDROOT
BRANCH   1   4
ATOM      3  C   UNL     1       8.829  10.581  18.066  0.00  0.00    +0.000 C 
ATOM      4  C   UNL     1       8.460   9.442  18.015  0.00  0.00    +0.000 C 
BRANCH   3   5
ATOM      5  C   UNL     1       9.249  11.984  18.031  0.00  0.00    +0.000 C 
BRANCH   5   6
ATOM      6  O   UNL     1       8.356  12.716  17.196  0.00  0.00    +0.000 OA
ATOM      7  H   UNL     1       8.540  13.658  17.344  0.00  0.00    +0.000 HD
ENDBRANCH   5   6
BRANCH   5   8
ATOM      8  C   UNL     1       9.222  12.592  19.443  0.00  0.00    +0.000 C 
BRANCH   8  10
ATOM      9  C   UNL     1      10.393  14.117  21.103  0.00  0.00    +0.000 C 
ATOM     10  C   UNL     1      10.569  13.185  19.904  0.00  0.00    +0.000 C 
ATOM     11  C   UNL     1      11.558  12.069  20.245  0.00  0.00    +0.000 C 
ENDBRANCH   8  10
ENDBRANCH   5   8
ENDBRANCH   3   5
ENDBRANCH   1   4
BRANCH   2  12
ATOM     12  C   UNL     1       6.851   5.615  17.531  0.00  0.00    +0.000 C 
BRANCH  12  13
ATOM     13  C   UNL     1       5.717   5.784  16.487  0.00  0.00    +0.000 C 
ATOM     14  C   UNL     1       5.085   4.451  16.051  0.00  0.00    +0.000 C 
ATOM     15  C   UNL     1       4.231   3.814  17.145  0.00  0.00    +0.000 C 
ATOM     16  C   UNL     1       3.153   4.769  17.651  0.00  0.00    +0.000 C 
ATOM     17  C   UNL     1       3.704   6.139  18.037  0.00  0.00    +0.000 C 
ATOM     18  C   UNL     1       4.601   6.738  16.957  0.00  0.00    +0.000 C 
ENDBRANCH  12  13
BRANCH  12  19
ATOM     19  O   UNL     1       7.830   4.704  17.035  0.00  0.00    +0.000 OA
ATOM     20  H   UNL     1       8.497   5.233  16.562  0.00  0.00    +0.000 HD
ENDBRANCH  12  19
ENDBRANCH   2  12
TORSDOF 8
ENDMDL
MODEL 9
REMARK VINA RESULT:      -6.7      7.269      9.122
REMARK  Name = 
REMARK  10 active torsions:
REMARK  status: ('A' for Active; 'I' for Inactive)
REMARK    1  A    between atoms: C_1  and  C_2
REMARK    2  A    between atoms: C_2  and  C_3
REMARK    3  A    between atoms: C_2  and  C_4
REMARK    4  A    between atoms: C_4  and  C_5
REMARK    5  A    between atoms: C_5  and  O_6
REMARK    6  A    between atoms: C_5  and  C_7
REMARK    7  A    between atoms: C_8  and  C_9
REMARK    8  A    between atoms: C_10  and  C_11
REMARK    9  A    between atoms: C_11  and  O_12
REMARK   10  A    between atoms: C_11  and  C_13
REMARK                            x       y       z     vdW  Elec       q    Type
REMARK                         _______ _______ _______ _____ _____    ______ ____
ROOT
ATOM      1  C   UNL     1       8.282   8.799  18.054  0.00  0.00    +0.000 C 
ATOM      2  C   UNL     1       8.819   9.843  18.311  0.00  0.00    +0.000 C 
ENDROOT
BRANCH   1   4
ATOM      3  C   UNL     1       7.175   6.420  17.333  0.00  0.00    +0.000 C 
ATOM      4  C   UNL     1       7.678   7.462  17.641  0.00  0.00    +0.000 C 
BRANCH   3   5
ATOM      5  C   UNL     1       6.500   5.153  17.039  0.00  0.00    +0.000 C 
BRANCH   5   6
ATOM      6  O   UNL     1       6.825   4.207  18.053  0.00  0.00    +0.000 OA
ATOM      7  H   UNL     1       6.804   3.329  17.637  0.00  0.00    +0.000 HD
ENDBRANCH   5   6
BRANCH   5   8
ATOM      8  C   UNL     1       4.976   5.347  17.007  0.00  0.00    +0.000 C 
BRANCH   8  10
ATOM      9  C   UNL     1       3.510   5.269  19.082  0.00  0.00    +0.000 C 
ATOM     10  C   UNL     1       4.201   4.447  17.993  0.00  0.00    +0.000 C 
ATOM     11  C   UNL     1       3.176   3.593  17.247  0.00  0.00    +0.000 C 
ENDBRANCH   8  10
ENDBRANCH   5   8
ENDBRANCH   3   5
ENDBRANCH   1   4
BRANCH   2  12
ATOM     12  C   UNL     1       9.569  11.084  18.522  0.00  0.00    +0.000 C 
BRANCH  12  13
ATOM     13  C   UNL     1      10.268  11.062  19.906  0.00  0.00    +0.000 C 
ATOM     14  C   UNL     1      11.484  12.000  19.991  0.00  0.00    +0.000 C 
ATOM     15  C   UNL     1      11.095  13.476  20.009  0.00  0.00    +0.000 C 
ATOM     16  C   UNL     1      10.108  13.788  21.131  0.00  0.00    +0.000 C 
ATOM     17  C   UNL     1       8.906  12.847  21.147  0.00  0.00    +0.000 C 
ATOM     18  C   UNL     1       9.310  11.377  21.071  0.00  0.00    +0.000 C 
ENDBRANCH  12  13
BRANCH  12  19
ATOM     19  O   UNL     1      10.547  11.198  17.490  0.00  0.00    +0.000 OA
ATOM     20  H   UNL     1      10.708  12.148  17.353  0.00  0.00    +0.000 HD
ENDBRANCH  12  19
ENDBRANCH   2  12
TORSDOF 8
ENDMDL
