MODEL 1
REMARK VINA RESULT:      -7.6      0.000      0.000
REMARK  Name = 
REMARK  10 active torsions:
REMARK  status: ('A' for Active; 'I' for Inactive)
REMARK    1  A    between atoms: C_1  and  O_2
REMARK    2  A    between atoms: O_2  and  C_3
REMARK    3  A    between atoms: C_6  and  N_7
REMARK    4  A    between atoms: C_8  and  C_9
REMARK    5  A    between atoms: C_9  and  C_10
REMARK    6  A    between atoms: N_14  and  C_15
REMARK    7  A    between atoms: C_18  and  S_19
REMARK    8  A    between atoms: S_19  and  C_20
REMARK    9  A    between atoms: C_20  and  C_21
REMARK   10  A    between atoms: N_23  and  C_24
REMARK                            x       y       z     vdW  Elec       q    Type
REMARK                         _______ _______ _______ _____ _____    ______ ____
ROOT
ATOM      1  N   UNL     1      -0.509  11.488  19.994  0.00  0.00    +0.000 N 
ATOM      2  C   UNL     1       0.084  12.726  20.260  0.00  0.00    +0.000 A 
ATOM      3  N   UNL     1       0.724  12.673  21.417  0.00  0.00    +0.000 NA
ATOM      4  N   UNL     1       0.637  11.404  21.903  0.00  0.00    +0.000 NA
ATOM      5  C   UNL     1      -0.033  10.691  21.027  0.00  0.00    +0.000 A 
ENDROOT
BRANCH   1   9
ATOM      6  C   UNL     1      -3.164  10.685  16.772  0.00  0.00    +0.000 A 
ATOM      7  C   UNL     1      -3.550  11.532  17.804  0.00  0.00    +0.000 A 
ATOM      8  C   UNL     1      -2.708  11.750  18.899  0.00  0.00    +0.000 A 
ATOM      9  C   UNL     1      -1.448  11.149  18.968  0.00  0.00    +0.000 A 
ATOM     10  C   UNL     1      -1.088  10.259  17.948  0.00  0.00    +0.000 A 
ATOM     11  C   UNL     1      -1.944  10.020  16.862  0.00  0.00    +0.000 A 
BRANCH   6  13
ATOM     12  C   UNL     1      -3.514  10.133  14.506  0.00  0.00    +0.000 C 
ATOM     13  O   UNL     1      -4.061  10.554  15.751  0.00  0.00    +0.000 OA
ENDBRANCH   6  13
ENDBRANCH   1   9
BRANCH   2  14
ATOM     14  C   UNL     1       0.144  13.913  19.335  0.00  0.00    +0.000 C 
BRANCH  14  15
ATOM     15  C   UNL     1       1.531  14.219  18.837  0.00  0.00    +0.000 A 
ATOM     16  C   UNL     1       2.550  13.350  18.478  0.00  0.00    +0.000 A 
ATOM     17  C   UNL     1       3.705  14.114  18.207  0.00  0.00    +0.000 A 
ATOM     18  C   UNL     1       3.354  15.437  18.340  0.00  0.00    +0.000 A 
ATOM     19  N   UNL     1       2.019  15.497  18.654  0.00  0.00    +0.000 N 
ATOM     20  C   UNL     1       1.269  16.731  18.754  0.00  0.00    +0.000 C 
ENDBRANCH  14  15
ENDBRANCH   2  14
BRANCH   5  21
ATOM     21  S   UNL     1      -0.293   8.979  21.229  0.00  0.00    +0.000 S 
BRANCH  21  22
ATOM     22  C   UNL     1       1.379   8.324  21.377  0.00  0.00    +0.000 C 
BRANCH  22  23
ATOM     23  C   UNL     1       1.895   7.836  20.037  0.00  0.00    +0.000 C 
ATOM     24  O   UNL     1       1.842   8.524  19.020  0.00  0.00    +0.000 OA
ATOM     25  N   UNL     1       2.427   6.565  20.062  0.00  0.00    +0.000 N 
ATOM     26  H   UNL     1       2.427   6.054  20.939  0.00  0.00    +0.000 HD
BRANCH  25  27
ATOM     27  C   UNL     1       3.090   5.975  18.902  0.00  0.00    +0.000 C 
ATOM     28  C   UNL     1       4.185   4.989  19.322  0.00  0.00    +0.000 C 
ATOM     29  C   UNL     1       3.630   3.718  19.964  0.00  0.00    +0.000 C 
ATOM     30  C   UNL     1       2.534   3.054  19.134  0.00  0.00    +0.000 C 
ATOM     31  C   UNL     1       1.478   4.023  18.609  0.00  0.00    +0.000 C 
ATOM     32  C   UNL     1       2.076   5.283  17.986  0.00  0.00    +0.000 C 
ENDBRANCH  25  27
ENDBRANCH  22  23
ENDBRANCH  21  22
ENDBRANCH   5  21
TORSDOF 8
ENDMDL
MODEL 2
REMARK VINA RESULT:      -7.6      3.035      9.391
REMARK  Name = 
REMARK  10 active torsions:
REMARK  status: ('A' for Active; 'I' for Inactive)
REMARK    1  A    between atoms: C_1  and  O_2
REMARK    2  A    between atoms: O_2  and  C_3
REMARK    3  A    between atoms: C_6  and  N_7
REMARK    4  A    between atoms: C_8  and  C_9
REMARK    5  A    between atoms: C_9  and  C_10
REMARK    6  A    between atoms: N_14  and  C_15
REMARK    7  A    between atoms: C_18  and  S_19
REMARK    8  A    between atoms: S_19  and  C_20
REMARK    9  A    between atoms: C_20  and  C_21
REMARK   10  A    between atoms: N_23  and  C_24
REMARK                            x       y       z     vdW  Elec       q    Type
REMARK                         _______ _______ _______ _____ _____    ______ ____
ROOT
ATOM      1  N   UNL     1       2.964   6.187  19.343  0.00  0.00    +0.000 N 
ATOM      2  C   UNL     1       2.299   5.570  20.409  0.00  0.00    +0.000 A 
ATOM      3  N   UNL     1       1.461   6.428  20.967  0.00  0.00    +0.000 NA
ATOM      4  N   UNL     1       1.492   7.589  20.256  0.00  0.00    +0.000 NA
ATOM      5  C   UNL     1       2.329   7.419  19.258  0.00  0.00    +0.000 A 
ENDROOT
BRANCH   1   9
ATOM      6  C   UNL     1       6.369   5.044  17.069  0.00  0.00    +0.000 A 
ATOM      7  C   UNL     1       5.118   5.125  16.467  0.00  0.00    +0.000 A 
ATOM      8  C   UNL     1       3.983   5.438  17.222  0.00  0.00    +0.000 A 
ATOM      9  C   UNL     1       4.082   5.707  18.590  0.00  0.00    +0.000 A 
ATOM     10  C   UNL     1       5.337   5.573  19.197  0.00  0.00    +0.000 A 
ATOM     11  C   UNL     1       6.471   5.234  18.444  0.00  0.00    +0.000 A 
BRANCH   6  13
ATOM     12  C   UNL     1       7.080   4.695  14.849  0.00  0.00    +0.000 C 
ATOM     13  O   UNL     1       7.406   4.741  16.233  0.00  0.00    +0.000 OA
ENDBRANCH   6  13
ENDBRANCH   1   9
BRANCH   2  14
ATOM     14  C   UNL     1       2.378   4.117  20.799  0.00  0.00    +0.000 C 
BRANCH  14  15
ATOM     15  C   UNL     1       2.516   3.186  19.624  0.00  0.00    +0.000 A 
ATOM     16  C   UNL     1       1.706   3.049  18.507  0.00  0.00    +0.000 A 
ATOM     17  C   UNL     1       2.174   1.951  17.756  0.00  0.00    +0.000 A 
ATOM     18  C   UNL     1       3.299   1.479  18.389  0.00  0.00    +0.000 A 
ATOM     19  N   UNL     1       3.542   2.274  19.481  0.00  0.00    +0.000 N 
ATOM     20  C   UNL     1       4.714   2.152  20.323  0.00  0.00    +0.000 C 
ENDBRANCH  14  15
ENDBRANCH   2  14
BRANCH   5  21
ATOM     21  S   UNL     1       2.593   8.647  18.049  0.00  0.00    +0.000 S 
BRANCH  21  22
ATOM     22  C   UNL     1       1.026   9.537  18.018  0.00  0.00    +0.000 C 
BRANCH  22  23
ATOM     23  C   UNL     1       1.166  10.909  18.648  0.00  0.00    +0.000 C 
ATOM     24  O   UNL     1       2.079  11.678  18.359  0.00  0.00    +0.000 OA
ATOM     25  N   UNL     1       0.182  11.216  19.564  0.00  0.00    +0.000 N 
ATOM     26  H   UNL     1      -0.535  10.524  19.759  0.00  0.00    +0.000 HD
BRANCH  25  27
ATOM     27  C   UNL     1       0.074  12.537  20.178  0.00  0.00    +0.000 C 
ATOM     28  C   UNL     1      -1.160  13.292  19.673  0.00  0.00    +0.000 C 
ATOM     29  C   UNL     1      -2.474  12.682  20.161  0.00  0.00    +0.000 C 
ATOM     30  C   UNL     1      -2.507  12.454  21.670  0.00  0.00    +0.000 C 
ATOM     31  C   UNL     1      -1.248  11.796  22.228  0.00  0.00    +0.000 C 
ATOM     32  C   UNL     1       0.041  12.429  21.705  0.00  0.00    +0.000 C 
ENDBRANCH  25  27
ENDBRANCH  22  23
ENDBRANCH  21  22
ENDBRANCH   5  21
TORSDOF 8
ENDMDL
MODEL 3
REMARK VINA RESULT:      -7.4      3.050      9.317
REMARK  Name = 
REMARK  10 active torsions:
REMARK  status: ('A' for Active; 'I' for Inactive)
REMARK    1  A    between atoms: C_1  and  O_2
REMARK    2  A    between atoms: O_2  and  C_3
REMARK    3  A    between atoms: C_6  and  N_7
REMARK    4  A    between atoms: C_8  and  C_9
REMARK    5  A    between atoms: C_9  and  C_10
REMARK    6  A    between atoms: N_14  and  C_15
REMARK    7  A    between atoms: C_18  and  S_19
REMARK    8  A    between atoms: S_19  and  C_20
REMARK    9  A    between atoms: C_20  and  C_21
REMARK   10  A    between atoms: N_23  and  C_24
REMARK                            x       y       z     vdW  Elec       q    Type
REMARK                         _______ _______ _______ _____ _____    ______ ____
ROOT
ATOM      1  N   UNL     1       3.070   6.038  19.325  0.00  0.00    +0.000 N 
ATOM      2  C   UNL     1       2.464   5.489  20.461  0.00  0.00    +0.000 A 
ATOM      3  N   UNL     1       1.618   6.364  20.980  0.00  0.00    +0.000 NA
ATOM      4  N   UNL     1       1.585   7.464  20.178  0.00  0.00    +0.000 NA
ATOM      5  C   UNL     1       2.392   7.240  19.166  0.00  0.00    +0.000 A 
ENDROOT
BRANCH   1   9
ATOM      6  C   UNL     1       6.427   4.817  17.021  0.00  0.00    +0.000 A 
ATOM      7  C   UNL     1       5.152   4.798  16.467  0.00  0.00    +0.000 A 
ATOM      8  C   UNL     1       4.036   5.137  17.238  0.00  0.00    +0.000 A 
ATOM      9  C   UNL     1       4.176   5.532  18.572  0.00  0.00    +0.000 A 
ATOM     10  C   UNL     1       5.458   5.500  19.135  0.00  0.00    +0.000 A 
ATOM     11  C   UNL     1       6.575   5.134  18.368  0.00  0.00    +0.000 A 
BRANCH   6  13
ATOM     12  C   UNL     1       7.209   4.758  14.798  0.00  0.00    +0.000 C 
ATOM     13  O   UNL     1       7.442   4.477  16.173  0.00  0.00    +0.000 OA
ENDBRANCH   6  13
ENDBRANCH   1   9
BRANCH   2  14
ATOM     14  C   UNL     1       2.604   4.076  20.962  0.00  0.00    +0.000 C 
BRANCH  14  15
ATOM     15  C   UNL     1       2.787   3.064  19.863  0.00  0.00    +0.000 A 
ATOM     16  C   UNL     1       3.897   2.297  19.547  0.00  0.00    +0.000 A 
ATOM     17  C   UNL     1       3.623   1.599  18.352  0.00  0.00    +0.000 A 
ATOM     18  C   UNL     1       2.330   1.898  17.996  0.00  0.00    +0.000 A 
ATOM     19  N   UNL     1       1.804   2.731  18.952  0.00  0.00    +0.000 N 
ATOM     20  C   UNL     1       0.422   3.161  18.976  0.00  0.00    +0.000 C 
ENDBRANCH  14  15
ENDBRANCH   2  14
BRANCH   5  21
ATOM     21  S   UNL     1       2.573   8.373  17.854  0.00  0.00    +0.000 S 
BRANCH  21  22
ATOM     22  C   UNL     1       1.060   9.347  17.941  0.00  0.00    +0.000 C 
BRANCH  22  23
ATOM     23  C   UNL     1       1.293  10.653  18.675  0.00  0.00    +0.000 C 
ATOM     24  O   UNL     1       2.109  11.489  18.292  0.00  0.00    +0.000 OA
ATOM     25  N   UNL     1       0.513  10.820  19.799  0.00  0.00    +0.000 N 
ATOM     26  H   UNL     1      -0.132  10.080  20.059  0.00  0.00    +0.000 HD
BRANCH  25  27
ATOM     27  C   UNL     1       0.502  12.065  20.562  0.00  0.00    +0.000 C 
ATOM     28  C   UNL     1      -0.342  13.142  19.870  0.00  0.00    +0.000 C 
ATOM     29  C   UNL     1      -1.837  12.828  19.884  0.00  0.00    +0.000 C 
ATOM     30  C   UNL     1      -2.365  12.477  21.273  0.00  0.00    +0.000 C 
ATOM     31  C   UNL     1      -1.493  11.484  22.037  0.00  0.00    +0.000 C 
ATOM     32  C   UNL     1      -0.006  11.829  21.987  0.00  0.00    +0.000 C 
ENDBRANCH  25  27
ENDBRANCH  22  23
ENDBRANCH  21  22
ENDBRANCH   5  21
TORSDOF 8
ENDMDL
MODEL 4
REMARK VINA RESULT:      -7.3      3.013      9.443
REMARK  Name = 
REMARK  10 active torsions:
REMARK  status: ('A' for Active; 'I' for Inactive)
REMARK    1  A    between atoms: C_1  and  O_2
REMARK    2  A    between atoms: O_2  and  C_3
REMARK    3  A    between atoms: C_6  and  N_7
REMARK    4  A    between atoms: C_8  and  C_9
REMARK    5  A    between atoms: C_9  and  C_10
REMARK    6  A    between atoms: N_14  and  C_15
REMARK    7  A    between atoms: C_18  and  S_19
REMARK    8  A    between atoms: S_19  and  C_20
REMARK    9  A    between atoms: C_20  and  C_21
REMARK   10  A    between atoms: N_23  and  C_24
REMARK                            x       y       z     vdW  Elec       q    Type
REMARK                         _______ _______ _______ _____ _____    ______ ____
ROOT
ATOM      1  N   UNL     1       2.827   6.343  19.474  0.00  0.00    +0.000 N 
ATOM      2  C   UNL     1       2.199   5.893  20.642  0.00  0.00    +0.000 A 
ATOM      3  N   UNL     1       1.453   6.862  21.147  0.00  0.00    +0.000 NA
ATOM      4  N   UNL     1       1.506   7.933  20.307  0.00  0.00    +0.000 NA
ATOM      5  C   UNL     1       2.262   7.598  19.287  0.00  0.00    +0.000 A 
ENDROOT
BRANCH   1   9
ATOM      6  C   UNL     1       5.968   4.727  17.110  0.00  0.00    +0.000 A 
ATOM      7  C   UNL     1       4.651   4.661  16.667  0.00  0.00    +0.000 A 
ATOM      8  C   UNL     1       3.606   5.133  17.468  0.00  0.00    +0.000 A 
ATOM      9  C   UNL     1       3.861   5.709  18.716  0.00  0.00    +0.000 A 
ATOM     10  C   UNL     1       5.184   5.725  19.174  0.00  0.00    +0.000 A 
ATOM     11  C   UNL     1       6.229   5.228  18.381  0.00  0.00    +0.000 A 
BRANCH   6  13
ATOM     12  C   UNL     1       6.924   4.863  14.959  0.00  0.00    +0.000 C 
ATOM     13  O   UNL     1       6.905   4.246  16.241  0.00  0.00    +0.000 OA
ENDBRANCH   6  13
ENDBRANCH   1   9
BRANCH   2  14
ATOM     14  C   UNL     1       2.217   4.491  21.189  0.00  0.00    +0.000 C 
BRANCH  14  15
ATOM     15  C   UNL     1       1.878   3.441  20.165  0.00  0.00    +0.000 A 
ATOM     16  C   UNL     1       0.701   3.246  19.458  0.00  0.00    +0.000 A 
ATOM     17  C   UNL     1       0.826   2.051  18.719  0.00  0.00    +0.000 A 
ATOM     18  C   UNL     1       2.097   1.573  18.933  0.00  0.00    +0.000 A 
ATOM     19  N   UNL     1       2.754   2.456  19.754  0.00  0.00    +0.000 N 
ATOM     20  C   UNL     1       4.154   2.344  20.102  0.00  0.00    +0.000 C 
ENDBRANCH  14  15
ENDBRANCH   2  14
BRANCH   5  21
ATOM     21  S   UNL     1       2.518   8.665  17.932  0.00  0.00    +0.000 S 
BRANCH  21  22
ATOM     22  C   UNL     1       1.162   9.843  18.075  0.00  0.00    +0.000 C 
BRANCH  22  23
ATOM     23  C   UNL     1       1.684  11.258  18.238  0.00  0.00    +0.000 C 
ATOM     24  O   UNL     1       2.777  11.612  17.803  0.00  0.00    +0.000 OA
ATOM     25  N   UNL     1       0.828  12.105  18.909  0.00  0.00    +0.000 N 
ATOM     26  H   UNL     1      -0.055  11.736  19.249  0.00  0.00    +0.000 HD
BRANCH  25  27
ATOM     27  C   UNL     1       1.097  13.533  19.050  0.00  0.00    +0.000 C 
ATOM     28  C   UNL     1      -0.168  14.369  18.823  0.00  0.00    +0.000 C 
ATOM     29  C   UNL     1      -1.202  14.200  19.936  0.00  0.00    +0.000 C 
ATOM     30  C   UNL     1      -0.617  14.392  21.334  0.00  0.00    +0.000 C 
ATOM     31  C   UNL     1       0.701  13.657  21.564  0.00  0.00    +0.000 C 
ATOM     32  C   UNL     1       1.699  13.845  20.423  0.00  0.00    +0.000 C 
ENDBRANCH  25  27
ENDBRANCH  22  23
ENDBRANCH  21  22
ENDBRANCH   5  21
TORSDOF 8
ENDMDL
MODEL 5
REMARK VINA RESULT:      -7.3      7.150     10.627
REMARK  Name = 
REMARK  10 active torsions:
REMARK  status: ('A' for Active; 'I' for Inactive)
REMARK    1  A    between atoms: C_1  and  O_2
REMARK    2  A    between atoms: O_2  and  C_3
REMARK    3  A    between atoms: C_6  and  N_7
REMARK    4  A    between atoms: C_8  and  C_9
REMARK    5  A    between atoms: C_9  and  C_10
REMARK    6  A    between atoms: N_14  and  C_15
REMARK    7  A    between atoms: C_18  and  S_19
REMARK    8  A    between atoms: S_19  and  C_20
REMARK    9  A    between atoms: C_20  and  C_21
REMARK   10  A    between atoms: N_23  and  C_24
REMARK                            x       y       z     vdW  Elec       q    Type
REMARK                         _______ _______ _______ _____ _____    ______ ____
ROOT
ATOM      1  N   UNL     1       6.197   5.046  17.490  0.00  0.00    +0.000 N 
ATOM      2  C   UNL     1       5.760   4.265  18.566  0.00  0.00    +0.000 A 
ATOM      3  N   UNL     1       6.191   4.792  19.701  0.00  0.00    +0.000 NA
ATOM      4  N   UNL     1       6.848   5.951  19.420  0.00  0.00    +0.000 NA
ATOM      5  C   UNL     1       6.789   6.133  18.120  0.00  0.00    +0.000 A 
ENDROOT
BRANCH   1   9
ATOM      6  C   UNL     1       6.027   3.888  13.403  0.00  0.00    +0.000 A 
ATOM      7  C   UNL     1       7.228   4.307  13.964  0.00  0.00    +0.000 A 
ATOM      8  C   UNL     1       7.280   4.750  15.290  0.00  0.00    +0.000 A 
ATOM      9  C   UNL     1       6.134   4.754  16.091  0.00  0.00    +0.000 A 
ATOM     10  C   UNL     1       4.919   4.378  15.502  0.00  0.00    +0.000 A 
ATOM     11  C   UNL     1       4.865   3.958  14.165  0.00  0.00    +0.000 A 
BRANCH   6  13
ATOM     12  C   UNL     1       4.858   3.099  11.514  0.00  0.00    +0.000 C 
ATOM     13  O   UNL     1       6.099   3.468  12.106  0.00  0.00    +0.000 OA
ENDBRANCH   6  13
ENDBRANCH   1   9
BRANCH   2  14
ATOM     14  C   UNL     1       4.819   3.092  18.502  0.00  0.00    +0.000 C 
BRANCH  14  15
ATOM     15  C   UNL     1       3.369   3.477  18.627  0.00  0.00    +0.000 A 
ATOM     16  C   UNL     1       2.510   4.000  17.673  0.00  0.00    +0.000 A 
ATOM     17  C   UNL     1       1.291   4.320  18.308  0.00  0.00    +0.000 A 
ATOM     18  C   UNL     1       1.403   3.927  19.620  0.00  0.00    +0.000 A 
ATOM     19  N   UNL     1       2.638   3.352  19.792  0.00  0.00    +0.000 N 
ATOM     20  C   UNL     1       3.066   2.713  21.018  0.00  0.00    +0.000 C 
ENDBRANCH  14  15
ENDBRANCH   2  14
BRANCH   5  21
ATOM     21  S   UNL     1       7.438   7.557  17.353  0.00  0.00    +0.000 S 
BRANCH  21  22
ATOM     22  C   UNL     1       8.531   8.241  18.613  0.00  0.00    +0.000 C 
BRANCH  22  23
ATOM     23  C   UNL     1       8.586   9.754  18.525  0.00  0.00    +0.000 C 
ATOM     24  O   UNL     1       7.893  10.394  17.737  0.00  0.00    +0.000 OA
ATOM     25  N   UNL     1       9.471  10.342  19.402  0.00  0.00    +0.000 N 
ATOM     26  H   UNL     1      10.017   9.746  20.017  0.00  0.00    +0.000 HD
BRANCH  25  27
ATOM     27  C   UNL     1       9.569  11.791  19.556  0.00  0.00    +0.000 C 
ATOM     28  C   UNL     1      10.663  12.177  20.558  0.00  0.00    +0.000 C 
ATOM     29  C   UNL     1      12.073  11.886  20.043  0.00  0.00    +0.000 C 
ATOM     30  C   UNL     1      12.332  12.451  18.648  0.00  0.00    +0.000 C 
ATOM     31  C   UNL     1      11.212  12.176  17.647  0.00  0.00    +0.000 C 
ATOM     32  C   UNL     1       9.822  12.469  18.207  0.00  0.00    +0.000 C 
ENDBRANCH  25  27
ENDBRANCH  22  23
ENDBRANCH  21  22
ENDBRANCH   5  21
TORSDOF 8
ENDMDL
MODEL 6
REMARK VINA RESULT:      -7.2      3.096      9.224
REMARK  Name = 
REMARK  10 active torsions:
REMARK  status: ('A' for Active; 'I' for Inactive)
REMARK    1  A    between atoms: C_1  and  O_2
REMARK    2  A    between atoms: O_2  and  C_3
REMARK    3  A    between atoms: C_6  and  N_7
REMARK    4  A    between atoms: C_8  and  C_9
REMARK    5  A    between atoms: C_9  and  C_10
REMARK    6  A    between atoms: N_14  and  C_15
REMARK    7  A    between atoms: C_18  and  S_19
REMARK    8  A    between atoms: S_19  and  C_20
REMARK    9  A    between atoms: C_20  and  C_21
REMARK   10  A    between atoms: N_23  and  C_24
REMARK                            x       y       z     vdW  Elec       q    Type
REMARK                         _______ _______ _______ _____ _____    ______ ____
ROOT
ATOM      1  N   UNL     1       2.932   6.806  18.957  0.00  0.00    +0.000 N 
ATOM      2  C   UNL     1       2.608   6.115  20.130  0.00  0.00    +0.000 A 
ATOM      3  N   UNL     1       1.761   6.834  20.849  0.00  0.00    +0.000 NA
ATOM      4  N   UNL     1       1.450   7.962  20.153  0.00  0.00    +0.000 NA
ATOM      5  C   UNL     1       2.089   7.909  19.007  0.00  0.00    +0.000 A 
ENDROOT
BRANCH   1   9
ATOM      6  C   UNL     1       6.062   5.719  16.294  0.00  0.00    +0.000 A 
ATOM      7  C   UNL     1       6.147   6.893  17.033  0.00  0.00    +0.000 A 
ATOM      8  C   UNL     1       5.093   7.290  17.863  0.00  0.00    +0.000 A 
ATOM      9  C   UNL     1       3.945   6.503  17.993  0.00  0.00    +0.000 A 
ATOM     10  C   UNL     1       3.848   5.347  17.207  0.00  0.00    +0.000 A 
ATOM     11  C   UNL     1       4.895   4.963  16.355  0.00  0.00    +0.000 A 
BRANCH   6  13
ATOM     12  C   UNL     1       6.903   4.593  14.401  0.00  0.00    +0.000 C 
ATOM     13  O   UNL     1       7.154   5.426  15.527  0.00  0.00    +0.000 OA
ENDBRANCH   6  13
ENDBRANCH   1   9
BRANCH   2  14
ATOM     14  C   UNL     1       3.011   4.709  20.487  0.00  0.00    +0.000 C 
BRANCH  14  15
ATOM     15  C   UNL     1       2.241   3.654  19.738  0.00  0.00    +0.000 A 
ATOM     16  C   UNL     1       0.910   3.641  19.352  0.00  0.00    +0.000 A 
ATOM     17  C   UNL     1       0.625   2.377  18.796  0.00  0.00    +0.000 A 
ATOM     18  C   UNL     1       1.801   1.664  18.789  0.00  0.00    +0.000 A 
ATOM     19  N   UNL     1       2.792   2.467  19.297  0.00  0.00    +0.000 N 
ATOM     20  C   UNL     1       4.191   2.097  19.334  0.00  0.00    +0.000 C 
ENDBRANCH  14  15
ENDBRANCH   2  14
BRANCH   5  21
ATOM     21  S   UNL     1       1.894   9.129  17.778  0.00  0.00    +0.000 S 
BRANCH  21  22
ATOM     22  C   UNL     1       0.315   9.889  18.200  0.00  0.00    +0.000 C 
BRANCH  22  23
ATOM     23  C   UNL     1       0.517  11.154  19.011  0.00  0.00    +0.000 C 
ATOM     24  O   UNL     1       1.566  11.793  18.985  0.00  0.00    +0.000 OA
ATOM     25  N   UNL     1      -0.572  11.522  19.770  0.00  0.00    +0.000 N 
ATOM     26  H   UNL     1      -1.402  10.937  19.748  0.00  0.00    +0.000 HD
BRANCH  25  27
ATOM     27  C   UNL     1      -0.615  12.777  20.515  0.00  0.00    +0.000 C 
ATOM     28  C   UNL     1      -1.989  13.448  20.408  0.00  0.00    +0.000 C 
ATOM     29  C   UNL     1      -3.086  12.683  21.148  0.00  0.00    +0.000 C 
ATOM     30  C   UNL     1      -2.713  12.342  22.589  0.00  0.00    +0.000 C 
ATOM     31  C   UNL     1      -1.308  11.767  22.749  0.00  0.00    +0.000 C 
ATOM     32  C   UNL     1      -0.247  12.555  21.984  0.00  0.00    +0.000 C 
ENDBRANCH  25  27
ENDBRANCH  22  23
ENDBRANCH  21  22
ENDBRANCH   5  21
TORSDOF 8
ENDMDL
MODEL 7
REMARK VINA RESULT:      -7.2      2.556      9.247
REMARK  Name = 
REMARK  10 active torsions:
REMARK  status: ('A' for Active; 'I' for Inactive)
REMARK    1  A    between atoms: C_1  and  O_2
REMARK    2  A    between atoms: O_2  and  C_3
REMARK    3  A    between atoms: C_6  and  N_7
REMARK    4  A    between atoms: C_8  and  C_9
REMARK    5  A    between atoms: C_9  and  C_10
REMARK    6  A    between atoms: N_14  and  C_15
REMARK    7  A    between atoms: C_18  and  S_19
REMARK    8  A    between atoms: S_19  and  C_20
REMARK    9  A    between atoms: C_20  and  C_21
REMARK   10  A    between atoms: N_23  and  C_24
REMARK                            x       y       z     vdW  Elec       q    Type
REMARK                         _______ _______ _______ _____ _____    ______ ____
ROOT
ATOM      1  N   UNL     1       2.732   6.540  19.525  0.00  0.00    +0.000 N 
ATOM      2  C   UNL     1       2.181   5.978  20.682  0.00  0.00    +0.000 A 
ATOM      3  N   UNL     1       1.387   6.859  21.269  0.00  0.00    +0.000 NA
ATOM      4  N   UNL     1       1.333   7.978  20.495  0.00  0.00    +0.000 NA
ATOM      5  C   UNL     1       2.073   7.759  19.433  0.00  0.00    +0.000 A 
ENDROOT
BRANCH   1   9
ATOM      6  C   UNL     1       5.784   4.749  17.169  0.00  0.00    +0.000 A 
ATOM      7  C   UNL     1       6.100   5.371  18.372  0.00  0.00    +0.000 A 
ATOM      8  C   UNL     1       5.112   6.018  19.121  0.00  0.00    +0.000 A 
ATOM      9  C   UNL     1       3.780   6.029  18.696  0.00  0.00    +0.000 A 
ATOM     10  C   UNL     1       3.480   5.443  17.459  0.00  0.00    +0.000 A 
ATOM     11  C   UNL     1       4.477   4.817  16.696  0.00  0.00    +0.000 A 
BRANCH   6  13
ATOM     12  C   UNL     1       6.992   4.496  15.160  0.00  0.00    +0.000 C 
ATOM     13  O   UNL     1       6.826   4.142  16.529  0.00  0.00    +0.000 OA
ENDBRANCH   6  13
ENDBRANCH   1   9
BRANCH   2  14
ATOM     14  C   UNL     1       2.318   4.551  21.142  0.00  0.00    +0.000 C 
BRANCH  14  15
ATOM     15  C   UNL     1       1.940   3.541  20.092  0.00  0.00    +0.000 A 
ATOM     16  C   UNL     1       0.731   3.358  19.439  0.00  0.00    +0.000 A 
ATOM     17  C   UNL     1       0.833   2.199  18.642  0.00  0.00    +0.000 A 
ATOM     18  C   UNL     1       2.120   1.732  18.768  0.00  0.00    +0.000 A 
ATOM     19  N   UNL     1       2.807   2.589  19.593  0.00  0.00    +0.000 N 
ATOM     20  C   UNL     1       4.225   2.484  19.863  0.00  0.00    +0.000 C 
ENDBRANCH  14  15
ENDBRANCH   2  14
BRANCH   5  21
ATOM     21  S   UNL     1       2.203   8.919  18.138  0.00  0.00    +0.000 S 
BRANCH  21  22
ATOM     22  C   UNL     1       0.517   9.533  17.965  0.00  0.00    +0.000 C 
BRANCH  22  23
ATOM     23  C   UNL     1       0.188  10.536  19.053  0.00  0.00    +0.000 C 
ATOM     24  O   UNL     1      -0.758  10.388  19.823  0.00  0.00    +0.000 OA
ATOM     25  N   UNL     1       1.040  11.619  19.103  0.00  0.00    +0.000 N 
ATOM     26  H   UNL     1       1.794  11.677  18.426  0.00  0.00    +0.000 HD
BRANCH  25  27
ATOM     27  C   UNL     1       0.963  12.623  20.161  0.00  0.00    +0.000 C 
ATOM     28  C   UNL     1       2.318  13.300  20.393  0.00  0.00    +0.000 C 
ATOM     29  C   UNL     1       2.744  14.196  19.231  0.00  0.00    +0.000 C 
ATOM     30  C   UNL     1       1.662  15.187  18.807  0.00  0.00    +0.000 C 
ATOM     31  C   UNL     1       0.273  14.568  18.666  0.00  0.00    +0.000 C 
ATOM     32  C   UNL     1      -0.106  13.672  19.843  0.00  0.00    +0.000 C 
ENDBRANCH  25  27
ENDBRANCH  22  23
ENDBRANCH  21  22
ENDBRANCH   5  21
TORSDOF 8
ENDMDL
MODEL 8
REMARK VINA RESULT:      -7.2      2.865      9.404
REMARK  Name = 
REMARK  10 active torsions:
REMARK  status: ('A' for Active; 'I' for Inactive)
REMARK    1  A    between atoms: C_1  and  O_2
REMARK    2  A    between atoms: O_2  and  C_3
REMARK    3  A    between atoms: C_6  and  N_7
REMARK    4  A    between atoms: C_8  and  C_9
REMARK    5  A    between atoms: C_9  and  C_10
REMARK    6  A    between atoms: N_14  and  C_15
REMARK    7  A    between atoms: C_18  and  S_19
REMARK    8  A    between atoms: S_19  and  C_20
REMARK    9  A    between atoms: C_20  and  C_21
REMARK   10  A    between atoms: N_23  and  C_24
REMARK                            x       y       z     vdW  Elec       q    Type
REMARK                         _______ _______ _______ _____ _____    ______ ____
ROOT
ATOM      1  N   UNL     1       3.091   5.988  19.252  0.00  0.00    +0.000 N 
ATOM      2  C   UNL     1       2.546   5.434  20.415  0.00  0.00    +0.000 A 
ATOM      3  N   UNL     1       1.667   6.274  20.938  0.00  0.00    +0.000 NA
ATOM      4  N   UNL     1       1.553   7.352  20.114  0.00  0.00    +0.000 NA
ATOM      5  C   UNL     1       2.344   7.148  19.085  0.00  0.00    +0.000 A 
ENDROOT
BRANCH   1   9
ATOM      6  C   UNL     1       6.449   4.899  16.884  0.00  0.00    +0.000 A 
ATOM      7  C   UNL     1       5.164   4.804  16.364  0.00  0.00    +0.000 A 
ATOM      8  C   UNL     1       4.050   5.099  17.157  0.00  0.00    +0.000 A 
ATOM      9  C   UNL     1       4.203   5.526  18.479  0.00  0.00    +0.000 A 
ATOM     10  C   UNL     1       5.499   5.571  19.010  0.00  0.00    +0.000 A 
ATOM     11  C   UNL     1       6.614   5.249  18.221  0.00  0.00    +0.000 A 
BRANCH   6  13
ATOM     12  C   UNL     1       7.130   4.699  14.636  0.00  0.00    +0.000 C 
ATOM     13  O   UNL     1       7.460   4.596  16.016  0.00  0.00    +0.000 OA
ENDBRANCH   6  13
ENDBRANCH   1   9
BRANCH   2  14
ATOM     14  C   UNL     1       2.776   4.043  20.943  0.00  0.00    +0.000 C 
BRANCH  14  15
ATOM     15  C   UNL     1       2.920   3.005  19.861  0.00  0.00    +0.000 A 
ATOM     16  C   UNL     1       4.021   2.236  19.517  0.00  0.00    +0.000 A 
ATOM     17  C   UNL     1       3.702   1.510  18.351  0.00  0.00    +0.000 A 
ATOM     18  C   UNL     1       2.393   1.795  18.042  0.00  0.00    +0.000 A 
ATOM     19  N   UNL     1       1.902   2.647  18.999  0.00  0.00    +0.000 N 
ATOM     20  C   UNL     1       0.520   3.071  19.069  0.00  0.00    +0.000 C 
ENDBRANCH  14  15
ENDBRANCH   2  14
BRANCH   5  21
ATOM     21  S   UNL     1       2.428   8.258  17.744  0.00  0.00    +0.000 S 
BRANCH  21  22
ATOM     22  C   UNL     1       2.187   9.864  18.526  0.00  0.00    +0.000 C 
BRANCH  22  23
ATOM     23  C   UNL     1       0.714  10.210  18.618  0.00  0.00    +0.000 C 
ATOM     24  O   UNL     1      -0.123   9.743  17.848  0.00  0.00    +0.000 OA
ATOM     25  N   UNL     1       0.398  11.085  19.635  0.00  0.00    +0.000 N 
ATOM     26  H   UNL     1       1.146  11.438  20.224  0.00  0.00    +0.000 HD
BRANCH  25  27
ATOM     27  C   UNL     1      -0.981  11.435  19.962  0.00  0.00    +0.000 C 
ATOM     28  C   UNL     1      -1.180  11.583  21.475  0.00  0.00    +0.000 C 
ATOM     29  C   UNL     1      -0.470  12.807  22.053  0.00  0.00    +0.000 C 
ATOM     30  C   UNL     1      -0.779  14.096  21.295  0.00  0.00    +0.000 C 
ATOM     31  C   UNL     1      -0.693  13.960  19.776  0.00  0.00    +0.000 C 
ATOM     32  C   UNL     1      -1.406  12.719  19.244  0.00  0.00    +0.000 C 
ENDBRANCH  25  27
ENDBRANCH  22  23
ENDBRANCH  21  22
ENDBRANCH   5  21
TORSDOF 8
ENDMDL
MODEL 9
REMARK VINA RESULT:      -7.2      2.789      3.925
REMARK  Name = 
REMARK  10 active torsions:
REMARK  status: ('A' for Active; 'I' for Inactive)
REMARK    1  A    between atoms: C_1  and  O_2
REMARK    2  A    between atoms: O_2  and  C_3
REMARK    3  A    between atoms: C_6  and  N_7
REMARK    4  A    between atoms: C_8  and  C_9
REMARK    5  A    between atoms: C_9  and  C_10
REMARK    6  A    between atoms: N_14  and  C_15
REMARK    7  A    between atoms: C_18  and  S_19
REMARK    8  A    between atoms: S_19  and  C_20
REMARK    9  A    between atoms: C_20  and  C_21
REMARK   10  A    between atoms: N_23  and  C_24
REMARK                            x       y       z     vdW  Elec       q    Type
REMARK                         _______ _______ _______ _____ _____    ______ ____
ROOT
ATOM      1  N   UNL     1       0.532  12.429  19.999  0.00  0.00    +0.000 N 
ATOM      2  C   UNL     1       1.423  13.506  19.945  0.00  0.00    +0.000 A 
ATOM      3  N   UNL     1       2.404  13.229  19.102  0.00  0.00    +0.000 NA
ATOM      4  N   UNL     1       2.157  12.019  18.530  0.00  0.00    +0.000 NA
ATOM      5  C   UNL     1       1.016  11.580  19.011  0.00  0.00    +0.000 A 
ENDROOT
BRANCH   1   9
ATOM      6  C   UNL     1      -2.616  12.040  22.829  0.00  0.00    +0.000 A 
ATOM      7  C   UNL     1      -1.408  11.382  23.029  0.00  0.00    +0.000 A 
ATOM      8  C   UNL     1      -0.391  11.454  22.072  0.00  0.00    +0.000 A 
ATOM      9  C   UNL     1      -0.551  12.211  20.908  0.00  0.00    +0.000 A 
ATOM     10  C   UNL     1      -1.790  12.828  20.691  0.00  0.00    +0.000 A 
ATOM     11  C   UNL     1      -2.819  12.735  21.640  0.00  0.00    +0.000 A 
BRANCH   6  13
ATOM     12  C   UNL     1      -3.948  13.125  24.444  0.00  0.00    +0.000 C 
ATOM     13  O   UNL     1      -3.532  11.908  23.834  0.00  0.00    +0.000 OA
ENDBRANCH   6  13
ENDBRANCH   1   9
BRANCH   2  14
ATOM     14  C   UNL     1       1.252  14.849  20.605  0.00  0.00    +0.000 C 
BRANCH  14  15
ATOM     15  C   UNL     1       0.720  15.910  19.679  0.00  0.00    +0.000 A 
ATOM     16  C   UNL     1      -0.391  15.881  18.850  0.00  0.00    +0.000 A 
ATOM     17  C   UNL     1      -0.396  17.063  18.079  0.00  0.00    +0.000 A 
ATOM     18  C   UNL     1       0.672  17.822  18.497  0.00  0.00    +0.000 A 
ATOM     19  N   UNL     1       1.304  17.151  19.514  0.00  0.00    +0.000 N 
ATOM     20  C   UNL     1       2.402  17.698  20.282  0.00  0.00    +0.000 C 
ENDBRANCH  14  15
ENDBRANCH   2  14
BRANCH   5  21
ATOM     21  S   UNL     1       0.290  10.092  18.467  0.00  0.00    +0.000 S 
BRANCH  21  22
ATOM     22  C   UNL     1       1.705   9.124  17.911  0.00  0.00    +0.000 C 
BRANCH  22  23
ATOM     23  C   UNL     1       2.063   8.052  18.922  0.00  0.00    +0.000 C 
ATOM     24  O   UNL     1       1.781   8.149  20.114  0.00  0.00    +0.000 OA
ATOM     25  N   UNL     1       2.725   6.967  18.388  0.00  0.00    +0.000 N 
ATOM     26  H   UNL     1       2.933   6.964  17.394  0.00  0.00    +0.000 HD
BRANCH  25  27
ATOM     27  C   UNL     1       3.038   5.779  19.178  0.00  0.00    +0.000 C 
ATOM     28  C   UNL     1       1.912   4.742  19.103  0.00  0.00    +0.000 C 
ATOM     29  C   UNL     1       1.787   4.097  17.723  0.00  0.00    +0.000 C 
ATOM     30  C   UNL     1       3.113   3.560  17.188  0.00  0.00    +0.000 C 
ATOM     31  C   UNL     1       4.283   4.528  17.341  0.00  0.00    +0.000 C 
ATOM     32  C   UNL     1       4.363   5.157  18.730  0.00  0.00    +0.000 C 
ENDBRANCH  25  27
ENDBRANCH  22  23
ENDBRANCH  21  22
ENDBRANCH   5  21
TORSDOF 8
ENDMDL
