MODEL 1
REMARK VINA RESULT:      -7.5      0.000      0.000
REMARK  Name = 
REMARK  12 active torsions:
REMARK  status: ('A' for Active; 'I' for Inactive)
REMARK    1  A    between atoms: C_1  and  O_2
REMARK    2  A    between atoms: O_2  and  C_3
REMARK    3  A    between atoms: C_8  and  O_9
REMARK    4  A    between atoms: O_9  and  C_10
REMARK    5  A    between atoms: C_10  and  C_11
REMARK    6  A    between atoms: C_11  and  N_12
REMARK    7  A    between atoms: N_12  and  C_13
REMARK    8  A    between atoms: C_13  and  C_14
REMARK    9  A    between atoms: C_14  and  O_15
REMARK   10  A    between atoms: C_14  and  C_16
REMARK   11  A    between atoms: C_16  and  O_17
REMARK   12  A    between atoms: O_17  and  C_18
REMARK                            x       y       z     vdW  Elec       q    Type
REMARK                         _______ _______ _______ _____ _____    ______ ____
ROOT
ATOM      1  C   UNL     1       7.172   5.964  16.518  0.00  0.00    +0.000 C 
ENDROOT
BRANCH   1   2
ATOM      2  O   UNL     1       7.505   4.755  15.844  0.00  0.00    +0.000 OA
ATOM      3  H   UNL     1       7.082   4.798  14.968  0.00  0.00    +0.000 HD
ENDBRANCH   1   2
BRANCH   1   4
ATOM      4  C   UNL     1       7.605   5.900  18.008  0.00  0.00    +0.000 C 
BRANCH   4   5
ATOM      5  N   UNL     1       7.992   7.205  18.598  0.00  0.00    +0.000 NA
ATOM      6  H   UNL     1       7.267   7.534  19.237  0.00  0.00    +0.000 HD
BRANCH   5   7
ATOM      7  C   UNL     1       8.158   8.264  17.570  0.00  0.00    +0.000 C 
BRANCH   7   8
ATOM      8  C   UNL     1       8.231   9.662  18.198  0.00  0.00    +0.000 C 
BRANCH   8   9
ATOM      9  O   UNL     1       9.227   9.810  19.198  0.00  0.00    +0.000 OA
BRANCH   9  15
ATOM     10  C   UNL     1      10.296  11.884  20.172  0.00  0.00    +0.000 A 
ATOM     11  C   UNL     1      11.111  12.984  19.897  0.00  0.00    +0.000 A 
ATOM     12  C   UNL     1      11.488  13.279  18.583  0.00  0.00    +0.000 A 
ATOM     13  C   UNL     1      11.077  12.455  17.551  0.00  0.00    +0.000 A 
ATOM     14  C   UNL     1      10.328  11.309  17.817  0.00  0.00    +0.000 A 
ATOM     15  C   UNL     1       9.943  10.997  19.125  0.00  0.00    +0.000 A 
BRANCH  10  17
ATOM     16  C   UNL     1       8.676  12.295  21.869  0.00  0.00    +0.000 C 
ATOM     17  O   UNL     1       9.896  11.649  21.465  0.00  0.00    +0.000 OA
ENDBRANCH  10  17
ENDBRANCH   9  15
ENDBRANCH   8   9
ENDBRANCH   7   8
ENDBRANCH   5   7
ENDBRANCH   4   5
ENDBRANCH   1   4
BRANCH   1  18
ATOM     18  C   UNL     1       5.670   6.270  16.437  0.00  0.00    +0.000 C 
BRANCH  18  19
ATOM     19  O   UNL     1       5.076   6.590  17.708  0.00  0.00    +0.000 OA
BRANCH  19  20
ATOM     20  C   UNL     1       4.021   5.747  17.976  0.00  0.00    +0.000 A 
ATOM     21  C   UNL     1       3.592   4.879  16.970  0.00  0.00    +0.000 A 
ATOM     22  C   UNL     1       2.633   3.889  17.253  0.00  0.00    +0.000 A 
ATOM     23  C   UNL     1       2.108   3.769  18.546  0.00  0.00    +0.000 A 
ATOM     24  C   UNL     1       2.449   4.738  19.485  0.00  0.00    +0.000 A 
ATOM     25  C   UNL     1       3.384   5.721  19.215  0.00  0.00    +0.000 A 
ATOM     26  N   UNL     1       1.890   4.695  20.778  0.00  0.00    +0.000 N 
ATOM     27  C   UNL     1       1.839   3.429  21.322  0.00  0.00    +0.000 C 
ATOM     28  O   UNL     1       2.250   3.186  22.453  0.00  0.00    +0.000 OA
ATOM     29  C   UNL     1       1.133   2.397  20.469  0.00  0.00    +0.000 C 
ATOM     30  C   UNL     1       1.197   2.645  18.953  0.00  0.00    +0.000 C 
ATOM     31  H   UNL     1       0.926   5.004  20.677  0.00  0.00    +0.000 HD
ENDBRANCH  19  20
ENDBRANCH  18  19
ENDBRANCH   1  18
TORSDOF 11
ENDMDL
MODEL 2
REMARK VINA RESULT:      -7.4      4.331      7.401
REMARK  Name = 
REMARK  12 active torsions:
REMARK  status: ('A' for Active; 'I' for Inactive)
REMARK    1  A    between atoms: C_1  and  O_2
REMARK    2  A    between atoms: O_2  and  C_3
REMARK    3  A    between atoms: C_8  and  O_9
REMARK    4  A    between atoms: O_9  and  C_10
REMARK    5  A    between atoms: C_10  and  C_11
REMARK    6  A    between atoms: C_11  and  N_12
REMARK    7  A    between atoms: N_12  and  C_13
REMARK    8  A    between atoms: C_13  and  C_14
REMARK    9  A    between atoms: C_14  and  O_15
REMARK   10  A    between atoms: C_14  and  C_16
REMARK   11  A    between atoms: C_16  and  O_17
REMARK   12  A    between atoms: O_17  and  C_18
REMARK                            x       y       z     vdW  Elec       q    Type
REMARK                         _______ _______ _______ _____ _____    ______ ____
ROOT
ATOM      1  C   UNL     1       1.117   4.202  19.691  0.00  0.00    +0.000 C 
ENDROOT
BRANCH   1   2
ATOM      2  O   UNL     1       0.463   3.222  20.491  0.00  0.00    +0.000 OA
ATOM      3  H   UNL     1      -0.357   2.984  20.025  0.00  0.00    +0.000 HD
ENDBRANCH   1   2
BRANCH   1   4
ATOM      4  C   UNL     1       1.541   3.600  18.323  0.00  0.00    +0.000 C 
BRANCH   4   5
ATOM      5  N   UNL     1       2.109   2.232  18.397  0.00  0.00    +0.000 NA
ATOM      6  H   UNL     1       2.200   1.938  19.370  0.00  0.00    +0.000 HD
BRANCH   5   7
ATOM      7  C   UNL     1       3.470   2.153  17.806  0.00  0.00    +0.000 C 
BRANCH   7   8
ATOM      8  C   UNL     1       3.953   3.519  17.301  0.00  0.00    +0.000 C 
BRANCH   8   9
ATOM      9  O   UNL     1       5.264   3.519  16.756  0.00  0.00    +0.000 OA
BRANCH   9  15
ATOM     10  C   UNL     1       6.496   5.690  16.354  0.00  0.00    +0.000 A 
ATOM     11  C   UNL     1       7.197   6.733  16.961  0.00  0.00    +0.000 A 
ATOM     12  C   UNL     1       7.554   6.659  18.311  0.00  0.00    +0.000 A 
ATOM     13  C   UNL     1       7.181   5.557  19.058  0.00  0.00    +0.000 A 
ATOM     14  C   UNL     1       6.413   4.542  18.487  0.00  0.00    +0.000 A 
ATOM     15  C   UNL     1       6.045   4.600  17.139  0.00  0.00    +0.000 A 
BRANCH  10  17
ATOM     16  C   UNL     1       6.898   4.827  14.170  0.00  0.00    +0.000 C 
ATOM     17  O   UNL     1       6.205   5.765  15.013  0.00  0.00    +0.000 OA
ENDBRANCH  10  17
ENDBRANCH   9  15
ENDBRANCH   8   9
ENDBRANCH   7   8
ENDBRANCH   5   7
ENDBRANCH   4   5
ENDBRANCH   1   4
BRANCH   1  18
ATOM     18  C   UNL     1       2.349   4.787  20.394  0.00  0.00    +0.000 C 
BRANCH  18  19
ATOM     19  O   UNL     1       2.971   5.864  19.670  0.00  0.00    +0.000 OA
BRANCH  19  20
ATOM     20  C   UNL     1       2.210   7.009  19.757  0.00  0.00    +0.000 A 
ATOM     21  C   UNL     1       1.466   7.225  20.918  0.00  0.00    +0.000 A 
ATOM     22  C   UNL     1       0.812   8.454  21.119  0.00  0.00    +0.000 A 
ATOM     23  C   UNL     1       0.907   9.466  20.155  0.00  0.00    +0.000 A 
ATOM     24  C   UNL     1       1.534   9.168  18.949  0.00  0.00    +0.000 A 
ATOM     25  C   UNL     1       2.174   7.958  18.738  0.00  0.00    +0.000 A 
ATOM     26  N   UNL     1       1.593  10.134  17.925  0.00  0.00    +0.000 N 
ATOM     27  C   UNL     1       1.890  11.404  18.373  0.00  0.00    +0.000 C 
ATOM     28  O   UNL     1       2.767  12.090  17.857  0.00  0.00    +0.000 OA
ATOM     29  C   UNL     1       0.977  11.925  19.461  0.00  0.00    +0.000 C 
ATOM     30  C   UNL     1       0.360  10.850  20.371  0.00  0.00    +0.000 C 
ATOM     31  H   UNL     1       0.657  10.179  17.530  0.00  0.00    +0.000 HD
ENDBRANCH  19  20
ENDBRANCH  18  19
ENDBRANCH   1  18
TORSDOF 11
ENDMDL
MODEL 3
REMARK VINA RESULT:      -7.3      4.492      7.711
REMARK  Name = 
REMARK  12 active torsions:
REMARK  status: ('A' for Active; 'I' for Inactive)
REMARK    1  A    between atoms: C_1  and  O_2
REMARK    2  A    between atoms: O_2  and  C_3
REMARK    3  A    between atoms: C_8  and  O_9
REMARK    4  A    between atoms: O_9  and  C_10
REMARK    5  A    between atoms: C_10  and  C_11
REMARK    6  A    between atoms: C_11  and  N_12
REMARK    7  A    between atoms: N_12  and  C_13
REMARK    8  A    between atoms: C_13  and  C_14
REMARK    9  A    between atoms: C_14  and  O_15
REMARK   10  A    between atoms: C_14  and  C_16
REMARK   11  A    between atoms: C_16  and  O_17
REMARK   12  A    between atoms: O_17  and  C_18
REMARK                            x       y       z     vdW  Elec       q    Type
REMARK                         _______ _______ _______ _____ _____    ______ ____
ROOT
ATOM      1  C   UNL     1       1.447   2.710  20.499  0.00  0.00    +0.000 C 
ENDROOT
BRANCH   1   2
ATOM      2  O   UNL     1       0.300   3.247  19.848  0.00  0.00    +0.000 OA
ATOM      3  H   UNL     1      -0.445   2.660  20.067  0.00  0.00    +0.000 HD
ENDBRANCH   1   2
BRANCH   1   4
ATOM      4  C   UNL     1       2.045   3.739  21.496  0.00  0.00    +0.000 C 
BRANCH   4   5
ATOM      5  N   UNL     1       2.490   5.013  20.881  0.00  0.00    +0.000 NA
ATOM      6  H   UNL     1       3.372   5.317  21.294  0.00  0.00    +0.000 HD
BRANCH   5   7
ATOM      7  C   UNL     1       1.520   6.117  21.103  0.00  0.00    +0.000 C 
BRANCH   7   8
ATOM      8  C   UNL     1       1.782   7.303  20.166  0.00  0.00    +0.000 C 
BRANCH   8   9
ATOM      9  O   UNL     1       1.875   8.561  20.816  0.00  0.00    +0.000 OA
BRANCH   9  15
ATOM     10  C   UNL     1       0.170  10.400  21.142  0.00  0.00    +0.000 A 
ATOM     11  C   UNL     1      -0.627  11.345  20.493  0.00  0.00    +0.000 A 
ATOM     12  C   UNL     1      -0.741  11.343  19.100  0.00  0.00    +0.000 A 
ATOM     13  C   UNL     1      -0.033  10.417  18.356  0.00  0.00    +0.000 A 
ATOM     14  C   UNL     1       0.829   9.516  18.984  0.00  0.00    +0.000 A 
ATOM     15  C   UNL     1       0.957   9.505  20.376  0.00  0.00    +0.000 A 
BRANCH  10  17
ATOM     16  C   UNL     1      -1.039  10.566  23.189  0.00  0.00    +0.000 C 
ATOM     17  O   UNL     1       0.220  10.391  22.516  0.00  0.00    +0.000 OA
ENDBRANCH  10  17
ENDBRANCH   9  15
ENDBRANCH   8   9
ENDBRANCH   7   8
ENDBRANCH   5   7
ENDBRANCH   4   5
ENDBRANCH   1   4
BRANCH   1  18
ATOM     18  C   UNL     1       2.528   2.284  19.496  0.00  0.00    +0.000 C 
BRANCH  18  19
ATOM     19  O   UNL     1       2.215   2.619  18.132  0.00  0.00    +0.000 OA
BRANCH  19  20
ATOM     20  C   UNL     1       3.072   3.589  17.662  0.00  0.00    +0.000 A 
ATOM     21  C   UNL     1       2.643   4.918  17.677  0.00  0.00    +0.000 A 
ATOM     22  C   UNL     1       3.543   5.953  17.365  0.00  0.00    +0.000 A 
ATOM     23  C   UNL     1       4.873   5.654  17.041  0.00  0.00    +0.000 A 
ATOM     24  C   UNL     1       5.228   4.317  16.895  0.00  0.00    +0.000 A 
ATOM     25  C   UNL     1       4.348   3.290  17.191  0.00  0.00    +0.000 A 
ATOM     26  N   UNL     1       6.537   3.973  16.503  0.00  0.00    +0.000 N 
ATOM     27  C   UNL     1       7.519   4.713  17.127  0.00  0.00    +0.000 C 
ATOM     28  O   UNL     1       8.492   4.190  17.662  0.00  0.00    +0.000 OA
ATOM     29  C   UNL     1       7.367   6.213  16.993  0.00  0.00    +0.000 C 
ATOM     30  C   UNL     1       5.920   6.714  16.844  0.00  0.00    +0.000 C 
ATOM     31  H   UNL     1       6.598   4.190  15.511  0.00  0.00    +0.000 HD
ENDBRANCH  19  20
ENDBRANCH  18  19
ENDBRANCH   1  18
TORSDOF 11
ENDMDL
MODEL 4
REMARK VINA RESULT:      -7.3      4.208      8.071
REMARK  Name = 
REMARK  12 active torsions:
REMARK  status: ('A' for Active; 'I' for Inactive)
REMARK    1  A    between atoms: C_1  and  O_2
REMARK    2  A    between atoms: O_2  and  C_3
REMARK    3  A    between atoms: C_8  and  O_9
REMARK    4  A    between atoms: O_9  and  C_10
REMARK    5  A    between atoms: C_10  and  C_11
REMARK    6  A    between atoms: C_11  and  N_12
REMARK    7  A    between atoms: N_12  and  C_13
REMARK    8  A    between atoms: C_13  and  C_14
REMARK    9  A    between atoms: C_14  and  O_15
REMARK   10  A    between atoms: C_14  and  C_16
REMARK   11  A    between atoms: C_16  and  O_17
REMARK   12  A    between atoms: O_17  and  C_18
REMARK                            x       y       z     vdW  Elec       q    Type
REMARK                         _______ _______ _______ _____ _____    ______ ____
ROOT
ATOM      1  C   UNL     1       2.137   3.046  21.075  0.00  0.00    +0.000 C 
ENDROOT
BRANCH   1   2
ATOM      2  O   UNL     1       0.739   2.772  21.088  0.00  0.00    +0.000 OA
ATOM      3  H   UNL     1       0.413   2.947  20.188  0.00  0.00    +0.000 HD
ENDBRANCH   1   2
BRANCH   1   4
ATOM      4  C   UNL     1       2.402   4.560  21.299  0.00  0.00    +0.000 C 
BRANCH   4   5
ATOM      5  N   UNL     1       1.341   5.459  20.784  0.00  0.00    +0.000 NA
ATOM      6  H   UNL     1       0.953   5.088  19.915  0.00  0.00    +0.000 HD
BRANCH   5   7
ATOM      7  C   UNL     1       1.854   6.817  20.468  0.00  0.00    +0.000 C 
BRANCH   7   8
ATOM      8  C   UNL     1       1.359   7.862  21.476  0.00  0.00    +0.000 C 
BRANCH   8   9
ATOM      9  O   UNL     1      -0.034   8.127  21.418  0.00  0.00    +0.000 OA
BRANCH   9  15
ATOM     10  C   UNL     1      -0.407  10.420  20.421  0.00  0.00    +0.000 A 
ATOM     11  C   UNL     1      -0.866  11.714  20.676  0.00  0.00    +0.000 A 
ATOM     12  C   UNL     1      -1.178  12.114  21.979  0.00  0.00    +0.000 A 
ATOM     13  C   UNL     1      -1.062  11.211  23.019  0.00  0.00    +0.000 A 
ATOM     14  C   UNL     1      -0.681   9.892  22.771  0.00  0.00    +0.000 A 
ATOM     15  C   UNL     1      -0.366   9.473  21.474  0.00  0.00    +0.000 A 
BRANCH  10  17
ATOM     16  C   UNL     1       1.224  10.549  18.690  0.00  0.00    +0.000 C 
ATOM     17  O   UNL     1      -0.056  10.071  19.139  0.00  0.00    +0.000 OA
ENDBRANCH  10  17
ENDBRANCH   9  15
ENDBRANCH   8   9
ENDBRANCH   7   8
ENDBRANCH   5   7
ENDBRANCH   4   5
ENDBRANCH   1   4
BRANCH   1  18
ATOM     18  C   UNL     1       2.795   2.603  19.761  0.00  0.00    +0.000 C 
BRANCH  18  19
ATOM     19  O   UNL     1       2.402   3.392  18.624  0.00  0.00    +0.000 OA
BRANCH  19  20
ATOM     20  C   UNL     1       3.457   4.159  18.179  0.00  0.00    +0.000 A 
ATOM     21  C   UNL     1       3.176   5.318  17.454  0.00  0.00    +0.000 A 
ATOM     22  C   UNL     1       4.209   6.214  17.127  0.00  0.00    +0.000 A 
ATOM     23  C   UNL     1       5.524   5.948  17.530  0.00  0.00    +0.000 A 
ATOM     24  C   UNL     1       5.792   4.717  18.124  0.00  0.00    +0.000 A 
ATOM     25  C   UNL     1       4.783   3.825  18.443  0.00  0.00    +0.000 A 
ATOM     26  N   UNL     1       7.111   4.379  18.484  0.00  0.00    +0.000 N 
ATOM     27  C   UNL     1       7.811   5.411  19.072  0.00  0.00    +0.000 C 
ATOM     28  O   UNL     1       8.431   5.266  20.122  0.00  0.00    +0.000 OA
ATOM     29  C   UNL     1       7.856   6.691  18.266  0.00  0.00    +0.000 C 
ATOM     30  C   UNL     1       6.647   6.929  17.346  0.00  0.00    +0.000 C 
ATOM     31  H   UNL     1       7.592   4.164  17.613  0.00  0.00    +0.000 HD
ENDBRANCH  19  20
ENDBRANCH  18  19
ENDBRANCH   1  18
TORSDOF 11
ENDMDL
MODEL 5
REMARK VINA RESULT:      -7.2      5.307      7.936
REMARK  Name = 
REMARK  12 active torsions:
REMARK  status: ('A' for Active; 'I' for Inactive)
REMARK    1  A    between atoms: C_1  and  O_2
REMARK    2  A    between atoms: O_2  and  C_3
REMARK    3  A    between atoms: C_8  and  O_9
REMARK    4  A    between atoms: O_9  and  C_10
REMARK    5  A    between atoms: C_10  and  C_11
REMARK    6  A    between atoms: C_11  and  N_12
REMARK    7  A    between atoms: N_12  and  C_13
REMARK    8  A    between atoms: C_13  and  C_14
REMARK    9  A    between atoms: C_14  and  O_15
REMARK   10  A    between atoms: C_14  and  C_16
REMARK   11  A    between atoms: C_16  and  O_17
REMARK   12  A    between atoms: O_17  and  C_18
REMARK                            x       y       z     vdW  Elec       q    Type
REMARK                         _______ _______ _______ _____ _____    ______ ____
ROOT
ATOM      1  C   UNL     1       4.478   2.488  19.736  0.00  0.00    +0.000 C 
ENDROOT
BRANCH   1   2
ATOM      2  O   UNL     1       5.343   1.495  20.277  0.00  0.00    +0.000 OA
ATOM      3  H   UNL     1       5.243   0.704  19.718  0.00  0.00    +0.000 HD
ENDBRANCH   1   2
BRANCH   1   4
ATOM      4  C   UNL     1       3.313   1.831  18.946  0.00  0.00    +0.000 C 
BRANCH   4   5
ATOM      5  N   UNL     1       2.003   2.512  19.089  0.00  0.00    +0.000 NA
ATOM      6  H   UNL     1       1.944   3.304  18.448  0.00  0.00    +0.000 HD
BRANCH   5   7
ATOM      7  C   UNL     1       1.798   3.061  20.454  0.00  0.00    +0.000 C 
BRANCH   7   8
ATOM      8  C   UNL     1       1.238   4.489  20.416  0.00  0.00    +0.000 C 
BRANCH   8   9
ATOM      9  O   UNL     1       2.185   5.504  20.713  0.00  0.00    +0.000 OA
BRANCH   9  15
ATOM     10  C   UNL     1       1.582   7.935  20.368  0.00  0.00    +0.000 A 
ATOM     11  C   UNL     1       1.609   9.000  19.466  0.00  0.00    +0.000 A 
ATOM     12  C   UNL     1       1.983   8.795  18.135  0.00  0.00    +0.000 A 
ATOM     13  C   UNL     1       2.359   7.532  17.715  0.00  0.00    +0.000 A 
ATOM     14  C   UNL     1       2.412   6.473  18.622  0.00  0.00    +0.000 A 
ATOM     15  C   UNL     1       2.044   6.659  19.958  0.00  0.00    +0.000 A 
BRANCH  10  17
ATOM     16  C   UNL     1       0.486   9.404  21.890  0.00  0.00    +0.000 C 
ATOM     17  O   UNL     1       1.159   8.154  21.657  0.00  0.00    +0.000 OA
ENDBRANCH  10  17
ENDBRANCH   9  15
ENDBRANCH   8   9
ENDBRANCH   7   8
ENDBRANCH   5   7
ENDBRANCH   4   5
ENDBRANCH   1   4
BRANCH   1  18
ATOM     18  C   UNL     1       5.228   3.464  18.819  0.00  0.00    +0.000 C 
BRANCH  18  19
ATOM     19  O   UNL     1       4.385   4.102  17.842  0.00  0.00    +0.000 OA
BRANCH  19  20
ATOM     20  C   UNL     1       5.117   4.459  16.731  0.00  0.00    +0.000 A 
ATOM     21  C   UNL     1       6.340   5.105  16.920  0.00  0.00    +0.000 A 
ATOM     22  C   UNL     1       7.194   5.336  15.826  0.00  0.00    +0.000 A 
ATOM     23  C   UNL     1       6.820   4.916  14.543  0.00  0.00    +0.000 A 
ATOM     24  C   UNL     1       5.537   4.407  14.367  0.00  0.00    +0.000 A 
ATOM     25  C   UNL     1       4.686   4.183  15.435  0.00  0.00    +0.000 A 
ATOM     26  N   UNL     1       5.095   4.035  13.081  0.00  0.00    +0.000 N 
ATOM     27  C   UNL     1       6.038   3.353  12.342  0.00  0.00    +0.000 C 
ATOM     28  O   UNL     1       5.781   2.299  11.767  0.00  0.00    +0.000 OA
ATOM     29  C   UNL     1       7.367   4.061  12.197  0.00  0.00    +0.000 C 
ATOM     30  C   UNL     1       7.743   4.995  13.360  0.00  0.00    +0.000 C 
ATOM     31  H   UNL     1       4.915   4.905  12.586  0.00  0.00    +0.000 HD
ENDBRANCH  19  20
ENDBRANCH  18  19
ENDBRANCH   1  18
TORSDOF 11
ENDMDL
MODEL 6
REMARK VINA RESULT:      -7.1      4.082      6.806
REMARK  Name = 
REMARK  12 active torsions:
REMARK  status: ('A' for Active; 'I' for Inactive)
REMARK    1  A    between atoms: C_1  and  O_2
REMARK    2  A    between atoms: O_2  and  C_3
REMARK    3  A    between atoms: C_8  and  O_9
REMARK    4  A    between atoms: O_9  and  C_10
REMARK    5  A    between atoms: C_10  and  C_11
REMARK    6  A    between atoms: C_11  and  N_12
REMARK    7  A    between atoms: N_12  and  C_13
REMARK    8  A    between atoms: C_13  and  C_14
REMARK    9  A    between atoms: C_14  and  O_15
REMARK   10  A    between atoms: C_14  and  C_16
REMARK   11  A    between atoms: C_16  and  O_17
REMARK   12  A    between atoms: O_17  and  C_18
REMARK                            x       y       z     vdW  Elec       q    Type
REMARK                         _______ _______ _______ _____ _____    ______ ____
ROOT
ATOM      1  C   UNL     1       1.148   2.974  20.216  0.00  0.00    +0.000 C 
ENDROOT
BRANCH   1   2
ATOM      2  O   UNL     1       1.379   2.306  21.453  0.00  0.00    +0.000 OA
ATOM      3  H   UNL     1       0.750   2.681  22.093  0.00  0.00    +0.000 HD
ENDBRANCH   1   2
BRANCH   1   4
ATOM      4  C   UNL     1       2.339   2.757  19.243  0.00  0.00    +0.000 C 
BRANCH   4   5
ATOM      5  N   UNL     1       3.437   1.918  19.783  0.00  0.00    +0.000 NA
ATOM      6  H   UNL     1       3.193   1.570  20.711  0.00  0.00    +0.000 HD
BRANCH   5   7
ATOM      7  C   UNL     1       4.704   2.678  19.940  0.00  0.00    +0.000 C 
BRANCH   7   8
ATOM      8  C   UNL     1       4.882   3.725  18.834  0.00  0.00    +0.000 C 
BRANCH   8   9
ATOM      9  O   UNL     1       6.209   3.853  18.347  0.00  0.00    +0.000 OA
BRANCH   9  15
ATOM     10  C   UNL     1       6.053   6.020  17.055  0.00  0.00    +0.000 A 
ATOM     11  C   UNL     1       6.513   7.336  16.973  0.00  0.00    +0.000 A 
ATOM     12  C   UNL     1       7.570   7.770  17.779  0.00  0.00    +0.000 A 
ATOM     13  C   UNL     1       8.142   6.898  18.687  0.00  0.00    +0.000 A 
ATOM     14  C   UNL     1       7.643   5.604  18.836  0.00  0.00    +0.000 A 
ATOM     15  C   UNL     1       6.586   5.152  18.040  0.00  0.00    +0.000 A 
BRANCH  10  17
ATOM     16  C   UNL     1       5.476   5.082  14.942  0.00  0.00    +0.000 C 
ATOM     17  O   UNL     1       5.049   5.605  16.212  0.00  0.00    +0.000 OA
ENDBRANCH  10  17
ENDBRANCH   9  15
ENDBRANCH   8   9
ENDBRANCH   7   8
ENDBRANCH   5   7
ENDBRANCH   4   5
ENDBRANCH   1   4
BRANCH   1  18
ATOM     18  C   UNL     1       0.919   4.479  20.413  0.00  0.00    +0.000 C 
BRANCH  18  19
ATOM     19  O   UNL     1       2.122   5.212  20.709  0.00  0.00    +0.000 OA
BRANCH  19  20
ATOM     20  C   UNL     1       2.096   6.449  20.103  0.00  0.00    +0.000 A 
ATOM     21  C   UNL     1       2.509   6.547  18.773  0.00  0.00    +0.000 A 
ATOM     22  C   UNL     1       2.341   7.752  18.068  0.00  0.00    +0.000 A 
ATOM     23  C   UNL     1       1.756   8.858  18.697  0.00  0.00    +0.000 A 
ATOM     24  C   UNL     1       1.489   8.773  20.061  0.00  0.00    +0.000 A 
ATOM     25  C   UNL     1       1.658   7.594  20.766  0.00  0.00    +0.000 A 
ATOM     26  N   UNL     1       0.963   9.884  20.749  0.00  0.00    +0.000 N 
ATOM     27  C   UNL     1      -0.027  10.551  20.059  0.00  0.00    +0.000 C 
ATOM     28  O   UNL     1      -1.102  10.842  20.576  0.00  0.00    +0.000 OA
ATOM     29  C   UNL     1       0.358  10.998  18.665  0.00  0.00    +0.000 C 
ATOM     30  C   UNL     1       1.412  10.124  17.964  0.00  0.00    +0.000 C 
ATOM     31  H   UNL     1       1.735  10.540  20.850  0.00  0.00    +0.000 HD
ENDBRANCH  19  20
ENDBRANCH  18  19
ENDBRANCH   1  18
TORSDOF 11
ENDMDL
MODEL 7
REMARK VINA RESULT:      -7.1      2.258     10.105
REMARK  Name = 
REMARK  12 active torsions:
REMARK  status: ('A' for Active; 'I' for Inactive)
REMARK    1  A    between atoms: C_1  and  O_2
REMARK    2  A    between atoms: O_2  and  C_3
REMARK    3  A    between atoms: C_8  and  O_9
REMARK    4  A    between atoms: O_9  and  C_10
REMARK    5  A    between atoms: C_10  and  C_11
REMARK    6  A    between atoms: C_11  and  N_12
REMARK    7  A    between atoms: N_12  and  C_13
REMARK    8  A    between atoms: C_13  and  C_14
REMARK    9  A    between atoms: C_14  and  O_15
REMARK   10  A    between atoms: C_14  and  C_16
REMARK   11  A    between atoms: C_16  and  O_17
REMARK   12  A    between atoms: O_17  and  C_18
REMARK                            x       y       z     vdW  Elec       q    Type
REMARK                         _______ _______ _______ _____ _____    ______ ____
ROOT
ATOM      1  C   UNL     1       7.555   7.418  17.345  0.00  0.00    +0.000 C 
ENDROOT
BRANCH   1   2
ATOM      2  O   UNL     1       6.318   7.284  16.651  0.00  0.00    +0.000 OA
ATOM      3  H   UNL     1       6.488   7.546  15.729  0.00  0.00    +0.000 HD
ENDBRANCH   1   2
BRANCH   1   4
ATOM      4  C   UNL     1       7.669   6.355  18.472  0.00  0.00    +0.000 C 
BRANCH   4   5
ATOM      5  N   UNL     1       7.515   4.951  18.019  0.00  0.00    +0.000 NA
ATOM      6  H   UNL     1       7.619   4.893  17.005  0.00  0.00    +0.000 HD
BRANCH   5   7
ATOM      7  C   UNL     1       6.173   4.399  18.336  0.00  0.00    +0.000 C 
BRANCH   7   8
ATOM      8  C   UNL     1       5.351   4.134  17.068  0.00  0.00    +0.000 C 
BRANCH   8   9
ATOM      9  O   UNL     1       4.153   4.889  16.972  0.00  0.00    +0.000 OA
BRANCH   9  15
ATOM     10  C   UNL     1       2.585   5.181  18.934  0.00  0.00    +0.000 A 
ATOM     11  C   UNL     1       1.504   4.628  19.622  0.00  0.00    +0.000 A 
ATOM     12  C   UNL     1       1.043   3.345  19.310  0.00  0.00    +0.000 A 
ATOM     13  C   UNL     1       1.644   2.631  18.289  0.00  0.00    +0.000 A 
ATOM     14  C   UNL     1       2.674   3.200  17.540  0.00  0.00    +0.000 A 
ATOM     15  C   UNL     1       3.147   4.482  17.837  0.00  0.00    +0.000 A 
BRANCH  10  17
ATOM     16  C   UNL     1       2.479   7.536  18.593  0.00  0.00    +0.000 C 
ATOM     17  O   UNL     1       3.052   6.421  19.298  0.00  0.00    +0.000 OA
ENDBRANCH  10  17
ENDBRANCH   9  15
ENDBRANCH   8   9
ENDBRANCH   7   8
ENDBRANCH   5   7
ENDBRANCH   4   5
ENDBRANCH   1   4
BRANCH   1  18
ATOM     18  C   UNL     1       7.724   8.819  17.948  0.00  0.00    +0.000 C 
BRANCH  18  19
ATOM     19  O   UNL     1       9.054   9.083  18.432  0.00  0.00    +0.000 OA
BRANCH  19  20
ATOM     20  C   UNL     1       9.156  10.380  18.884  0.00  0.00    +0.000 A 
ATOM     21  C   UNL     1       9.343  10.594  20.251  0.00  0.00    +0.000 A 
ATOM     22  C   UNL     1       9.620  11.886  20.731  0.00  0.00    +0.000 A 
ATOM     23  C   UNL     1       9.712  12.963  19.840  0.00  0.00    +0.000 A 
ATOM     24  C   UNL     1       9.379  12.741  18.507  0.00  0.00    +0.000 A 
ATOM     25  C   UNL     1       9.097  11.475  18.025  0.00  0.00    +0.000 A 
ATOM     26  N   UNL     1       9.391  13.810  17.589  0.00  0.00    +0.000 N 
ATOM     27  C   UNL     1      10.474  14.653  17.728  0.00  0.00    +0.000 C 
ATOM     28  O   UNL     1      11.168  14.988  16.773  0.00  0.00    +0.000 OA
ATOM     29  C   UNL     1      10.662  15.223  19.117  0.00  0.00    +0.000 C 
ATOM     30  C   UNL     1      10.150  14.337  20.265  0.00  0.00    +0.000 C 
ATOM     31  H   UNL     1       8.565  14.366  17.795  0.00  0.00    +0.000 HD
ENDBRANCH  19  20
ENDBRANCH  18  19
ENDBRANCH   1  18
TORSDOF 11
ENDMDL
MODEL 8
REMARK VINA RESULT:      -7.1      4.652      7.105
REMARK  Name = 
REMARK  12 active torsions:
REMARK  status: ('A' for Active; 'I' for Inactive)
REMARK    1  A    between atoms: C_1  and  O_2
REMARK    2  A    between atoms: O_2  and  C_3
REMARK    3  A    between atoms: C_8  and  O_9
REMARK    4  A    between atoms: O_9  and  C_10
REMARK    5  A    between atoms: C_10  and  C_11
REMARK    6  A    between atoms: C_11  and  N_12
REMARK    7  A    between atoms: N_12  and  C_13
REMARK    8  A    between atoms: C_13  and  C_14
REMARK    9  A    between atoms: C_14  and  O_15
REMARK   10  A    between atoms: C_14  and  C_16
REMARK   11  A    between atoms: C_16  and  O_17
REMARK   12  A    between atoms: O_17  and  C_18
REMARK                            x       y       z     vdW  Elec       q    Type
REMARK                         _______ _______ _______ _____ _____    ______ ____
ROOT
ATOM      1  C   UNL     1       1.142   3.193  20.790  0.00  0.00    +0.000 C 
ENDROOT
BRANCH   1   2
ATOM      2  O   UNL     1       0.900   2.614  22.068  0.00  0.00    +0.000 OA
ATOM      3  H   UNL     1       1.002   3.329  22.721  0.00  0.00    +0.000 HD
ENDBRANCH   1   2
BRANCH   1   4
ATOM      4  C   UNL     1       2.120   2.313  19.964  0.00  0.00    +0.000 C 
BRANCH   4   5
ATOM      5  N   UNL     1       1.671   2.017  18.582  0.00  0.00    +0.000 NA
ATOM      6  H   UNL     1       1.659   1.009  18.422  0.00  0.00    +0.000 HD
BRANCH   5   7
ATOM      7  C   UNL     1       2.579   2.593  17.557  0.00  0.00    +0.000 C 
BRANCH   7   8
ATOM      8  C   UNL     1       3.993   2.818  18.109  0.00  0.00    +0.000 C 
BRANCH   8   9
ATOM      9  O   UNL     1       5.005   2.924  17.119  0.00  0.00    +0.000 OA
BRANCH   9  15
ATOM     10  C   UNL     1       6.316   5.012  17.681  0.00  0.00    +0.000 A 
ATOM     11  C   UNL     1       6.719   6.265  17.217  0.00  0.00    +0.000 A 
ATOM     12  C   UNL     1       6.190   6.789  16.033  0.00  0.00    +0.000 A 
ATOM     13  C   UNL     1       5.283   6.045  15.300  0.00  0.00    +0.000 A 
ATOM     14  C   UNL     1       4.929   4.759  15.709  0.00  0.00    +0.000 A 
ATOM     15  C   UNL     1       5.449   4.218  16.889  0.00  0.00    +0.000 A 
BRANCH  10  17
ATOM     16  C   UNL     1       7.537   5.500  19.667  0.00  0.00    +0.000 C 
ATOM     17  O   UNL     1       6.810   4.545  18.875  0.00  0.00    +0.000 OA
ENDBRANCH  10  17
ENDBRANCH   9  15
ENDBRANCH   8   9
ENDBRANCH   7   8
ENDBRANCH   5   7
ENDBRANCH   4   5
ENDBRANCH   1   4
BRANCH   1  18
ATOM     18  C   UNL     1       1.709   4.615  20.903  0.00  0.00    +0.000 C 
BRANCH  18  19
ATOM     19  O   UNL     1       2.678   4.933  19.888  0.00  0.00    +0.000 OA
BRANCH  19  20
ATOM     20  C   UNL     1       2.541   6.241  19.480  0.00  0.00    +0.000 A 
ATOM     21  C   UNL     1       2.927   6.577  18.181  0.00  0.00    +0.000 A 
ATOM     22  C   UNL     1       2.650   7.857  17.671  0.00  0.00    +0.000 A 
ATOM     23  C   UNL     1       1.983   8.800  18.463  0.00  0.00    +0.000 A 
ATOM     24  C   UNL     1       1.741   8.484  19.796  0.00  0.00    +0.000 A 
ATOM     25  C   UNL     1       2.018   7.229  20.311  0.00  0.00    +0.000 A 
ATOM     26  N   UNL     1       1.134   9.428  20.647  0.00  0.00    +0.000 N 
ATOM     27  C   UNL     1       0.082  10.106  20.068  0.00  0.00    +0.000 C 
ATOM     28  O   UNL     1      -1.006  10.222  20.624  0.00  0.00    +0.000 OA
ATOM     29  C   UNL     1       0.410  10.793  18.761  0.00  0.00    +0.000 C 
ATOM     30  C   UNL     1       1.524  10.130  17.933  0.00  0.00    +0.000 C 
ATOM     31  H   UNL     1       1.848  10.123  20.849  0.00  0.00    +0.000 HD
ENDBRANCH  19  20
ENDBRANCH  18  19
ENDBRANCH   1  18
TORSDOF 11
ENDMDL
MODEL 9
REMARK VINA RESULT:      -7.1      1.989      2.181
REMARK  Name = 
REMARK  12 active torsions:
REMARK  status: ('A' for Active; 'I' for Inactive)
REMARK    1  A    between atoms: C_1  and  O_2
REMARK    2  A    between atoms: O_2  and  C_3
REMARK    3  A    between atoms: C_8  and  O_9
REMARK    4  A    between atoms: O_9  and  C_10
REMARK    5  A    between atoms: C_10  and  C_11
REMARK    6  A    between atoms: C_11  and  N_12
REMARK    7  A    between atoms: N_12  and  C_13
REMARK    8  A    between atoms: C_13  and  C_14
REMARK    9  A    between atoms: C_14  and  O_15
REMARK   10  A    between atoms: C_14  and  C_16
REMARK   11  A    between atoms: C_16  and  O_17
REMARK   12  A    between atoms: O_17  and  C_18
REMARK                            x       y       z     vdW  Elec       q    Type
REMARK                         _______ _______ _______ _____ _____    ______ ____
ROOT
ATOM      1  C   UNL     1       7.044   6.388  17.473  0.00  0.00    +0.000 C 
ENDROOT
BRANCH   1   2
ATOM      2  O   UNL     1       6.998   6.769  16.101  0.00  0.00    +0.000 OA
ATOM      3  H   UNL     1       6.948   5.945  15.585  0.00  0.00    +0.000 HD
ENDBRANCH   1   2
BRANCH   1   4
ATOM      4  C   UNL     1       8.057   7.269  18.254  0.00  0.00    +0.000 C 
BRANCH   4   5
ATOM      5  N   UNL     1       8.080   8.696  17.849  0.00  0.00    +0.000 NA
ATOM      6  H   UNL     1       8.592   8.808  16.974  0.00  0.00    +0.000 HD
BRANCH   5   7
ATOM      7  C   UNL     1       8.763   9.556  18.849  0.00  0.00    +0.000 C 
BRANCH   7   8
ATOM      8  C   UNL     1       9.437  10.768  18.193  0.00  0.00    +0.000 C 
BRANCH   8   9
ATOM      9  O   UNL     1       8.569  11.862  17.938  0.00  0.00    +0.000 OA
BRANCH   9  15
ATOM     10  C   UNL     1       8.733  14.369  18.220  0.00  0.00    +0.000 A 
ATOM     11  C   UNL     1       9.580  15.475  18.123  0.00  0.00    +0.000 A 
ATOM     12  C   UNL     1      10.848  15.351  17.548  0.00  0.00    +0.000 A 
ATOM     13  C   UNL     1      11.280  14.116  17.102  0.00  0.00    +0.000 A 
ATOM     14  C   UNL     1      10.478  12.986  17.263  0.00  0.00    +0.000 A 
ATOM     15  C   UNL     1       9.208  13.090  17.837  0.00  0.00    +0.000 A 
BRANCH  10  17
ATOM     16  C   UNL     1       7.405  15.131  20.045  0.00  0.00    +0.000 C 
ATOM     17  O   UNL     1       7.471  14.531  18.740  0.00  0.00    +0.000 OA
ENDBRANCH  10  17
ENDBRANCH   9  15
ENDBRANCH   8   9
ENDBRANCH   7   8
ENDBRANCH   5   7
ENDBRANCH   4   5
ENDBRANCH   1   4
BRANCH   1  18
ATOM     18  C   UNL     1       7.418   4.909  17.644  0.00  0.00    +0.000 C 
BRANCH  18  19
ATOM     19  O   UNL     1       6.836   4.298  18.810  0.00  0.00    +0.000 OA
BRANCH  19  20
ATOM     20  C   UNL     1       5.466   4.229  18.688  0.00  0.00    +0.000 A 
ATOM     21  C   UNL     1       4.925   3.900  17.444  0.00  0.00    +0.000 A 
ATOM     22  C   UNL     1       3.546   3.654  17.317  0.00  0.00    +0.000 A 
ATOM     23  C   UNL     1       2.711   3.736  18.438  0.00  0.00    +0.000 A 
ATOM     24  C   UNL     1       3.257   4.205  19.630  0.00  0.00    +0.000 A 
ATOM     25  C   UNL     1       4.611   4.458  19.764  0.00  0.00    +0.000 A 
ATOM     26  N   UNL     1       2.438   4.368  20.765  0.00  0.00    +0.000 N 
ATOM     27  C   UNL     1       1.548   3.335  20.965  0.00  0.00    +0.000 C 
ATOM     28  O   UNL     1       1.426   2.778  22.052  0.00  0.00    +0.000 OA
ATOM     29  C   UNL     1       0.657   3.025  19.782  0.00  0.00    +0.000 C 
ATOM     30  C   UNL     1       1.261   3.343  18.404  0.00  0.00    +0.000 C 
ATOM     31  H   UNL     1       1.879   5.200  20.590  0.00  0.00    +0.000 HD
ENDBRANCH  19  20
ENDBRANCH  18  19
ENDBRANCH   1  18
TORSDOF 11
ENDMDL
