MODEL 1
REMARK VINA RESULT:      -8.8      0.000      0.000
REMARK  Name = 
REMARK  6 active torsions:
REMARK  status: ('A' for Active; 'I' for Inactive)
REMARK    1  A    between atoms: C_2  and  C_3
REMARK    2  A    between atoms: C_3  and  O_4
REMARK    3  A    between atoms: O_4  and  C_5
REMARK    4  A    between atoms: C_5  and  C_7
REMARK    5  A    between atoms: C_12  and  N_13
REMARK    6  A    between atoms: N_13  and  C_14
REMARK                            x       y       z     vdW  Elec       q    Type
REMARK                         _______ _______ _______ _____ _____    ______ ____
ROOT
ATOM      1  C   UNL     1       6.400   5.622  17.252  0.00  0.00    +0.000 A 
ATOM      2  C   UNL     1       7.307   6.708  17.341  0.00  0.00    +0.000 A 
ATOM      3  C   UNL     1       8.063   6.923  18.480  0.00  0.00    +0.000 A 
ATOM      4  C   UNL     1       7.889   6.041  19.512  0.00  0.00    +0.000 A 
ATOM      5  N   UNL     1       7.037   4.986  19.465  0.00  0.00    +0.000 NA
ATOM      6  C   UNL     1       6.299   4.736  18.348  0.00  0.00    +0.000 A 
ENDROOT
BRANCH   1   7
ATOM      7  C   UNL     1       5.631   5.614  15.975  0.00  0.00    +0.000 C 
ATOM      8  O   UNL     1       5.176   6.663  15.502  0.00  0.00    +0.000 OA
BRANCH   7   9
ATOM      9  O   UNL     1       5.375   4.388  15.477  0.00  0.00    +0.000 OA
BRANCH   9  10
ATOM     10  C   UNL     1       6.268   3.994  14.427  0.00  0.00    +0.000 C 
BRANCH  10  12
ATOM     11  C   UNL     1       6.167   3.078  12.058  0.00  0.00    +0.000 C 
ATOM     12  C   UNL     1       5.627   3.742  13.091  0.00  0.00    +0.000 C 
ENDBRANCH  10  12
ENDBRANCH   9  10
ENDBRANCH   7   9
ENDBRANCH   1   7
BRANCH   6  13
ATOM     13  N   UNL     1       5.567   3.539  18.333  0.00  0.00    +0.000 N 
ATOM     14  H   UNL     1       5.910   2.850  17.675  0.00  0.00    +0.000 HD
BRANCH  13  15
ATOM     15  C   UNL     1       4.117   3.491  18.675  0.00  0.00    +0.000 C 
ATOM     16  C   UNL     1       3.247   2.697  17.657  0.00  0.00    +0.000 C 
ATOM     17  C   UNL     1       1.747   2.813  18.013  0.00  0.00    +0.000 C 
ATOM     18  C   UNL     1       1.515   2.112  19.364  0.00  0.00    +0.000 C 
ATOM     19  C   UNL     1       2.375   2.792  20.444  0.00  0.00    +0.000 C 
ATOM     20  C   UNL     1       1.888   4.248  20.572  0.00  0.00    +0.000 C 
ATOM     21  C   UNL     1       2.131   4.983  19.252  0.00  0.00    +0.000 C 
ATOM     22  C   UNL     1       1.344   4.294  18.128  0.00  0.00    +0.000 C 
ATOM     23  C   UNL     1       3.625   4.936  18.950  0.00  0.00    +0.000 C 
ATOM     24  C   UNL     1       3.884   2.749  20.036  0.00  0.00    +0.000 C 
ENDBRANCH  13  15
ENDBRANCH   6  13
TORSDOF 6
ENDMDL
MODEL 2
REMARK VINA RESULT:      -8.8      0.146      1.589
REMARK  Name = 
REMARK  6 active torsions:
REMARK  status: ('A' for Active; 'I' for Inactive)
REMARK    1  A    between atoms: C_2  and  C_3
REMARK    2  A    between atoms: C_3  and  O_4
REMARK    3  A    between atoms: O_4  and  C_5
REMARK    4  A    between atoms: C_5  and  C_7
REMARK    5  A    between atoms: C_12  and  N_13
REMARK    6  A    between atoms: N_13  and  C_14
REMARK                            x       y       z     vdW  Elec       q    Type
REMARK                         _______ _______ _______ _____ _____    ______ ____
ROOT
ATOM      1  C   UNL     1       6.480   5.593  17.298  0.00  0.00    +0.000 A 
ATOM      2  C   UNL     1       7.391   6.675  17.401  0.00  0.00    +0.000 A 
ATOM      3  C   UNL     1       8.093   6.917  18.569  0.00  0.00    +0.000 A 
ATOM      4  C   UNL     1       7.861   6.067  19.616  0.00  0.00    +0.000 A 
ATOM      5  N   UNL     1       7.003   5.018  19.557  0.00  0.00    +0.000 NA
ATOM      6  C   UNL     1       6.318   4.741  18.414  0.00  0.00    +0.000 A 
ENDROOT
BRANCH   1   7
ATOM      7  C   UNL     1       5.775   5.554  15.987  0.00  0.00    +0.000 C 
ATOM      8  O   UNL     1       5.299   6.584  15.490  0.00  0.00    +0.000 OA
BRANCH   7   9
ATOM      9  O   UNL     1       5.594   4.320  15.479  0.00  0.00    +0.000 OA
BRANCH   9  10
ATOM     10  C   UNL     1       6.390   4.052  14.316  0.00  0.00    +0.000 C 
BRANCH  10  12
ATOM     11  C   UNL     1       6.067   2.996  12.027  0.00  0.00    +0.000 C 
ATOM     12  C   UNL     1       5.623   3.716  13.069  0.00  0.00    +0.000 C 
ENDBRANCH  10  12
ENDBRANCH   9  10
ENDBRANCH   7   9
ENDBRANCH   1   7
BRANCH   6  13
ATOM     13  N   UNL     1       5.577   3.550  18.397  0.00  0.00    +0.000 N 
ATOM     14  H   UNL     1       5.894   2.872  17.713  0.00  0.00    +0.000 HD
BRANCH  13  15
ATOM     15  C   UNL     1       4.138   3.504  18.784  0.00  0.00    +0.000 C 
ATOM     16  C   UNL     1       3.873   2.887  20.188  0.00  0.00    +0.000 C 
ATOM     17  C   UNL     1       2.355   2.753  20.448  0.00  0.00    +0.000 C 
ATOM     18  C   UNL     1       1.750   4.168  20.516  0.00  0.00    +0.000 C 
ATOM     19  C   UNL     1       2.001   4.892  19.182  0.00  0.00    +0.000 C 
ATOM     20  C   UNL     1       1.259   4.108  18.084  0.00  0.00    +0.000 C 
ATOM     21  C   UNL     1       1.858   2.703  17.970  0.00  0.00    +0.000 C 
ATOM     22  C   UNL     1       1.690   1.965  19.306  0.00  0.00    +0.000 C 
ATOM     23  C   UNL     1       3.337   2.843  17.630  0.00  0.00    +0.000 C 
ATOM     24  C   UNL     1       3.535   4.947  18.881  0.00  0.00    +0.000 C 
ENDBRANCH  13  15
ENDBRANCH   6  13
TORSDOF 6
ENDMDL
MODEL 3
REMARK VINA RESULT:      -8.8      0.460      1.702
REMARK  Name = 
REMARK  6 active torsions:
REMARK  status: ('A' for Active; 'I' for Inactive)
REMARK    1  A    between atoms: C_2  and  C_3
REMARK    2  A    between atoms: C_3  and  O_4
REMARK    3  A    between atoms: O_4  and  C_5
REMARK    4  A    between atoms: C_5  and  C_7
REMARK    5  A    between atoms: C_12  and  N_13
REMARK    6  A    between atoms: N_13  and  C_14
REMARK                            x       y       z     vdW  Elec       q    Type
REMARK                         _______ _______ _______ _____ _____    ______ ____
ROOT
ATOM      1  C   UNL     1       6.361   5.712  17.239  0.00  0.00    +0.000 A 
ATOM      2  C   UNL     1       7.308   6.768  17.274  0.00  0.00    +0.000 A 
ATOM      3  C   UNL     1       8.108   6.982  18.382  0.00  0.00    +0.000 A 
ATOM      4  C   UNL     1       7.938   6.130  19.440  0.00  0.00    +0.000 A 
ATOM      5  N   UNL     1       7.049   5.106  19.446  0.00  0.00    +0.000 NA
ATOM      6  C   UNL     1       6.266   4.857  18.360  0.00  0.00    +0.000 A 
ENDROOT
BRANCH   1   7
ATOM      7  C   UNL     1       5.552   5.702  15.989  0.00  0.00    +0.000 C 
ATOM      8  O   UNL     1       5.125   6.757  15.500  0.00  0.00    +0.000 OA
BRANCH   7   9
ATOM      9  O   UNL     1       5.229   4.476  15.534  0.00  0.00    +0.000 OA
BRANCH   9  10
ATOM     10  C   UNL     1       6.292   3.825  14.825  0.00  0.00    +0.000 C 
BRANCH  10  12
ATOM     11  C   UNL     1       5.881   3.299  12.373  0.00  0.00    +0.000 C 
ATOM     12  C   UNL     1       6.347   4.094  13.348  0.00  0.00    +0.000 C 
ENDBRANCH  10  12
ENDBRANCH   9  10
ENDBRANCH   7   9
ENDBRANCH   1   7
BRANCH   6  13
ATOM     13  N   UNL     1       5.494   3.686  18.396  0.00  0.00    +0.000 N 
ATOM     14  H   UNL     1       5.709   3.021  17.662  0.00  0.00    +0.000 HD
BRANCH  13  15
ATOM     15  C   UNL     1       4.108   3.665  18.947  0.00  0.00    +0.000 C 
ATOM     16  C   UNL     1       3.583   5.056  19.407  0.00  0.00    +0.000 C 
ATOM     17  C   UNL     1       2.201   4.921  20.086  0.00  0.00    +0.000 C 
ATOM     18  C   UNL     1       1.188   4.444  19.029  0.00  0.00    +0.000 C 
ATOM     19  C   UNL     1       1.641   3.086  18.466  0.00  0.00    +0.000 C 
ATOM     20  C   UNL     1       1.628   2.076  19.628  0.00  0.00    +0.000 C 
ATOM     21  C   UNL     1       2.649   2.506  20.686  0.00  0.00    +0.000 C 
ATOM     22  C   UNL     1       2.272   3.892  21.229  0.00  0.00    +0.000 C 
ATOM     23  C   UNL     1       4.023   2.556  20.028  0.00  0.00    +0.000 C 
ATOM     24  C   UNL     1       3.077   3.209  17.858  0.00  0.00    +0.000 C 
ENDBRANCH  13  15
ENDBRANCH   6  13
TORSDOF 6
ENDMDL
MODEL 4
REMARK VINA RESULT:      -8.4      1.979      3.958
REMARK  Name = 
REMARK  6 active torsions:
REMARK  status: ('A' for Active; 'I' for Inactive)
REMARK    1  A    between atoms: C_2  and  C_3
REMARK    2  A    between atoms: C_3  and  O_4
REMARK    3  A    between atoms: O_4  and  C_5
REMARK    4  A    between atoms: C_5  and  C_7
REMARK    5  A    between atoms: C_12  and  N_13
REMARK    6  A    between atoms: N_13  and  C_14
REMARK                            x       y       z     vdW  Elec       q    Type
REMARK                         _______ _______ _______ _____ _____    ______ ____
ROOT
ATOM      1  C   UNL     1       6.531   5.320  17.456  0.00  0.00    +0.000 A 
ATOM      2  C   UNL     1       7.427   5.005  16.402  0.00  0.00    +0.000 A 
ATOM      3  C   UNL     1       6.975   4.470  15.209  0.00  0.00    +0.000 A 
ATOM      4  C   UNL     1       5.627   4.256  15.099  0.00  0.00    +0.000 A 
ATOM      5  N   UNL     1       4.737   4.549  16.080  0.00  0.00    +0.000 NA
ATOM      6  C   UNL     1       5.150   5.099  17.255  0.00  0.00    +0.000 A 
ENDROOT
BRANCH   1   7
ATOM      7  C   UNL     1       7.227   5.814  18.677  0.00  0.00    +0.000 C 
ATOM      8  O   UNL     1       6.923   5.385  19.799  0.00  0.00    +0.000 OA
BRANCH   7   9
ATOM      9  O   UNL     1       8.088   6.828  18.466  0.00  0.00    +0.000 OA
BRANCH   9  10
ATOM     10  C   UNL     1       7.517   7.929  17.747  0.00  0.00    +0.000 C 
BRANCH  10  12
ATOM     11  C   UNL     1       8.963   9.647  18.939  0.00  0.00    +0.000 C 
ATOM     12  C   UNL     1       8.241   9.239  17.884  0.00  0.00    +0.000 C 
ENDBRANCH  10  12
ENDBRANCH   9  10
ENDBRANCH   7   9
ENDBRANCH   1   7
BRANCH   6  13
ATOM     13  N   UNL     1       4.146   5.512  18.143  0.00  0.00    +0.000 N 
ATOM     14  H   UNL     1       4.310   6.419  18.564  0.00  0.00    +0.000 HD
BRANCH  13  15
ATOM     15  C   UNL     1       3.324   4.540  18.920  0.00  0.00    +0.000 C 
ATOM     16  C   UNL     1       4.088   3.252  19.343  0.00  0.00    +0.000 C 
ATOM     17  C   UNL     1       3.128   2.245  20.020  0.00  0.00    +0.000 C 
ATOM     18  C   UNL     1       2.632   2.864  21.340  0.00  0.00    +0.000 C 
ATOM     19  C   UNL     1       1.898   4.182  21.039  0.00  0.00    +0.000 C 
ATOM     20  C   UNL     1       0.666   3.840  20.181  0.00  0.00    +0.000 C 
ATOM     21  C   UNL     1       1.127   3.249  18.845  0.00  0.00    +0.000 C 
ATOM     22  C   UNL     1       1.925   1.962  19.102  0.00  0.00    +0.000 C 
ATOM     23  C   UNL     1       2.004   4.280  18.146  0.00  0.00    +0.000 C 
ATOM     24  C   UNL     1       2.847   5.164  20.276  0.00  0.00    +0.000 C 
ENDBRANCH  13  15
ENDBRANCH   6  13
TORSDOF 6
ENDMDL
MODEL 5
REMARK VINA RESULT:      -8.2      1.958      3.823
REMARK  Name = 
REMARK  6 active torsions:
REMARK  status: ('A' for Active; 'I' for Inactive)
REMARK    1  A    between atoms: C_2  and  C_3
REMARK    2  A    between atoms: C_3  and  O_4
REMARK    3  A    between atoms: O_4  and  C_5
REMARK    4  A    between atoms: C_5  and  C_7
REMARK    5  A    between atoms: C_12  and  N_13
REMARK    6  A    between atoms: N_13  and  C_14
REMARK                            x       y       z     vdW  Elec       q    Type
REMARK                         _______ _______ _______ _____ _____    ______ ____
ROOT
ATOM      1  C   UNL     1       6.508   5.320  17.440  0.00  0.00    +0.000 A 
ATOM      2  C   UNL     1       7.445   4.996  16.425  0.00  0.00    +0.000 A 
ATOM      3  C   UNL     1       7.038   4.480  15.208  0.00  0.00    +0.000 A 
ATOM      4  C   UNL     1       5.693   4.293  15.034  0.00  0.00    +0.000 A 
ATOM      5  N   UNL     1       4.764   4.595  15.976  0.00  0.00    +0.000 NA
ATOM      6  C   UNL     1       5.134   5.128  17.174  0.00  0.00    +0.000 A 
ENDROOT
BRANCH   1   7
ATOM      7  C   UNL     1       7.156   5.790  18.696  0.00  0.00    +0.000 C 
ATOM      8  O   UNL     1       6.775   5.379  19.800  0.00  0.00    +0.000 OA
BRANCH   7   9
ATOM      9  O   UNL     1       8.069   6.768  18.530  0.00  0.00    +0.000 OA
BRANCH   9  10
ATOM     10  C   UNL     1       7.662   7.785  17.605  0.00  0.00    +0.000 C 
BRANCH  10  12
ATOM     11  C   UNL     1       8.995   9.553  18.854  0.00  0.00    +0.000 C 
ATOM     12  C   UNL     1       8.050   9.189  17.974  0.00  0.00    +0.000 C 
ENDBRANCH  10  12
ENDBRANCH   9  10
ENDBRANCH   7   9
ENDBRANCH   1   7
BRANCH   6  13
ATOM     13  N   UNL     1       4.098   5.553  18.019  0.00  0.00    +0.000 N 
ATOM     14  H   UNL     1       4.254   6.459  18.446  0.00  0.00    +0.000 HD
BRANCH  13  15
ATOM     15  C   UNL     1       3.233   4.591  18.761  0.00  0.00    +0.000 C 
ATOM     16  C   UNL     1       1.948   4.165  17.995  0.00  0.00    +0.000 C 
ATOM     17  C   UNL     1       1.047   3.280  18.887  0.00  0.00    +0.000 C 
ATOM     18  C   UNL     1       1.794   1.964  19.172  0.00  0.00    +0.000 C 
ATOM     19  C   UNL     1       3.118   2.276  19.891  0.00  0.00    +0.000 C 
ATOM     20  C   UNL     1       2.767   2.927  21.242  0.00  0.00    +0.000 C 
ATOM     21  C   UNL     1       2.048   4.256  20.994  0.00  0.00    +0.000 C 
ATOM     22  C   UNL     1       0.750   3.999  20.216  0.00  0.00    +0.000 C 
ATOM     23  C   UNL     1       2.977   5.154  20.184  0.00  0.00    +0.000 C 
ATOM     24  C   UNL     1       3.987   3.242  19.021  0.00  0.00    +0.000 C 
ENDBRANCH  13  15
ENDBRANCH   6  13
TORSDOF 6
ENDMDL
MODEL 6
REMARK VINA RESULT:      -8.2      1.815      2.966
REMARK  Name = 
REMARK  6 active torsions:
REMARK  status: ('A' for Active; 'I' for Inactive)
REMARK    1  A    between atoms: C_2  and  C_3
REMARK    2  A    between atoms: C_3  and  O_4
REMARK    3  A    between atoms: O_4  and  C_5
REMARK    4  A    between atoms: C_5  and  C_7
REMARK    5  A    between atoms: C_12  and  N_13
REMARK    6  A    between atoms: N_13  and  C_14
REMARK                            x       y       z     vdW  Elec       q    Type
REMARK                         _______ _______ _______ _____ _____    ______ ____
ROOT
ATOM      1  C   UNL     1       6.033   6.080  17.393  0.00  0.00    +0.000 A 
ATOM      2  C   UNL     1       7.050   7.056  17.555  0.00  0.00    +0.000 A 
ATOM      3  C   UNL     1       8.049   6.906  18.500  0.00  0.00    +0.000 A 
ATOM      4  C   UNL     1       8.005   5.776  19.271  0.00  0.00    +0.000 A 
ATOM      5  N   UNL     1       7.055   4.816  19.145  0.00  0.00    +0.000 NA
ATOM      6  C   UNL     1       6.074   4.925  18.207  0.00  0.00    +0.000 A 
ENDROOT
BRANCH   1   7
ATOM      7  C   UNL     1       5.016   6.467  16.377  0.00  0.00    +0.000 C 
ATOM      8  O   UNL     1       5.351   6.758  15.221  0.00  0.00    +0.000 OA
BRANCH   7   9
ATOM      9  O   UNL     1       3.762   6.597  16.854  0.00  0.00    +0.000 OA
BRANCH   9  10
ATOM     10  C   UNL     1       3.551   7.803  17.602  0.00  0.00    +0.000 C 
BRANCH  10  12
ATOM     11  C   UNL     1       1.503   9.279  17.895  0.00  0.00    +0.000 C 
ATOM     12  C   UNL     1       2.125   8.093  17.975  0.00  0.00    +0.000 C 
ENDBRANCH  10  12
ENDBRANCH   9  10
ENDBRANCH   7   9
ENDBRANCH   1   7
BRANCH   6  13
ATOM     13  N   UNL     1       5.232   3.814  18.045  0.00  0.00    +0.000 N 
ATOM     14  H   UNL     1       5.335   3.340  17.155  0.00  0.00    +0.000 HD
BRANCH  13  15
ATOM     15  C   UNL     1       3.905   3.719  18.717  0.00  0.00    +0.000 C 
ATOM     16  C   UNL     1       2.696   3.663  17.739  0.00  0.00    +0.000 C 
ATOM     17  C   UNL     1       1.360   3.704  18.517  0.00  0.00    +0.000 C 
ATOM     18  C   UNL     1       1.251   2.417  19.356  0.00  0.00    +0.000 C 
ATOM     19  C   UNL     1       2.438   2.345  20.333  0.00  0.00    +0.000 C 
ATOM     20  C   UNL     1       2.323   3.547  21.288  0.00  0.00    +0.000 C 
ATOM     21  C   UNL     1       2.457   4.846  20.488  0.00  0.00    +0.000 C 
ATOM     22  C   UNL     1       1.329   4.928  19.450  0.00  0.00    +0.000 C 
ATOM     23  C   UNL     1       3.813   4.836  19.790  0.00  0.00    +0.000 C 
ATOM     24  C   UNL     1       3.787   2.393  19.544  0.00  0.00    +0.000 C 
ENDBRANCH  13  15
ENDBRANCH   6  13
TORSDOF 6
ENDMDL
MODEL 7
REMARK VINA RESULT:      -8.1      1.845      3.282
REMARK  Name = 
REMARK  6 active torsions:
REMARK  status: ('A' for Active; 'I' for Inactive)
REMARK    1  A    between atoms: C_2  and  C_3
REMARK    2  A    between atoms: C_3  and  O_4
REMARK    3  A    between atoms: O_4  and  C_5
REMARK    4  A    between atoms: C_5  and  C_7
REMARK    5  A    between atoms: C_12  and  N_13
REMARK    6  A    between atoms: N_13  and  C_14
REMARK                            x       y       z     vdW  Elec       q    Type
REMARK                         _______ _______ _______ _____ _____    ______ ____
ROOT
ATOM      1  C   UNL     1       6.013   6.084  17.439  0.00  0.00    +0.000 A 
ATOM      2  C   UNL     1       7.070   7.018  17.586  0.00  0.00    +0.000 A 
ATOM      3  C   UNL     1       8.049   6.852  18.550  0.00  0.00    +0.000 A 
ATOM      4  C   UNL     1       7.943   5.749  19.354  0.00  0.00    +0.000 A 
ATOM      5  N   UNL     1       6.952   4.829  19.243  0.00  0.00    +0.000 NA
ATOM      6  C   UNL     1       5.990   4.954  18.287  0.00  0.00    +0.000 A 
ENDROOT
BRANCH   1   7
ATOM      7  C   UNL     1       5.028   6.486  16.397  0.00  0.00    +0.000 C 
ATOM      8  O   UNL     1       5.400   6.800  15.258  0.00  0.00    +0.000 OA
BRANCH   7   9
ATOM      9  O   UNL     1       3.758   6.600  16.833  0.00  0.00    +0.000 OA
BRANCH   9  10
ATOM     10  C   UNL     1       3.501   7.818  17.547  0.00  0.00    +0.000 C 
BRANCH  10  12
ATOM     11  C   UNL     1       1.762   8.463  19.285  0.00  0.00    +0.000 C 
ATOM     12  C   UNL     1       2.106   7.972  18.084  0.00  0.00    +0.000 C 
ENDBRANCH  10  12
ENDBRANCH   9  10
ENDBRANCH   7   9
ENDBRANCH   1   7
BRANCH   6  13
ATOM     13  N   UNL     1       5.100   3.878  18.146  0.00  0.00    +0.000 N 
ATOM     14  H   UNL     1       5.061   3.490  17.211  0.00  0.00    +0.000 HD
BRANCH  13  15
ATOM     15  C   UNL     1       3.880   3.740  18.991  0.00  0.00    +0.000 C 
ATOM     16  C   UNL     1       3.954   2.590  20.037  0.00  0.00    +0.000 C 
ATOM     17  C   UNL     1       2.602   2.431  20.771  0.00  0.00    +0.000 C 
ATOM     18  C   UNL     1       2.351   3.705  21.600  0.00  0.00    +0.000 C 
ATOM     19  C   UNL     1       2.309   4.922  20.660  0.00  0.00    +0.000 C 
ATOM     20  C   UNL     1       1.114   4.730  19.708  0.00  0.00    +0.000 C 
ATOM     21  C   UNL     1       1.347   3.486  18.846  0.00  0.00    +0.000 C 
ATOM     22  C   UNL     1       1.464   2.250  19.751  0.00  0.00    +0.000 C 
ATOM     23  C   UNL     1       2.639   3.686  18.062  0.00  0.00    +0.000 C 
ATOM     24  C   UNL     1       3.646   5.027  19.855  0.00  0.00    +0.000 C 
ENDBRANCH  13  15
ENDBRANCH   6  13
TORSDOF 6
ENDMDL
MODEL 8
REMARK VINA RESULT:      -8.1      1.740      4.062
REMARK  Name = 
REMARK  6 active torsions:
REMARK  status: ('A' for Active; 'I' for Inactive)
REMARK    1  A    between atoms: C_2  and  C_3
REMARK    2  A    between atoms: C_3  and  O_4
REMARK    3  A    between atoms: O_4  and  C_5
REMARK    4  A    between atoms: C_5  and  C_7
REMARK    5  A    between atoms: C_12  and  N_13
REMARK    6  A    between atoms: N_13  and  C_14
REMARK                            x       y       z     vdW  Elec       q    Type
REMARK                         _______ _______ _______ _____ _____    ______ ____
ROOT
ATOM      1  C   UNL     1       6.615   4.741  16.621  0.00  0.00    +0.000 A 
ATOM      2  C   UNL     1       7.241   4.380  15.400  0.00  0.00    +0.000 A 
ATOM      3  C   UNL     1       6.508   4.193  14.242  0.00  0.00    +0.000 A 
ATOM      4  C   UNL     1       5.153   4.369  14.334  0.00  0.00    +0.000 A 
ATOM      5  N   UNL     1       4.516   4.720  15.479  0.00  0.00    +0.000 NA
ATOM      6  C   UNL     1       5.215   4.934  16.628  0.00  0.00    +0.000 A 
ENDROOT
BRANCH   1   7
ATOM      7  C   UNL     1       7.571   4.819  17.760  0.00  0.00    +0.000 C 
ATOM      8  O   UNL     1       8.518   4.026  17.850  0.00  0.00    +0.000 OA
BRANCH   7   9
ATOM      9  O   UNL     1       7.241   5.710  18.715  0.00  0.00    +0.000 OA
BRANCH   9  10
ATOM     10  C   UNL     1       8.097   6.859  18.752  0.00  0.00    +0.000 C 
BRANCH  10  12
ATOM     11  C   UNL     1       8.109   9.235  17.848  0.00  0.00    +0.000 C 
ATOM     12  C   UNL     1       7.780   7.937  17.755  0.00  0.00    +0.000 C 
ENDBRANCH  10  12
ENDBRANCH   9  10
ENDBRANCH   7   9
ENDBRANCH   1   7
BRANCH   6  13
ATOM     13  N   UNL     1       4.493   5.444  17.717  0.00  0.00    +0.000 N 
ATOM     14  H   UNL     1       4.959   6.198  18.209  0.00  0.00    +0.000 HD
BRANCH  13  15
ATOM     15  C   UNL     1       3.540   4.608  18.501  0.00  0.00    +0.000 C 
ATOM     16  C   UNL     1       3.274   5.124  19.945  0.00  0.00    +0.000 C 
ATOM     17  C   UNL     1       2.388   4.128  20.727  0.00  0.00    +0.000 C 
ATOM     18  C   UNL     1       1.001   4.087  20.058  0.00  0.00    +0.000 C 
ATOM     19  C   UNL     1       1.154   3.633  18.597  0.00  0.00    +0.000 C 
ATOM     20  C   UNL     1       1.715   2.199  18.615  0.00  0.00    +0.000 C 
ATOM     21  C   UNL     1       3.110   2.208  19.248  0.00  0.00    +0.000 C 
ATOM     22  C   UNL     1       3.014   2.722  20.692  0.00  0.00    +0.000 C 
ATOM     23  C   UNL     1       4.001   3.128  18.421  0.00  0.00    +0.000 C 
ATOM     24  C   UNL     1       2.122   4.596  17.833  0.00  0.00    +0.000 C 
ENDBRANCH  13  15
ENDBRANCH   6  13
TORSDOF 6
ENDMDL
MODEL 9
REMARK VINA RESULT:      -8.1      1.717      3.339
REMARK  Name = 
REMARK  6 active torsions:
REMARK  status: ('A' for Active; 'I' for Inactive)
REMARK    1  A    between atoms: C_2  and  C_3
REMARK    2  A    between atoms: C_3  and  O_4
REMARK    3  A    between atoms: O_4  and  C_5
REMARK    4  A    between atoms: C_5  and  C_7
REMARK    5  A    between atoms: C_12  and  N_13
REMARK    6  A    between atoms: N_13  and  C_14
REMARK                            x       y       z     vdW  Elec       q    Type
REMARK                         _______ _______ _______ _____ _____    ______ ____
ROOT
ATOM      1  C   UNL     1       6.068   5.973  17.293  0.00  0.00    +0.000 A 
ATOM      2  C   UNL     1       7.061   6.969  17.475  0.00  0.00    +0.000 A 
ATOM      3  C   UNL     1       8.002   6.873  18.485  0.00  0.00    +0.000 A 
ATOM      4  C   UNL     1       7.923   5.775  19.299  0.00  0.00    +0.000 A 
ATOM      5  N   UNL     1       6.993   4.798  19.156  0.00  0.00    +0.000 NA
ATOM      6  C   UNL     1       6.071   4.854  18.156  0.00  0.00    +0.000 A 
ENDROOT
BRANCH   1   7
ATOM      7  C   UNL     1       5.110   6.304  16.201  0.00  0.00    +0.000 C 
ATOM      8  O   UNL     1       5.130   5.684  15.129  0.00  0.00    +0.000 OA
BRANCH   7   9
ATOM      9  O   UNL     1       4.343   7.388  16.431  0.00  0.00    +0.000 OA
BRANCH   9  10
ATOM     10  C   UNL     1       3.719   7.389  17.721  0.00  0.00    +0.000 C 
BRANCH  10  12
ATOM     11  C   UNL     1       1.872   9.132  17.839  0.00  0.00    +0.000 C 
ATOM     12  C   UNL     1       2.292   7.860  17.751  0.00  0.00    +0.000 C 
ENDBRANCH  10  12
ENDBRANCH   9  10
ENDBRANCH   7   9
ENDBRANCH   1   7
BRANCH   6  13
ATOM     13  N   UNL     1       5.253   3.726  17.990  0.00  0.00    +0.000 N 
ATOM     14  H   UNL     1       5.379   3.247  17.106  0.00  0.00    +0.000 HD
BRANCH  13  15
ATOM     15  C   UNL     1       3.917   3.610  18.642  0.00  0.00    +0.000 C 
ATOM     16  C   UNL     1       3.714   4.564  19.855  0.00  0.00    +0.000 C 
ATOM     17  C   UNL     1       2.362   4.281  20.551  0.00  0.00    +0.000 C 
ATOM     18  C   UNL     1       1.230   4.640  19.570  0.00  0.00    +0.000 C 
ATOM     19  C   UNL     1       1.366   3.782  18.300  0.00  0.00    +0.000 C 
ATOM     20  C   UNL     1       1.189   2.310  18.716  0.00  0.00    +0.000 C 
ATOM     21  C   UNL     1       2.318   1.911  19.670  0.00  0.00    +0.000 C 
ATOM     22  C   UNL     1       2.262   2.792  20.927  0.00  0.00    +0.000 C 
ATOM     23  C   UNL     1       3.645   2.114  18.947  0.00  0.00    +0.000 C 
ATOM     24  C   UNL     1       2.771   4.006  17.649  0.00  0.00    +0.000 C 
ENDBRANCH  13  15
ENDBRANCH   6  13
TORSDOF 6
ENDMDL
