MODEL 1
REMARK VINA RESULT:      -8.0      0.000      0.000
REMARK  Name = 
REMARK  7 active torsions:
REMARK  status: ('A' for Active; 'I' for Inactive)
REMARK    1  A    between atoms: C_1  and  C_2
REMARK    2  A    between atoms: C_2  and  C_3
REMARK    3  A    between atoms: C_7  and  N_8
REMARK    4  A    between atoms: C_9  and  C_11
REMARK    5  A    between atoms: C_14  and  N_15
REMARK    6  A    between atoms: C_24  and  N_25
REMARK    7  A    between atoms: C_26  and  C_28
REMARK                            x       y       z     vdW  Elec       q    Type
REMARK                         _______ _______ _______ _____ _____    ______ ____
ROOT
ATOM      1  C   UNL     1       2.334  14.871  19.774  0.00  0.00    +0.000 C 
ATOM      2  O   UNL     1       2.605  15.492  18.750  0.00  0.00    +0.000 OA
ATOM      3  N   UNL     1       1.044  14.463  20.042  0.00  0.00    +0.000 N 
ATOM      4  C   UNL     1       0.572  13.670  21.168  0.00  0.00    +0.000 C 
ATOM      5  C   UNL     1      -0.197  12.545  20.466  0.00  0.00    +0.000 C 
ATOM      6  C   UNL     1      -0.932  13.322  19.348  0.00  0.00    +0.000 C 
ATOM      7  C   UNL     1       0.060  14.442  18.969  0.00  0.00    +0.000 C 
ENDROOT
BRANCH   5   8
ATOM      8  N   UNL     1       0.724  11.523  19.949  0.00  0.00    +0.000 N 
ATOM      9  C   UNL     1       0.297  10.208  19.928  0.00  0.00    +0.000 C 
ATOM     10  O   UNL     1      -0.846   9.897  20.255  0.00  0.00    +0.000 OA
ATOM     11  H   UNL     1       1.715  11.703  20.039  0.00  0.00    +0.000 HD
BRANCH   9  12
ATOM     12  C   UNL     1       1.257   9.156  19.493  0.00  0.00    +0.000 A 
ATOM     13  C   UNL     1       1.861   9.116  18.229  0.00  0.00    +0.000 A 
ATOM     14  C   UNL     1       2.666   8.024  17.869  0.00  0.00    +0.000 A 
ATOM     15  C   UNL     1       2.836   6.954  18.754  0.00  0.00    +0.000 A 
ATOM     16  C   UNL     1       2.258   7.015  20.026  0.00  0.00    +0.000 A 
ATOM     17  C   UNL     1       1.497   8.117  20.401  0.00  0.00    +0.000 A 
BRANCH  15  18
ATOM     18  N   UNL     1       3.579   5.792  18.399  0.00  0.00    +0.000 N 
ATOM     19  C   UNL     1       4.958   5.771  18.585  0.00  0.00    +0.000 A 
ATOM     20  C   UNL     1       5.722   4.777  18.123  0.00  0.00    +0.000 A 
ATOM     21  C   UNL     1       5.124   3.721  17.352  0.00  0.00    +0.000 A 
ATOM     22  C   UNL     1       3.797   3.678  17.178  0.00  0.00    +0.000 A 
ATOM     23  C   UNL     1       2.913   4.733  17.758  0.00  0.00    +0.000 A 
ATOM     24  O   UNL     1       1.701   4.638  17.578  0.00  0.00    +0.000 OA
ENDBRANCH  15  18
ENDBRANCH   9  12
ENDBRANCH   5   8
BRANCH   6  25
ATOM     25  N   UNL     1      -1.327  12.497  18.216  0.00  0.00    +0.000 N 
ATOM     26  C   UNL     1      -2.524  11.805  18.220  0.00  0.00    +0.000 C 
ATOM     27  O   UNL     1      -3.276  11.851  19.188  0.00  0.00    +0.000 OA
ATOM     28  H   UNL     1      -0.757  12.483  17.381  0.00  0.00    +0.000 HD
BRANCH  26  29
ATOM     29  C   UNL     1      -2.830  11.044  17.018  0.00  0.00    +0.000 A 
ATOM     30  C   UNL     1      -2.137   9.946  16.532  0.00  0.00    +0.000 A 
ATOM     31  C   UNL     1      -2.674   9.454  15.307  0.00  0.00    +0.000 A 
ATOM     32  C   UNL     1      -3.759  10.194  14.916  0.00  0.00    +0.000 A 
ATOM     33 CL   UNL     1      -4.699   9.968  13.496  0.00  0.00    +0.000 Cl
ATOM     34  S   UNL     1      -4.151  11.438  15.991  0.00  0.00    +0.000 S 
ENDBRANCH  26  29
ENDBRANCH   6  25
BRANCH   1  36
ATOM     35  C   UNL     1       4.801  14.749  20.246  0.00  0.00    +0.000 C 
ATOM     36  C   UNL     1       3.405  14.443  20.762  0.00  0.00    +0.000 C 
ENDBRANCH   1  36
TORSDOF 6
ENDMDL
MODEL 2
REMARK VINA RESULT:      -7.8      1.238      1.641
REMARK  Name = 
REMARK  7 active torsions:
REMARK  status: ('A' for Active; 'I' for Inactive)
REMARK    1  A    between atoms: C_1  and  C_2
REMARK    2  A    between atoms: C_2  and  C_3
REMARK    3  A    between atoms: C_7  and  N_8
REMARK    4  A    between atoms: C_9  and  C_11
REMARK    5  A    between atoms: C_14  and  N_15
REMARK    6  A    between atoms: C_24  and  N_25
REMARK    7  A    between atoms: C_26  and  C_28
REMARK                            x       y       z     vdW  Elec       q    Type
REMARK                         _______ _______ _______ _____ _____    ______ ____
ROOT
ATOM      1  C   UNL     1       2.842  14.952  19.747  0.00  0.00    +0.000 C 
ATOM      2  O   UNL     1       2.903  15.597  18.704  0.00  0.00    +0.000 OA
ATOM      3  N   UNL     1       1.629  14.664  20.338  0.00  0.00    +0.000 N 
ATOM      4  C   UNL     1       1.382  13.863  21.528  0.00  0.00    +0.000 C 
ATOM      5  C   UNL     1       0.336  12.860  21.028  0.00  0.00    +0.000 C 
ATOM      6  C   UNL     1      -0.574  13.766  20.165  0.00  0.00    +0.000 C 
ATOM      7  C   UNL     1       0.404  14.799  19.564  0.00  0.00    +0.000 C 
ENDROOT
BRANCH   5   8
ATOM      8  N   UNL     1       0.970  11.780  20.260  0.00  0.00    +0.000 N 
ATOM      9  C   UNL     1       0.558  10.482  20.495  0.00  0.00    +0.000 C 
ATOM     10  O   UNL     1      -0.367  10.228  21.263  0.00  0.00    +0.000 OA
ATOM     11  H   UNL     1       1.919  11.931  19.942  0.00  0.00    +0.000 HD
BRANCH   9  12
ATOM     12  C   UNL     1       1.260   9.374  19.788  0.00  0.00    +0.000 A 
ATOM     13  C   UNL     1       1.539   9.368  18.415  0.00  0.00    +0.000 A 
ATOM     14  C   UNL     1       2.104   8.231  17.817  0.00  0.00    +0.000 A 
ATOM     15  C   UNL     1       2.355   7.087  18.581  0.00  0.00    +0.000 A 
ATOM     16  C   UNL     1       2.105   7.110  19.957  0.00  0.00    +0.000 A 
ATOM     17  C   UNL     1       1.587   8.251  20.558  0.00  0.00    +0.000 A 
BRANCH  15  18
ATOM     18  N   UNL     1       2.854   5.886  18.000  0.00  0.00    +0.000 N 
ATOM     19  C   UNL     1       2.013   4.785  17.861  0.00  0.00    +0.000 A 
ATOM     20  C   UNL     1       2.467   3.589  17.476  0.00  0.00    +0.000 A 
ATOM     21  C   UNL     1       3.876   3.402  17.255  0.00  0.00    +0.000 A 
ATOM     22  C   UNL     1       4.718   4.438  17.340  0.00  0.00    +0.000 A 
ATOM     23  C   UNL     1       4.222   5.804  17.686  0.00  0.00    +0.000 A 
ATOM     24  O   UNL     1       5.037   6.722  17.739  0.00  0.00    +0.000 OA
ENDBRANCH  15  18
ENDBRANCH   9  12
ENDBRANCH   5   8
BRANCH   6  25
ATOM     25  N   UNL     1      -1.340  13.047  19.158  0.00  0.00    +0.000 N 
ATOM     26  C   UNL     1      -2.587  12.525  19.448  0.00  0.00    +0.000 C 
ATOM     27  O   UNL     1      -3.072  12.637  20.569  0.00  0.00    +0.000 OA
ATOM     28  H   UNL     1      -0.993  12.988  18.210  0.00  0.00    +0.000 HD
BRANCH  26  29
ATOM     29  C   UNL     1      -3.276  11.860  18.352  0.00  0.00    +0.000 A 
ATOM     30  C   UNL     1      -4.617  11.513  18.304  0.00  0.00    +0.000 A 
ATOM     31  C   UNL     1      -4.968  10.837  17.100  0.00  0.00    +0.000 A 
ATOM     32  C   UNL     1      -3.880  10.703  16.278  0.00  0.00    +0.000 A 
ATOM     33 CL   UNL     1      -3.841   9.937  14.742  0.00  0.00    +0.000 Cl
ATOM     34  S   UNL     1      -2.469  11.387  16.909  0.00  0.00    +0.000 S 
ENDBRANCH  26  29
ENDBRANCH   6  25
BRANCH   1  36
ATOM     35  C   UNL     1       5.274  15.298  20.286  0.00  0.00    +0.000 C 
ATOM     36  C   UNL     1       4.079  14.366  20.405  0.00  0.00    +0.000 C 
ENDBRANCH   1  36
TORSDOF 6
ENDMDL
MODEL 3
REMARK VINA RESULT:      -7.7      0.809      1.196
REMARK  Name = 
REMARK  7 active torsions:
REMARK  status: ('A' for Active; 'I' for Inactive)
REMARK    1  A    between atoms: C_1  and  C_2
REMARK    2  A    between atoms: C_2  and  C_3
REMARK    3  A    between atoms: C_7  and  N_8
REMARK    4  A    between atoms: C_9  and  C_11
REMARK    5  A    between atoms: C_14  and  N_15
REMARK    6  A    between atoms: C_24  and  N_25
REMARK    7  A    between atoms: C_26  and  C_28
REMARK                            x       y       z     vdW  Elec       q    Type
REMARK                         _______ _______ _______ _____ _____    ______ ____
ROOT
ATOM      1  C   UNL     1       2.561  14.520  19.694  0.00  0.00    +0.000 C 
ATOM      2  O   UNL     1       2.822  15.166  18.684  0.00  0.00    +0.000 OA
ATOM      3  N   UNL     1       1.271  14.121  19.974  0.00  0.00    +0.000 N 
ATOM      4  C   UNL     1       0.808  13.303  21.086  0.00  0.00    +0.000 C 
ATOM      5  C   UNL     1       0.013  12.207  20.368  0.00  0.00    +0.000 C 
ATOM      6  C   UNL     1      -0.732  13.024  19.285  0.00  0.00    +0.000 C 
ATOM      7  C   UNL     1       0.268  14.142  18.919  0.00  0.00    +0.000 C 
ENDROOT
BRANCH   5   8
ATOM      8  N   UNL     1       0.911  11.189  19.806  0.00  0.00    +0.000 N 
ATOM      9  C   UNL     1       0.446   9.891  19.706  0.00  0.00    +0.000 C 
ATOM     10  O   UNL     1      -0.710   9.596  20.000  0.00  0.00    +0.000 OA
ATOM     11  H   UNL     1       1.905  11.334  19.919  0.00  0.00    +0.000 HD
BRANCH   9  12
ATOM     12  C   UNL     1       1.381   8.836  19.226  0.00  0.00    +0.000 A 
ATOM     13  C   UNL     1       1.874   7.797  20.026  0.00  0.00    +0.000 A 
ATOM     14  C   UNL     1       2.839   6.914  19.517  0.00  0.00    +0.000 A 
ATOM     15  C   UNL     1       3.342   7.091  18.224  0.00  0.00    +0.000 A 
ATOM     16  C   UNL     1       2.823   8.110  17.419  0.00  0.00    +0.000 A 
ATOM     17  C   UNL     1       1.834   8.958  17.906  0.00  0.00    +0.000 A 
BRANCH  15  18
ATOM     18  N   UNL     1       4.377   6.268  17.697  0.00  0.00    +0.000 N 
ATOM     19  C   UNL     1       5.646   6.802  17.492  0.00  0.00    +0.000 A 
ATOM     20  C   UNL     1       6.605   6.127  16.852  0.00  0.00    +0.000 A 
ATOM     21  C   UNL     1       6.314   4.832  16.298  0.00  0.00    +0.000 A 
ATOM     22  C   UNL     1       5.120   4.262  16.501  0.00  0.00    +0.000 A 
ATOM     23  C   UNL     1       4.060   4.962  17.287  0.00  0.00    +0.000 A 
ATOM     24  O   UNL     1       2.986   4.387  17.454  0.00  0.00    +0.000 OA
ENDBRANCH  15  18
ENDBRANCH   9  12
ENDBRANCH   5   8
BRANCH   6  25
ATOM     25  N   UNL     1      -1.158  12.236  18.138  0.00  0.00    +0.000 N 
ATOM     26  C   UNL     1      -2.428  11.694  18.076  0.00  0.00    +0.000 C 
ATOM     27  O   UNL     1      -3.224  11.846  18.997  0.00  0.00    +0.000 OA
ATOM     28  H   UNL     1      -0.546  12.140  17.339  0.00  0.00    +0.000 HD
BRANCH  26  29
ATOM     29  C   UNL     1      -2.754  10.958  16.864  0.00  0.00    +0.000 A 
ATOM     30  C   UNL     1      -2.082   9.857  16.356  0.00  0.00    +0.000 A 
ATOM     31  C   UNL     1      -2.634   9.393  15.127  0.00  0.00    +0.000 A 
ATOM     32  C   UNL     1      -3.709  10.157  14.755  0.00  0.00    +0.000 A 
ATOM     33 CL   UNL     1      -4.661   9.968  13.338  0.00  0.00    +0.000 Cl
ATOM     34  S   UNL     1      -4.075  11.389  15.852  0.00  0.00    +0.000 S 
ENDBRANCH  26  29
ENDBRANCH   6  25
BRANCH   1  36
ATOM     35  C   UNL     1       3.843  15.030  21.797  0.00  0.00    +0.000 C 
ATOM     36  C   UNL     1       3.644  14.051  20.651  0.00  0.00    +0.000 C 
ENDBRANCH   1  36
TORSDOF 6
ENDMDL
MODEL 4
REMARK VINA RESULT:      -7.6      1.954      2.450
REMARK  Name = 
REMARK  7 active torsions:
REMARK  status: ('A' for Active; 'I' for Inactive)
REMARK    1  A    between atoms: C_1  and  C_2
REMARK    2  A    between atoms: C_2  and  C_3
REMARK    3  A    between atoms: C_7  and  N_8
REMARK    4  A    between atoms: C_9  and  C_11
REMARK    5  A    between atoms: C_14  and  N_15
REMARK    6  A    between atoms: C_24  and  N_25
REMARK    7  A    between atoms: C_26  and  C_28
REMARK                            x       y       z     vdW  Elec       q    Type
REMARK                         _______ _______ _______ _____ _____    ______ ____
ROOT
ATOM      1  C   UNL     1       3.172  14.890  18.378  0.00  0.00    +0.000 C 
ATOM      2  O   UNL     1       2.963  15.308  17.243  0.00  0.00    +0.000 OA
ATOM      3  N   UNL     1       2.167  14.854  19.322  0.00  0.00    +0.000 N 
ATOM      4  C   UNL     1       2.233  14.333  20.680  0.00  0.00    +0.000 C 
ATOM      5  C   UNL     1       1.041  13.371  20.712  0.00  0.00    +0.000 C 
ATOM      6  C   UNL     1      -0.033  14.182  19.950  0.00  0.00    +0.000 C 
ATOM      7  C   UNL     1       0.779  14.967  18.898  0.00  0.00    +0.000 C 
ENDROOT
BRANCH   5   8
ATOM      8  N   UNL     1       1.376  12.099  20.056  0.00  0.00    +0.000 N 
ATOM      9  C   UNL     1       0.810  10.939  20.550  0.00  0.00    +0.000 C 
ATOM     10  O   UNL     1      -0.015  10.962  21.462  0.00  0.00    +0.000 OA
ATOM     11  H   UNL     1       2.277  12.035  19.600  0.00  0.00    +0.000 HD
BRANCH   9  12
ATOM     12  C   UNL     1       1.216   9.638  19.951  0.00  0.00    +0.000 A 
ATOM     13  C   UNL     1       1.493   8.482  20.693  0.00  0.00    +0.000 A 
ATOM     14  C   UNL     1       1.978   7.333  20.050  0.00  0.00    +0.000 A 
ATOM     15  C   UNL     1       2.225   7.349  18.674  0.00  0.00    +0.000 A 
ATOM     16  C   UNL     1       1.917   8.494  17.933  0.00  0.00    +0.000 A 
ATOM     17  C   UNL     1       1.394   9.619  18.562  0.00  0.00    +0.000 A 
BRANCH  15  18
ATOM     18  N   UNL     1       2.791   6.232  17.995  0.00  0.00    +0.000 N 
ATOM     19  C   UNL     1       2.087   5.032  17.934  0.00  0.00    +0.000 A 
ATOM     20  C   UNL     1       2.635   3.912  17.455  0.00  0.00    +0.000 A 
ATOM     21  C   UNL     1       4.013   3.914  17.045  0.00  0.00    +0.000 A 
ATOM     22  C   UNL     1       4.720   5.051  17.050  0.00  0.00    +0.000 A 
ATOM     23  C   UNL     1       4.103   6.334  17.501  0.00  0.00    +0.000 A 
ATOM     24  O   UNL     1       4.793   7.351  17.474  0.00  0.00    +0.000 OA
ENDBRANCH  15  18
ENDBRANCH   9  12
ENDBRANCH   5   8
BRANCH   6  25
ATOM     25  N   UNL     1      -1.090  13.367  19.370  0.00  0.00    +0.000 N 
ATOM     26  C   UNL     1      -2.252  13.101  20.068  0.00  0.00    +0.000 C 
ATOM     27  O   UNL     1      -2.416  13.530  21.206  0.00  0.00    +0.000 OA
ATOM     28  H   UNL     1      -1.009  13.047  18.414  0.00  0.00    +0.000 HD
BRANCH  26  29
ATOM     29  C   UNL     1      -3.253  12.307  19.372  0.00  0.00    +0.000 A 
ATOM     30  C   UNL     1      -3.028  11.404  18.345  0.00  0.00    +0.000 A 
ATOM     31  C   UNL     1      -4.230  10.818  17.852  0.00  0.00    +0.000 A 
ATOM     32  C   UNL     1      -5.320  11.296  18.531  0.00  0.00    +0.000 A 
ATOM     33 CL   UNL     1      -6.964  10.879  18.257  0.00  0.00    +0.000 Cl
ATOM     34  S   UNL     1      -4.928  12.402  19.747  0.00  0.00    +0.000 S 
ENDBRANCH  26  29
ENDBRANCH   6  25
BRANCH   1  36
ATOM     35  C   UNL     1       5.628  14.755  17.850  0.00  0.00    +0.000 C 
ATOM     36  C   UNL     1       4.517  14.315  18.789  0.00  0.00    +0.000 C 
ENDBRANCH   1  36
TORSDOF 6
ENDMDL
MODEL 5
REMARK VINA RESULT:      -7.6      3.962      5.788
REMARK  Name = 
REMARK  7 active torsions:
REMARK  status: ('A' for Active; 'I' for Inactive)
REMARK    1  A    between atoms: C_1  and  C_2
REMARK    2  A    between atoms: C_2  and  C_3
REMARK    3  A    between atoms: C_7  and  N_8
REMARK    4  A    between atoms: C_9  and  C_11
REMARK    5  A    between atoms: C_14  and  N_15
REMARK    6  A    between atoms: C_24  and  N_25
REMARK    7  A    between atoms: C_26  and  C_28
REMARK                            x       y       z     vdW  Elec       q    Type
REMARK                         _______ _______ _______ _____ _____    ______ ____
ROOT
ATOM      1  C   UNL     1      -0.646  12.733  22.120  0.00  0.00    +0.000 C 
ATOM      2  O   UNL     1      -0.088  13.105  23.148  0.00  0.00    +0.000 OA
ATOM      3  N   UNL     1      -0.516  13.437  20.942  0.00  0.00    +0.000 N 
ATOM      4  C   UNL     1      -1.055  13.098  19.632  0.00  0.00    +0.000 C 
ATOM      5  C   UNL     1       0.192  13.173  18.744  0.00  0.00    +0.000 C 
ATOM      6  C   UNL     1       0.890  14.439  19.296  0.00  0.00    +0.000 C 
ATOM      7  C   UNL     1       0.556  14.413  20.803  0.00  0.00    +0.000 C 
ENDROOT
BRANCH   5   8
ATOM      8  N   UNL     1       1.008  11.959  18.880  0.00  0.00    +0.000 N 
ATOM      9  C   UNL     1       0.431  10.744  18.559  0.00  0.00    +0.000 C 
ATOM     10  O   UNL     1      -0.704  10.672  18.094  0.00  0.00    +0.000 OA
ATOM     11  H   UNL     1       1.745  11.971  19.573  0.00  0.00    +0.000 HD
BRANCH   9  12
ATOM     12  C   UNL     1       1.221   9.501  18.783  0.00  0.00    +0.000 A 
ATOM     13  C   UNL     1       1.924   8.823  17.779  0.00  0.00    +0.000 A 
ATOM     14  C   UNL     1       2.547   7.598  18.061  0.00  0.00    +0.000 A 
ATOM     15  C   UNL     1       2.435   7.029  19.333  0.00  0.00    +0.000 A 
ATOM     16  C   UNL     1       1.759   7.725  20.341  0.00  0.00    +0.000 A 
ATOM     17  C   UNL     1       1.180   8.961  20.074  0.00  0.00    +0.000 A 
BRANCH  15  18
ATOM     18  N   UNL     1       2.984   5.751  19.640  0.00  0.00    +0.000 N 
ATOM     19  C   UNL     1       4.286   5.448  19.251  0.00  0.00    +0.000 A 
ATOM     20  C   UNL     1       4.793   4.218  19.368  0.00  0.00    +0.000 A 
ATOM     21  C   UNL     1       3.960   3.148  19.849  0.00  0.00    +0.000 A 
ATOM     22  C   UNL     1       2.714   3.398  20.268  0.00  0.00    +0.000 A 
ATOM     23  C   UNL     1       2.153   4.782  20.228  0.00  0.00    +0.000 A 
ATOM     24  O   UNL     1       1.008   4.956  20.637  0.00  0.00    +0.000 OA
ENDBRANCH  15  18
ENDBRANCH   9  12
ENDBRANCH   5   8
BRANCH   6  25
ATOM     25  N   UNL     1       2.319  14.492  19.025  0.00  0.00    +0.000 N 
ATOM     26  C   UNL     1       2.941  15.683  18.702  0.00  0.00    +0.000 C 
ATOM     27  O   UNL     1       2.300  16.726  18.616  0.00  0.00    +0.000 OA
ATOM     28  H   UNL     1       2.884  13.662  19.143  0.00  0.00    +0.000 HD
BRANCH  26  29
ATOM     29  C   UNL     1       4.379  15.621  18.490  0.00  0.00    +0.000 A 
ATOM     30  C   UNL     1       5.081  14.608  17.854  0.00  0.00    +0.000 A 
ATOM     31  C   UNL     1       6.487  14.833  17.847  0.00  0.00    +0.000 A 
ATOM     32  C   UNL     1       6.797  16.013  18.472  0.00  0.00    +0.000 A 
ATOM     33 CL   UNL     1       8.367  16.667  18.710  0.00  0.00    +0.000 Cl
ATOM     34  S   UNL     1       5.445  16.853  19.038  0.00  0.00    +0.000 S 
ENDBRANCH  26  29
ENDBRANCH   6  25
BRANCH   1  36
ATOM     35  C   UNL     1      -0.913  10.408  23.042  0.00  0.00    +0.000 C 
ATOM     36  C   UNL     1      -1.442  11.440  22.059  0.00  0.00    +0.000 C 
ENDBRANCH   1  36
TORSDOF 6
ENDMDL
MODEL 6
REMARK VINA RESULT:      -7.6      1.027      1.188
REMARK  Name = 
REMARK  7 active torsions:
REMARK  status: ('A' for Active; 'I' for Inactive)
REMARK    1  A    between atoms: C_1  and  C_2
REMARK    2  A    between atoms: C_2  and  C_3
REMARK    3  A    between atoms: C_7  and  N_8
REMARK    4  A    between atoms: C_9  and  C_11
REMARK    5  A    between atoms: C_14  and  N_15
REMARK    6  A    between atoms: C_24  and  N_25
REMARK    7  A    between atoms: C_26  and  C_28
REMARK                            x       y       z     vdW  Elec       q    Type
REMARK                         _______ _______ _______ _____ _____    ______ ____
ROOT
ATOM      1  C   UNL     1       2.429  15.085  20.241  0.00  0.00    +0.000 C 
ATOM      2  O   UNL     1       2.583  15.795  19.251  0.00  0.00    +0.000 OA
ATOM      3  N   UNL     1       1.171  14.713  20.665  0.00  0.00    +0.000 N 
ATOM      4  C   UNL     1       0.824  13.832  21.771  0.00  0.00    +0.000 C 
ATOM      5  C   UNL     1      -0.109  12.821  21.094  0.00  0.00    +0.000 C 
ATOM      6  C   UNL     1      -0.952  13.741  20.180  0.00  0.00    +0.000 C 
ATOM      7  C   UNL     1       0.039  14.847  19.759  0.00  0.00    +0.000 C 
ENDROOT
BRANCH   5   8
ATOM      8  N   UNL     1       0.661  11.816  20.348  0.00  0.00    +0.000 N 
ATOM      9  C   UNL     1       0.288  10.489  20.462  0.00  0.00    +0.000 C 
ATOM     10  O   UNL     1      -0.705  10.152  21.102  0.00  0.00    +0.000 OA
ATOM     11  H   UNL     1       1.631  12.025  20.152  0.00  0.00    +0.000 HD
BRANCH   9  12
ATOM     12  C   UNL     1       1.119   9.456  19.784  0.00  0.00    +0.000 A 
ATOM     13  C   UNL     1       1.420   9.462  18.416  0.00  0.00    +0.000 A 
ATOM     14  C   UNL     1       2.117   8.386  17.844  0.00  0.00    +0.000 A 
ATOM     15  C   UNL     1       2.479   7.287  18.629  0.00  0.00    +0.000 A 
ATOM     16  C   UNL     1       2.204   7.301  20.000  0.00  0.00    +0.000 A 
ATOM     17  C   UNL     1       1.554   8.387  20.577  0.00  0.00    +0.000 A 
BRANCH  15  18
ATOM     18  N   UNL     1       3.116   6.140  18.075  0.00  0.00    +0.000 N 
ATOM     19  C   UNL     1       4.308   6.286  17.371  0.00  0.00    +0.000 A 
ATOM     20  C   UNL     1       4.861   5.275  16.695  0.00  0.00    +0.000 A 
ATOM     21  C   UNL     1       4.184   4.008  16.631  0.00  0.00    +0.000 A 
ATOM     22  C   UNL     1       3.055   3.809  17.321  0.00  0.00    +0.000 A 
ATOM     23  C   UNL     1       2.462   4.899  18.153  0.00  0.00    +0.000 A 
ATOM     24  O   UNL     1       1.430   4.657  18.776  0.00  0.00    +0.000 OA
ENDBRANCH  15  18
ENDBRANCH   9  12
ENDBRANCH   5   8
BRANCH   6  25
ATOM     25  N   UNL     1      -1.561  13.055  19.050  0.00  0.00    +0.000 N 
ATOM     26  C   UNL     1      -2.745  12.356  19.192  0.00  0.00    +0.000 C 
ATOM     27  O   UNL     1      -3.304  12.279  20.281  0.00  0.00    +0.000 OA
ATOM     28  H   UNL     1      -1.155  13.147  18.128  0.00  0.00    +0.000 HD
BRANCH  26  29
ATOM     29  C   UNL     1      -3.279  11.743  17.985  0.00  0.00    +0.000 A 
ATOM     30  C   UNL     1      -4.616  11.546  17.676  0.00  0.00    +0.000 A 
ATOM     31  C   UNL     1      -4.801  10.881  16.430  0.00  0.00    +0.000 A 
ATOM     32  C   UNL     1      -3.596  10.606  15.838  0.00  0.00    +0.000 A 
ATOM     33 CL   UNL     1      -3.347   9.801  14.342  0.00  0.00    +0.000 Cl
ATOM     34  S   UNL     1      -2.266  11.146  16.731  0.00  0.00    +0.000 S 
ENDBRANCH  26  29
ENDBRANCH   6  25
BRANCH   1  36
ATOM     35  C   UNL     1       4.850  15.372  20.861  0.00  0.00    +0.000 C 
ATOM     36  C   UNL     1       3.607  14.510  21.009  0.00  0.00    +0.000 C 
ENDBRANCH   1  36
TORSDOF 6
ENDMDL
MODEL 7
REMARK VINA RESULT:      -7.5      3.971      5.906
REMARK  Name = 
REMARK  7 active torsions:
REMARK  status: ('A' for Active; 'I' for Inactive)
REMARK    1  A    between atoms: C_1  and  C_2
REMARK    2  A    between atoms: C_2  and  C_3
REMARK    3  A    between atoms: C_7  and  N_8
REMARK    4  A    between atoms: C_9  and  C_11
REMARK    5  A    between atoms: C_14  and  N_15
REMARK    6  A    between atoms: C_24  and  N_25
REMARK    7  A    between atoms: C_26  and  C_28
REMARK                            x       y       z     vdW  Elec       q    Type
REMARK                         _______ _______ _______ _____ _____    ______ ____
ROOT
ATOM      1  C   UNL     1      -0.764  13.070  22.349  0.00  0.00    +0.000 C 
ATOM      2  O   UNL     1      -0.221  13.408  23.397  0.00  0.00    +0.000 OA
ATOM      3  N   UNL     1      -0.482  13.710  21.161  0.00  0.00    +0.000 N 
ATOM      4  C   UNL     1      -0.986  13.393  19.832  0.00  0.00    +0.000 C 
ATOM      5  C   UNL     1       0.308  13.281  19.017  0.00  0.00    +0.000 C 
ATOM      6  C   UNL     1       1.128  14.469  19.572  0.00  0.00    +0.000 C 
ATOM      7  C   UNL     1       0.710  14.539  21.057  0.00  0.00    +0.000 C 
ENDROOT
BRANCH   5   8
ATOM      8  N   UNL     1       0.956  11.980  19.237  0.00  0.00    +0.000 N 
ATOM      9  C   UNL     1       0.364  10.854  18.697  0.00  0.00    +0.000 C 
ATOM     10  O   UNL     1      -0.633  10.931  17.982  0.00  0.00    +0.000 OA
ATOM     11  H   UNL     1       1.509  11.874  20.078  0.00  0.00    +0.000 HD
BRANCH   9  12
ATOM     12  C   UNL     1       0.963   9.524  18.994  0.00  0.00    +0.000 A 
ATOM     13  C   UNL     1       1.038   8.963  20.276  0.00  0.00    +0.000 A 
ATOM     14  C   UNL     1       1.722   7.754  20.476  0.00  0.00    +0.000 A 
ATOM     15  C   UNL     1       2.363   7.124  19.405  0.00  0.00    +0.000 A 
ATOM     16  C   UNL     1       2.257   7.670  18.122  0.00  0.00    +0.000 A 
ATOM     17  C   UNL     1       1.542   8.845  17.915  0.00  0.00    +0.000 A 
BRANCH  15  18
ATOM     18  N   UNL     1       3.133   5.938  19.577  0.00  0.00    +0.000 N 
ATOM     19  C   UNL     1       4.451   5.900  19.129  0.00  0.00    +0.000 A 
ATOM     20  C   UNL     1       5.163   4.770  19.117  0.00  0.00    +0.000 A 
ATOM     21  C   UNL     1       4.544   3.535  19.518  0.00  0.00    +0.000 A 
ATOM     22  C   UNL     1       3.292   3.528  19.991  0.00  0.00    +0.000 A 
ATOM     23  C   UNL     1       2.504   4.792  20.094  0.00  0.00    +0.000 A 
ATOM     24  O   UNL     1       1.364   4.730  20.547  0.00  0.00    +0.000 OA
ENDBRANCH  15  18
ENDBRANCH   9  12
ENDBRANCH   5   8
BRANCH   6  25
ATOM     25  N   UNL     1       2.565  14.336  19.385  0.00  0.00    +0.000 N 
ATOM     26  C   UNL     1       3.343  15.421  19.030  0.00  0.00    +0.000 C 
ATOM     27  O   UNL     1       2.839  16.524  18.843  0.00  0.00    +0.000 OA
ATOM     28  H   UNL     1       3.018  13.454  19.587  0.00  0.00    +0.000 HD
BRANCH  26  29
ATOM     29  C   UNL     1       4.772  15.176  18.909  0.00  0.00    +0.000 A 
ATOM     30  C   UNL     1       5.454  14.792  17.764  0.00  0.00    +0.000 A 
ATOM     31  C   UNL     1       6.846  14.596  17.992  0.00  0.00    +0.000 A 
ATOM     32  C   UNL     1       7.168  14.846  19.301  0.00  0.00    +0.000 A 
ATOM     33 CL   UNL     1       8.722  14.716  20.019  0.00  0.00    +0.000 Cl
ATOM     34  S   UNL     1       5.848  15.328  20.241  0.00  0.00    +0.000 S 
ENDBRANCH  26  29
ENDBRANCH   6  25
BRANCH   1  36
ATOM     35  C   UNL     1      -1.153  10.675  23.011  0.00  0.00    +0.000 C 
ATOM     36  C   UNL     1      -1.711  11.885  22.279  0.00  0.00    +0.000 C 
ENDBRANCH   1  36
TORSDOF 6
ENDMDL
MODEL 8
REMARK VINA RESULT:      -7.4      1.152      1.567
REMARK  Name = 
REMARK  7 active torsions:
REMARK  status: ('A' for Active; 'I' for Inactive)
REMARK    1  A    between atoms: C_1  and  C_2
REMARK    2  A    between atoms: C_2  and  C_3
REMARK    3  A    between atoms: C_7  and  N_8
REMARK    4  A    between atoms: C_9  and  C_11
REMARK    5  A    between atoms: C_14  and  N_15
REMARK    6  A    between atoms: C_24  and  N_25
REMARK    7  A    between atoms: C_26  and  C_28
REMARK                            x       y       z     vdW  Elec       q    Type
REMARK                         _______ _______ _______ _____ _____    ______ ____
ROOT
ATOM      1  C   UNL     1       3.055  14.897  19.283  0.00  0.00    +0.000 C 
ATOM      2  O   UNL     1       3.144  15.460  18.196  0.00  0.00    +0.000 OA
ATOM      3  N   UNL     1       1.833  14.716  19.896  0.00  0.00    +0.000 N 
ATOM      4  C   UNL     1       1.551  14.018  21.142  0.00  0.00    +0.000 C 
ATOM      5  C   UNL     1       0.452  13.038  20.719  0.00  0.00    +0.000 C 
ATOM      6  C   UNL     1      -0.415  13.925  19.794  0.00  0.00    +0.000 C 
ATOM      7  C   UNL     1       0.612  14.859  19.117  0.00  0.00    +0.000 C 
ENDROOT
BRANCH   5   8
ATOM      8  N   UNL     1       1.024  11.872  20.030  0.00  0.00    +0.000 N 
ATOM      9  C   UNL     1       0.590  10.614  20.403  0.00  0.00    +0.000 C 
ATOM     10  O   UNL     1      -0.306  10.460  21.229  0.00  0.00    +0.000 OA
ATOM     11  H   UNL     1       1.961  11.966  19.660  0.00  0.00    +0.000 HD
BRANCH   9  12
ATOM     12  C   UNL     1       1.232   9.426  19.776  0.00  0.00    +0.000 A 
ATOM     13  C   UNL     1       1.537   8.242  20.461  0.00  0.00    +0.000 A 
ATOM     14  C   UNL     1       2.244   7.217  19.815  0.00  0.00    +0.000 A 
ATOM     15  C   UNL     1       2.683   7.388  18.498  0.00  0.00    +0.000 A 
ATOM     16  C   UNL     1       2.348   8.558  17.808  0.00  0.00    +0.000 A 
ATOM     17  C   UNL     1       1.608   9.556  18.433  0.00  0.00    +0.000 A 
BRANCH  15  18
ATOM     18  N   UNL     1       3.471   6.407  17.831  0.00  0.00    +0.000 N 
ATOM     19  C   UNL     1       4.537   6.806  17.029  0.00  0.00    +0.000 A 
ATOM     20  C   UNL     1       5.204   5.946  16.256  0.00  0.00    +0.000 A 
ATOM     21  C   UNL     1       4.781   4.573  16.190  0.00  0.00    +0.000 A 
ATOM     22  C   UNL     1       3.785   4.134  16.970  0.00  0.00    +0.000 A 
ATOM     23  C   UNL     1       3.079   5.059  17.906  0.00  0.00    +0.000 A 
ATOM     24  O   UNL     1       2.180   4.601  18.608  0.00  0.00    +0.000 OA
ENDBRANCH  15  18
ENDBRANCH   9  12
ENDBRANCH   5   8
BRANCH   6  25
ATOM     25  N   UNL     1      -1.224  13.176  18.843  0.00  0.00    +0.000 N 
ATOM     26  C   UNL     1      -2.384  12.538  19.240  0.00  0.00    +0.000 C 
ATOM     27  O   UNL     1      -2.752  12.569  20.410  0.00  0.00    +0.000 OA
ATOM     28  H   UNL     1      -0.978  13.178  17.863  0.00  0.00    +0.000 HD
BRANCH  26  29
ATOM     29  C   UNL     1      -3.130  11.852  18.196  0.00  0.00    +0.000 A 
ATOM     30  C   UNL     1      -4.496  11.618  18.170  0.00  0.00    +0.000 A 
ATOM     31  C   UNL     1      -4.907  10.884  17.020  0.00  0.00    +0.000 A 
ATOM     32  C   UNL     1      -3.836  10.596  16.214  0.00  0.00    +0.000 A 
ATOM     33 CL   UNL     1      -3.867   9.715  14.740  0.00  0.00    +0.000 Cl
ATOM     34  S   UNL     1      -2.371  11.204  16.796  0.00  0.00    +0.000 S 
ENDBRANCH  26  29
ENDBRANCH   6  25
BRANCH   1  36
ATOM     35  C   UNL     1       5.561  14.924  19.496  0.00  0.00    +0.000 C 
ATOM     36  C   UNL     1       4.264  14.296  19.980  0.00  0.00    +0.000 C 
ENDBRANCH   1  36
TORSDOF 6
ENDMDL
MODEL 9
REMARK VINA RESULT:      -7.2      1.874      2.236
REMARK  Name = 
REMARK  7 active torsions:
REMARK  status: ('A' for Active; 'I' for Inactive)
REMARK    1  A    between atoms: C_1  and  C_2
REMARK    2  A    between atoms: C_2  and  C_3
REMARK    3  A    between atoms: C_7  and  N_8
REMARK    4  A    between atoms: C_9  and  C_11
REMARK    5  A    between atoms: C_14  and  N_15
REMARK    6  A    between atoms: C_24  and  N_25
REMARK    7  A    between atoms: C_26  and  C_28
REMARK                            x       y       z     vdW  Elec       q    Type
REMARK                         _______ _______ _______ _____ _____    ______ ____
ROOT
ATOM      1  C   UNL     1       3.040  14.999  18.693  0.00  0.00    +0.000 C 
ATOM      2  O   UNL     1       2.860  15.398  17.546  0.00  0.00    +0.000 OA
ATOM      3  N   UNL     1       2.004  14.944  19.601  0.00  0.00    +0.000 N 
ATOM      4  C   UNL     1       2.036  14.441  20.967  0.00  0.00    +0.000 C 
ATOM      5  C   UNL     1       0.872  13.443  20.969  0.00  0.00    +0.000 C 
ATOM      6  C   UNL     1      -0.197  14.215  20.159  0.00  0.00    +0.000 C 
ATOM      7  C   UNL     1       0.629  15.011  19.127  0.00  0.00    +0.000 C 
ENDROOT
BRANCH   5   8
ATOM      8  N   UNL     1       1.267  12.175  20.340  0.00  0.00    +0.000 N 
ATOM      9  C   UNL     1       0.684  11.009  20.799  0.00  0.00    +0.000 C 
ATOM     10  O   UNL     1      -0.199  11.023  21.653  0.00  0.00    +0.000 OA
ATOM     11  H   UNL     1       2.197  12.123  19.945  0.00  0.00    +0.000 HD
BRANCH   9  12
ATOM     12  C   UNL     1       1.147   9.712  20.233  0.00  0.00    +0.000 A 
ATOM     13  C   UNL     1       1.364   8.554  20.991  0.00  0.00    +0.000 A 
ATOM     14  C   UNL     1       1.909   7.410  20.388  0.00  0.00    +0.000 A 
ATOM     15  C   UNL     1       2.273   7.432  19.039  0.00  0.00    +0.000 A 
ATOM     16  C   UNL     1       2.024   8.579  18.278  0.00  0.00    +0.000 A 
ATOM     17  C   UNL     1       1.443   9.699  18.864  0.00  0.00    +0.000 A 
BRANCH  15  18
ATOM     18  N   UNL     1       2.901   6.321  18.407  0.00  0.00    +0.000 N 
ATOM     19  C   UNL     1       4.025   6.524  17.611  0.00  0.00    +0.000 A 
ATOM     20  C   UNL     1       4.554   5.547  16.868  0.00  0.00    +0.000 A 
ATOM     21  C   UNL     1       3.917   4.258  16.830  0.00  0.00    +0.000 A 
ATOM     22  C   UNL     1       2.856   4.005  17.606  0.00  0.00    +0.000 A 
ATOM     23  C   UNL     1       2.298   5.055  18.509  0.00  0.00    +0.000 A 
ATOM     24  O   UNL     1       1.330   4.765  19.209  0.00  0.00    +0.000 OA
ENDBRANCH  15  18
ENDBRANCH   9  12
ENDBRANCH   5   8
BRANCH   6  25
ATOM     25  N   UNL     1      -1.209  13.362  19.551  0.00  0.00    +0.000 N 
ATOM     26  C   UNL     1      -2.443  13.182  20.147  0.00  0.00    +0.000 C 
ATOM     27  O   UNL     1      -2.712  13.722  21.215  0.00  0.00    +0.000 OA
ATOM     28  H   UNL     1      -1.038  12.950  18.644  0.00  0.00    +0.000 HD
BRANCH  26  29
ATOM     29  C   UNL     1      -3.386  12.339  19.429  0.00  0.00    +0.000 A 
ATOM     30  C   UNL     1      -3.100  11.486  18.374  0.00  0.00    +0.000 A 
ATOM     31  C   UNL     1      -4.258  10.830  17.866  0.00  0.00    +0.000 A 
ATOM     32  C   UNL     1      -5.378  11.206  18.561  0.00  0.00    +0.000 A 
ATOM     33 CL   UNL     1      -6.988  10.680  18.277  0.00  0.00    +0.000 Cl
ATOM     34  S   UNL     1      -5.062  12.300  19.810  0.00  0.00    +0.000 S 
ENDBRANCH  26  29
ENDBRANCH   6  25
BRANCH   1  36
ATOM     35  C   UNL     1       5.539  15.170  18.461  0.00  0.00    +0.000 C 
ATOM     36  C   UNL     1       4.385  14.468  19.159  0.00  0.00    +0.000 C 
ENDBRANCH   1  36
TORSDOF 6
ENDMDL
