MODEL 1
REMARK VINA RESULT:      -9.3      0.000      0.000
REMARK  Name = 
REMARK  6 active torsions:
REMARK  status: ('A' for Active; 'I' for Inactive)
REMARK    1  A    between atoms: C_1  and  N_2
REMARK    2  A    between atoms: N_2  and  C_3
REMARK    3  A    between atoms: C_4  and  C_6
REMARK    4  A    between atoms: C_15  and  C_17
REMARK    5  A    between atoms: C_17  and  C_18
REMARK    6  A    between atoms: C_18  and  N_19
REMARK                            x       y       z     vdW  Elec       q    Type
REMARK                         _______ _______ _______ _____ _____    ______ ____
ROOT
ATOM      1  C   UNL     1       4.317   4.493  17.360  0.00  0.00    +0.000 C 
ATOM      2  C   UNL     1       3.670   3.106  17.571  0.00  0.00    +0.000 C 
ATOM      3  C   UNL     1       2.749   3.376  18.719  0.00  0.00    +0.000 A 
ATOM      4  C   UNL     1       2.115   2.436  19.529  0.00  0.00    +0.000 A 
ATOM      5  C   UNL     1       1.192   2.875  20.477  0.00  0.00    +0.000 A 
ATOM      6  C   UNL     1       0.872   4.224  20.561  0.00  0.00    +0.000 A 
ATOM      7  C   UNL     1       1.514   5.148  19.728  0.00  0.00    +0.000 A 
ATOM      8  C   UNL     1       2.500   4.744  18.838  0.00  0.00    +0.000 A 
ATOM      9  N   UNL     1       3.362   5.475  17.963  0.00  0.00    +0.000 N 
ATOM     10  C   UNL     1       3.406   6.851  17.665  0.00  0.00    +0.000 C 
ATOM     11  O   UNL     1       4.172   7.343  16.831  0.00  0.00    +0.000 OA
ENDROOT
BRANCH   1  15
ATOM     12  C   UNL     1       8.155   4.396  17.839  0.00  0.00    +0.000 C 
ATOM     13  N   UNL     1       6.842   4.616  17.247  0.00  0.00    +0.000 N 
ATOM     14  C   UNL     1       6.796   5.238  15.933  0.00  0.00    +0.000 C 
ATOM     15  C   UNL     1       5.710   4.413  18.055  0.00  0.00    +0.000 C 
ATOM     16  O   UNL     1       5.828   4.047  19.228  0.00  0.00    +0.000 OA
ENDBRANCH   1  15
BRANCH  10  17
ATOM     17  C   UNL     1       2.446   7.694  18.484  0.00  0.00    +0.000 C 
BRANCH  17  18
ATOM     18  C   UNL     1       1.440   8.780  18.067  0.00  0.00    +0.000 C 
BRANCH  18  19
ATOM     19  N   UNL     1       1.445   9.864  19.100  0.00  0.00    +0.000 NA
ATOM     20  C   UNL     1       0.890   9.596  20.436  0.00  0.00    +0.000 C 
ATOM     21  C   UNL     1      -0.514  10.182  20.794  0.00  0.00    +0.000 C 
ATOM     22  C   UNL     1      -0.830  11.545  20.131  0.00  0.00    +0.000 C 
ATOM     23  C   UNL     1      -2.282  11.998  20.160  0.00  0.00    +0.000 A 
ATOM     24  C   UNL     1      -2.728  12.853  21.180  0.00  0.00    +0.000 A 
ATOM     25  C   UNL     1      -4.013  13.401  21.138  0.00  0.00    +0.000 A 
ATOM     26  C   UNL     1      -4.877  13.084  20.094  0.00  0.00    +0.000 A 
ATOM     27  C   UNL     1      -4.455  12.230  19.082  0.00  0.00    +0.000 A 
ATOM     28  C   UNL     1      -3.156  11.701  19.092  0.00  0.00    +0.000 A 
ATOM     29  C   UNL     1      -2.717  10.918  17.879  0.00  0.00    +0.000 C 
ATOM     30  C   UNL     1      -1.250  10.511  17.892  0.00  0.00    +0.000 C 
ATOM     31  C   UNL     1      -0.386  11.515  18.671  0.00  0.00    +0.000 C 
ATOM     32  C   UNL     1       1.104  11.218  18.672  0.00  0.00    +0.000 C 
ENDBRANCH  18  19
ENDBRANCH  17  18
ENDBRANCH  10  17
TORSDOF 4
ENDMDL
MODEL 2
REMARK VINA RESULT:      -9.1      1.355      1.809
REMARK  Name = 
REMARK  6 active torsions:
REMARK  status: ('A' for Active; 'I' for Inactive)
REMARK    1  A    between atoms: C_1  and  N_2
REMARK    2  A    between atoms: N_2  and  C_3
REMARK    3  A    between atoms: C_4  and  C_6
REMARK    4  A    between atoms: C_15  and  C_17
REMARK    5  A    between atoms: C_17  and  C_18
REMARK    6  A    between atoms: C_18  and  N_19
REMARK                            x       y       z     vdW  Elec       q    Type
REMARK                         _______ _______ _______ _____ _____    ______ ____
ROOT
ATOM      1  C   UNL     1       3.685   5.251  17.462  0.00  0.00    +0.000 C 
ATOM      2  C   UNL     1       3.195   3.788  17.379  0.00  0.00    +0.000 C 
ATOM      3  C   UNL     1       2.570   3.605  18.726  0.00  0.00    +0.000 A 
ATOM      4  C   UNL     1       2.213   2.402  19.332  0.00  0.00    +0.000 A 
ATOM      5  C   UNL     1       1.527   2.435  20.545  0.00  0.00    +0.000 A 
ATOM      6  C   UNL     1       1.156   3.653  21.100  0.00  0.00    +0.000 A 
ATOM      7  C   UNL     1       1.516   4.849  20.466  0.00  0.00    +0.000 A 
ATOM      8  C   UNL     1       2.275   4.841  19.304  0.00  0.00    +0.000 A 
ATOM      9  N   UNL     1       2.850   5.893  18.524  0.00  0.00    +0.000 N 
ATOM     10  C   UNL     1       2.735   7.290  18.653  0.00  0.00    +0.000 C 
ATOM     11  O   UNL     1       3.242   8.090  17.861  0.00  0.00    +0.000 OA
ENDROOT
BRANCH   1  15
ATOM     12  C   UNL     1       7.480   4.651  17.002  0.00  0.00    +0.000 C 
ATOM     13  N   UNL     1       6.073   4.888  16.707  0.00  0.00    +0.000 N 
ATOM     14  C   UNL     1       5.700   5.041  15.309  0.00  0.00    +0.000 C 
ATOM     15  C   UNL     1       5.209   5.163  17.780  0.00  0.00    +0.000 C 
ATOM     16  O   UNL     1       5.630   5.190  18.940  0.00  0.00    +0.000 OA
ENDBRANCH   1  15
BRANCH  10  17
ATOM     17  C   UNL     1       1.956   7.739  19.876  0.00  0.00    +0.000 C 
BRANCH  17  18
ATOM     18  C   UNL     1       0.790   8.729  20.029  0.00  0.00    +0.000 C 
BRANCH  18  19
ATOM     19  N   UNL     1       1.052   9.604  21.215  0.00  0.00    +0.000 NA
ATOM     20  C   UNL     1       0.318   9.366  22.468  0.00  0.00    +0.000 C 
ATOM     21  C   UNL     1      -0.845  10.337  22.850  0.00  0.00    +0.000 C 
ATOM     22  C   UNL     1      -0.637  11.801  22.392  0.00  0.00    +0.000 C 
ATOM     23  C   UNL     1      -1.858  12.708  22.426  0.00  0.00    +0.000 A 
ATOM     24  C   UNL     1      -2.094  13.522  23.544  0.00  0.00    +0.000 A 
ATOM     25  C   UNL     1      -3.121  14.471  23.530  0.00  0.00    +0.000 A 
ATOM     26  C   UNL     1      -3.940  14.601  22.413  0.00  0.00    +0.000 A 
ATOM     27  C   UNL     1      -3.728  13.794  21.301  0.00  0.00    +0.000 A 
ATOM     28  C   UNL     1      -2.678  12.864  21.288  0.00  0.00    +0.000 A 
ATOM     29  C   UNL     1      -2.408  12.144  19.988  0.00  0.00    +0.000 C 
ATOM     30  C   UNL     1      -1.161  11.270  20.004  0.00  0.00    +0.000 C 
ATOM     31  C   UNL     1      -0.093  11.815  20.965  0.00  0.00    +0.000 C 
ATOM     32  C   UNL     1       1.211  11.038  20.986  0.00  0.00    +0.000 C 
ENDBRANCH  18  19
ENDBRANCH  17  18
ENDBRANCH  10  17
TORSDOF 4
ENDMDL
MODEL 3
REMARK VINA RESULT:      -9.0      0.959      1.022
REMARK  Name = 
REMARK  6 active torsions:
REMARK  status: ('A' for Active; 'I' for Inactive)
REMARK    1  A    between atoms: C_1  and  N_2
REMARK    2  A    between atoms: N_2  and  C_3
REMARK    3  A    between atoms: C_4  and  C_6
REMARK    4  A    between atoms: C_15  and  C_17
REMARK    5  A    between atoms: C_17  and  C_18
REMARK    6  A    between atoms: C_18  and  N_19
REMARK                            x       y       z     vdW  Elec       q    Type
REMARK                         _______ _______ _______ _____ _____    ______ ____
ROOT
ATOM      1  C   UNL     1       5.009   4.935  17.300  0.00  0.00    +0.000 C 
ATOM      2  C   UNL     1       4.680   3.454  17.007  0.00  0.00    +0.000 C 
ATOM      3  C   UNL     1       3.378   3.289  17.726  0.00  0.00    +0.000 A 
ATOM      4  C   UNL     1       2.744   2.092  18.053  0.00  0.00    +0.000 A 
ATOM      5  C   UNL     1       1.471   2.135  18.619  0.00  0.00    +0.000 A 
ATOM      6  C   UNL     1       0.829   3.356  18.791  0.00  0.00    +0.000 A 
ATOM      7  C   UNL     1       1.483   4.544  18.443  0.00  0.00    +0.000 A 
ATOM      8  C   UNL     1       2.784   4.529  17.960  0.00  0.00    +0.000 A 
ATOM      9  N   UNL     1       3.698   5.578  17.629  0.00  0.00    +0.000 N 
ATOM     10  C   UNL     1       3.514   6.973  17.603  0.00  0.00    +0.000 C 
ATOM     11  O   UNL     1       4.384   7.768  17.232  0.00  0.00    +0.000 OA
ENDROOT
BRANCH   1  15
ATOM     12  C   UNL     1       8.249   5.576  19.315  0.00  0.00    +0.000 C 
ATOM     13  N   UNL     1       7.198   5.700  18.314  0.00  0.00    +0.000 N 
ATOM     14  C   UNL     1       7.314   6.784  17.352  0.00  0.00    +0.000 C 
ATOM     15  C   UNL     1       6.045   4.910  18.464  0.00  0.00    +0.000 C 
ATOM     16  O   UNL     1       5.935   4.126  19.412  0.00  0.00    +0.000 OA
ENDBRANCH   1  15
BRANCH  10  17
ATOM     17  C   UNL     1       2.156   7.430  18.103  0.00  0.00    +0.000 C 
BRANCH  17  18
ATOM     18  C   UNL     1       1.351   8.711  17.827  0.00  0.00    +0.000 C 
BRANCH  18  19
ATOM     19  N   UNL     1       1.517   9.645  18.986  0.00  0.00    +0.000 NA
ATOM     20  C   UNL     1       1.006   9.256  20.309  0.00  0.00    +0.000 C 
ATOM     21  C   UNL     1      -0.312   9.918  20.826  0.00  0.00    +0.000 C 
ATOM     22  C   UNL     1      -0.522  11.380  20.362  0.00  0.00    +0.000 C 
ATOM     23  C   UNL     1      -1.917  11.960  20.539  0.00  0.00    +0.000 A 
ATOM     24  C   UNL     1      -2.223  12.711  21.684  0.00  0.00    +0.000 A 
ATOM     25  C   UNL     1      -3.447  13.378  21.792  0.00  0.00    +0.000 A 
ATOM     26  C   UNL     1      -4.389  13.283  20.772  0.00  0.00    +0.000 A 
ATOM     27  C   UNL     1      -4.107  12.534  19.636  0.00  0.00    +0.000 A 
ATOM     28  C   UNL     1      -2.869  11.890  19.499  0.00  0.00    +0.000 A 
ATOM     29  C   UNL     1      -2.573  11.235  18.171  0.00  0.00    +0.000 C 
ATOM     30  C   UNL     1      -1.156  10.695  18.041  0.00  0.00    +0.000 C 
ATOM     31  C   UNL     1      -0.156  11.502  18.885  0.00  0.00    +0.000 C 
ATOM     32  C   UNL     1       1.294  11.069  18.755  0.00  0.00    +0.000 C 
ENDBRANCH  18  19
ENDBRANCH  17  18
ENDBRANCH  10  17
TORSDOF 4
ENDMDL
MODEL 4
REMARK VINA RESULT:      -9.0      1.649      3.546
REMARK  Name = 
REMARK  6 active torsions:
REMARK  status: ('A' for Active; 'I' for Inactive)
REMARK    1  A    between atoms: C_1  and  N_2
REMARK    2  A    between atoms: N_2  and  C_3
REMARK    3  A    between atoms: C_4  and  C_6
REMARK    4  A    between atoms: C_15  and  C_17
REMARK    5  A    between atoms: C_17  and  C_18
REMARK    6  A    between atoms: C_18  and  N_19
REMARK                            x       y       z     vdW  Elec       q    Type
REMARK                         _______ _______ _______ _____ _____    ______ ____
ROOT
ATOM      1  C   UNL     1       3.212   4.466  19.117  0.00  0.00    +0.000 C 
ATOM      2  C   UNL     1       4.455   3.776  18.512  0.00  0.00    +0.000 C 
ATOM      3  C   UNL     1       4.740   4.653  17.334  0.00  0.00    +0.000 A 
ATOM      4  C   UNL     1       5.571   4.366  16.253  0.00  0.00    +0.000 A 
ATOM      5  C   UNL     1       5.812   5.359  15.305  0.00  0.00    +0.000 A 
ATOM      6  C   UNL     1       5.278   6.630  15.478  0.00  0.00    +0.000 A 
ATOM      7  C   UNL     1       4.455   6.897  16.580  0.00  0.00    +0.000 A 
ATOM      8  C   UNL     1       4.131   5.899  17.489  0.00  0.00    +0.000 A 
ATOM      9  N   UNL     1       3.256   5.877  18.619  0.00  0.00    +0.000 N 
ATOM     10  C   UNL     1       2.515   6.913  19.220  0.00  0.00    +0.000 C 
ATOM     11  O   UNL     1       1.840   6.762  20.243  0.00  0.00    +0.000 OA
ENDROOT
BRANCH   1  15
ATOM     12  C   UNL     1       0.347   1.866  19.090  0.00  0.00    +0.000 C 
ATOM     13  N   UNL     1       1.389   2.768  19.562  0.00  0.00    +0.000 N 
ATOM     14  C   UNL     1       1.583   2.872  20.999  0.00  0.00    +0.000 C 
ATOM     15  C   UNL     1       1.990   3.629  18.628  0.00  0.00    +0.000 C 
ATOM     16  O   UNL     1       1.653   3.611  17.441  0.00  0.00    +0.000 OA
ENDBRANCH   1  15
BRANCH  10  17
ATOM     17  C   UNL     1       2.588   8.237  18.482  0.00  0.00    +0.000 C 
BRANCH  17  18
ATOM     18  C   UNL     1       1.483   9.165  17.951  0.00  0.00    +0.000 C 
BRANCH  18  19
ATOM     19  N   UNL     1       1.288  10.288  18.923  0.00  0.00    +0.000 NA
ATOM     20  C   UNL     1       0.694  10.011  20.240  0.00  0.00    +0.000 C 
ATOM     21  C   UNL     1      -0.792  10.424  20.493  0.00  0.00    +0.000 C 
ATOM     22  C   UNL     1      -1.240  11.702  19.742  0.00  0.00    +0.000 C 
ATOM     23  C   UNL     1      -2.737  11.962  19.671  0.00  0.00    +0.000 A 
ATOM     24  C   UNL     1      -3.349  12.797  20.618  0.00  0.00    +0.000 A 
ATOM     25  C   UNL     1      -4.689  13.170  20.479  0.00  0.00    +0.000 A 
ATOM     26  C   UNL     1      -5.442  12.694  19.410  0.00  0.00    +0.000 A 
ATOM     27  C   UNL     1      -4.855  11.857  18.468  0.00  0.00    +0.000 A 
ATOM     28  C   UNL     1      -3.501  11.504  18.576  0.00  0.00    +0.000 A 
ATOM     29  C   UNL     1      -2.895  10.729  17.430  0.00  0.00    +0.000 C 
ATOM     30  C   UNL     1      -1.392  10.520  17.543  0.00  0.00    +0.000 C 
ATOM     31  C   UNL     1      -0.710  11.663  18.311  0.00  0.00    +0.000 C 
ATOM     32  C   UNL     1       0.802  11.564  18.406  0.00  0.00    +0.000 C 
ENDBRANCH  18  19
ENDBRANCH  17  18
ENDBRANCH  10  17
TORSDOF 4
ENDMDL
MODEL 5
REMARK VINA RESULT:      -8.8      2.392      4.449
REMARK  Name = 
REMARK  6 active torsions:
REMARK  status: ('A' for Active; 'I' for Inactive)
REMARK    1  A    between atoms: C_1  and  N_2
REMARK    2  A    between atoms: N_2  and  C_3
REMARK    3  A    between atoms: C_4  and  C_6
REMARK    4  A    between atoms: C_15  and  C_17
REMARK    5  A    between atoms: C_17  and  C_18
REMARK    6  A    between atoms: C_18  and  N_19
REMARK                            x       y       z     vdW  Elec       q    Type
REMARK                         _______ _______ _______ _____ _____    ______ ____
ROOT
ATOM      1  C   UNL     1       3.226   4.514  19.160  0.00  0.00    +0.000 C 
ATOM      2  C   UNL     1       4.481   3.834  18.567  0.00  0.00    +0.000 C 
ATOM      3  C   UNL     1       4.761   4.704  17.382  0.00  0.00    +0.000 A 
ATOM      4  C   UNL     1       5.600   4.418  16.307  0.00  0.00    +0.000 A 
ATOM      5  C   UNL     1       5.833   5.405  15.351  0.00  0.00    +0.000 A 
ATOM      6  C   UNL     1       5.281   6.670  15.511  0.00  0.00    +0.000 A 
ATOM      7  C   UNL     1       4.451   6.936  16.606  0.00  0.00    +0.000 A 
ATOM      8  C   UNL     1       4.134   5.943  17.523  0.00  0.00    +0.000 A 
ATOM      9  N   UNL     1       3.254   5.920  18.649  0.00  0.00    +0.000 N 
ATOM     10  C   UNL     1       2.498   6.952  19.237  0.00  0.00    +0.000 C 
ATOM     11  O   UNL     1       1.820   6.802  20.258  0.00  0.00    +0.000 OA
ENDROOT
BRANCH   1  15
ATOM     12  C   UNL     1       0.371   1.902  19.158  0.00  0.00    +0.000 C 
ATOM     13  N   UNL     1       1.401   2.823  19.622  0.00  0.00    +0.000 N 
ATOM     14  C   UNL     1       1.565   2.974  21.059  0.00  0.00    +0.000 C 
ATOM     15  C   UNL     1       2.018   3.657  18.674  0.00  0.00    +0.000 C 
ATOM     16  O   UNL     1       1.704   3.599  17.481  0.00  0.00    +0.000 OA
ENDBRANCH   1  15
BRANCH  10  17
ATOM     17  C   UNL     1       2.557   8.270  18.487  0.00  0.00    +0.000 C 
BRANCH  17  18
ATOM     18  C   UNL     1       1.481   9.043  17.706  0.00  0.00    +0.000 C 
BRANCH  18  19
ATOM     19  N   UNL     1       0.487   9.600  18.678  0.00  0.00    +0.000 NA
ATOM     20  C   UNL     1      -0.741  10.235  18.175  0.00  0.00    +0.000 C 
ATOM     21  C   UNL     1      -0.843  11.794  18.205  0.00  0.00    +0.000 C 
ATOM     22  C   UNL     1      -0.106  12.464  19.391  0.00  0.00    +0.000 C 
ATOM     23  C   UNL     1       0.122  13.965  19.294  0.00  0.00    +0.000 A 
ATOM     24  C   UNL     1      -0.788  14.851  19.890  0.00  0.00    +0.000 A 
ATOM     25  C   UNL     1      -0.516  16.221  19.945  0.00  0.00    +0.000 A 
ATOM     26  C   UNL     1       0.652  16.727  19.382  0.00  0.00    +0.000 A 
ATOM     27  C   UNL     1       1.559  15.865  18.777  0.00  0.00    +0.000 A 
ATOM     28  C   UNL     1       1.316  14.483  18.748  0.00  0.00    +0.000 A 
ATOM     29  C   UNL     1       2.420  13.597  18.223  0.00  0.00    +0.000 C 
ATOM     30  C   UNL     1       2.149  12.106  18.368  0.00  0.00    +0.000 C 
ATOM     31  C   UNL     1       1.256  11.802  19.582  0.00  0.00    +0.000 C 
ATOM     32  C   UNL     1       0.996  10.328  19.837  0.00  0.00    +0.000 C 
ENDBRANCH  18  19
ENDBRANCH  17  18
ENDBRANCH  10  17
TORSDOF 4
ENDMDL
MODEL 6
REMARK VINA RESULT:      -8.6      1.619      2.281
REMARK  Name = 
REMARK  6 active torsions:
REMARK  status: ('A' for Active; 'I' for Inactive)
REMARK    1  A    between atoms: C_1  and  N_2
REMARK    2  A    between atoms: N_2  and  C_3
REMARK    3  A    between atoms: C_4  and  C_6
REMARK    4  A    between atoms: C_15  and  C_17
REMARK    5  A    between atoms: C_17  and  C_18
REMARK    6  A    between atoms: C_18  and  N_19
REMARK                            x       y       z     vdW  Elec       q    Type
REMARK                         _______ _______ _______ _____ _____    ______ ____
ROOT
ATOM      1  C   UNL     1       3.630   5.235  17.448  0.00  0.00    +0.000 C 
ATOM      2  C   UNL     1       3.182   3.771  17.242  0.00  0.00    +0.000 C 
ATOM      3  C   UNL     1       2.538   3.467  18.558  0.00  0.00    +0.000 A 
ATOM      4  C   UNL     1       2.204   2.211  19.061  0.00  0.00    +0.000 A 
ATOM      5  C   UNL     1       1.496   2.131  20.259  0.00  0.00    +0.000 A 
ATOM      6  C   UNL     1       1.082   3.292  20.900  0.00  0.00    +0.000 A 
ATOM      7  C   UNL     1       1.421   4.542  20.368  0.00  0.00    +0.000 A 
ATOM      8  C   UNL     1       2.200   4.646  19.224  0.00  0.00    +0.000 A 
ATOM      9  N   UNL     1       2.759   5.770  18.541  0.00  0.00    +0.000 N 
ATOM     10  C   UNL     1       2.604   7.150  18.776  0.00  0.00    +0.000 C 
ATOM     11  O   UNL     1       3.102   8.022  18.059  0.00  0.00    +0.000 OA
ENDROOT
BRANCH   1  15
ATOM     12  C   UNL     1       7.445   4.754  17.022  0.00  0.00    +0.000 C 
ATOM     13  N   UNL     1       6.039   4.978  16.716  0.00  0.00    +0.000 N 
ATOM     14  C   UNL     1       5.686   5.212  15.324  0.00  0.00    +0.000 C 
ATOM     15  C   UNL     1       5.150   5.162  17.788  0.00  0.00    +0.000 C 
ATOM     16  O   UNL     1       5.550   5.123  18.955  0.00  0.00    +0.000 OA
ENDBRANCH   1  15
BRANCH  10  17
ATOM     17  C   UNL     1       1.792   7.481  20.014  0.00  0.00    +0.000 C 
BRANCH  17  18
ATOM     18  C   UNL     1       1.485   8.824  20.697  0.00  0.00    +0.000 C 
BRANCH  18  19
ATOM     19  N   UNL     1       0.836   9.735  19.701  0.00  0.00    +0.000 NA
ATOM     20  C   UNL     1       1.456  11.034  19.395  0.00  0.00    +0.000 C 
ATOM     21  C   UNL     1       0.815  12.328  19.993  0.00  0.00    +0.000 C 
ATOM     22  C   UNL     1      -0.725  12.270  20.147  0.00  0.00    +0.000 C 
ATOM     23  C   UNL     1      -1.364  13.337  21.022  0.00  0.00    +0.000 A 
ATOM     24  C   UNL     1      -1.876  14.507  20.440  0.00  0.00    +0.000 A 
ATOM     25  C   UNL     1      -2.601  15.425  21.204  0.00  0.00    +0.000 A 
ATOM     26  C   UNL     1      -2.802  15.202  22.563  0.00  0.00    +0.000 A 
ATOM     27  C   UNL     1      -2.292  14.054  23.159  0.00  0.00    +0.000 A 
ATOM     28  C   UNL     1      -1.594  13.107  22.396  0.00  0.00    +0.000 A 
ATOM     29  C   UNL     1      -1.216  11.813  23.076  0.00  0.00    +0.000 C 
ATOM     30  C   UNL     1      -0.604  10.773  22.148  0.00  0.00    +0.000 C 
ATOM     31  C   UNL     1      -1.128  10.910  20.710  0.00  0.00    +0.000 C 
ATOM     32  C   UNL     1      -0.618   9.863  19.736  0.00  0.00    +0.000 C 
ENDBRANCH  18  19
ENDBRANCH  17  18
ENDBRANCH  10  17
TORSDOF 4
ENDMDL
MODEL 7
REMARK VINA RESULT:      -8.6      1.657      2.410
REMARK  Name = 
REMARK  6 active torsions:
REMARK  status: ('A' for Active; 'I' for Inactive)
REMARK    1  A    between atoms: C_1  and  N_2
REMARK    2  A    between atoms: N_2  and  C_3
REMARK    3  A    between atoms: C_4  and  C_6
REMARK    4  A    between atoms: C_15  and  C_17
REMARK    5  A    between atoms: C_17  and  C_18
REMARK    6  A    between atoms: C_18  and  N_19
REMARK                            x       y       z     vdW  Elec       q    Type
REMARK                         _______ _______ _______ _____ _____    ______ ____
ROOT
ATOM      1  C   UNL     1       4.351   4.502  17.373  0.00  0.00    +0.000 C 
ATOM      2  C   UNL     1       3.698   3.133  17.668  0.00  0.00    +0.000 C 
ATOM      3  C   UNL     1       2.759   3.483  18.779  0.00  0.00    +0.000 A 
ATOM      4  C   UNL     1       2.109   2.602  19.641  0.00  0.00    +0.000 A 
ATOM      5  C   UNL     1       1.172   3.105  20.541  0.00  0.00    +0.000 A 
ATOM      6  C   UNL     1       0.853   4.458  20.527  0.00  0.00    +0.000 A 
ATOM      7  C   UNL     1       1.511   5.321  19.643  0.00  0.00    +0.000 A 
ATOM      8  C   UNL     1       2.510   4.856  18.799  0.00  0.00    +0.000 A 
ATOM      9  N   UNL     1       3.388   5.524  17.890  0.00  0.00    +0.000 N 
ATOM     10  C   UNL     1       3.440   6.876  17.499  0.00  0.00    +0.000 C 
ATOM     11  O   UNL     1       4.221   7.308  16.646  0.00  0.00    +0.000 OA
ENDROOT
BRANCH   1  15
ATOM     12  C   UNL     1       8.181   4.436  17.920  0.00  0.00    +0.000 C 
ATOM     13  N   UNL     1       6.878   4.615  17.293  0.00  0.00    +0.000 N 
ATOM     14  C   UNL     1       6.855   5.146  15.939  0.00  0.00    +0.000 C 
ATOM     15  C   UNL     1       5.733   4.469  18.095  0.00  0.00    +0.000 C 
ATOM     16  O   UNL     1       5.831   4.185  19.292  0.00  0.00    +0.000 OA
ENDBRANCH   1  15
BRANCH  10  17
ATOM     17  C   UNL     1       2.468   7.775  18.241  0.00  0.00    +0.000 C 
BRANCH  17  18
ATOM     18  C   UNL     1       1.895   9.158  17.891  0.00  0.00    +0.000 C 
BRANCH  18  19
ATOM     19  N   UNL     1       0.818   9.497  18.875  0.00  0.00    +0.000 NA
ATOM     20  C   UNL     1      -0.511   9.896  18.386  0.00  0.00    +0.000 C 
ATOM     21  C   UNL     1      -0.908  11.407  18.446  0.00  0.00    +0.000 C 
ATOM     22  C   UNL     1      -0.306  12.182  19.643  0.00  0.00    +0.000 C 
ATOM     23  C   UNL     1      -0.369  13.701  19.574  0.00  0.00    +0.000 A 
ATOM     24  C   UNL     1      -1.427  14.386  20.188  0.00  0.00    +0.000 A 
ATOM     25  C   UNL     1      -1.421  15.782  20.268  0.00  0.00    +0.000 A 
ATOM     26  C   UNL     1      -0.374  16.511  19.713  0.00  0.00    +0.000 A 
ATOM     27  C   UNL     1       0.677  15.849  19.090  0.00  0.00    +0.000 A 
ATOM     28  C   UNL     1       0.702  14.447  19.036  0.00  0.00    +0.000 A 
ATOM     29  C   UNL     1       1.952  13.798  18.492  0.00  0.00    +0.000 C 
ATOM     30  C   UNL     1       1.970  12.280  18.609  0.00  0.00    +0.000 C 
ATOM     31  C   UNL     1       1.158  11.789  19.819  0.00  0.00    +0.000 C 
ATOM     32  C   UNL     1       1.185  10.288  20.046  0.00  0.00    +0.000 C 
ENDBRANCH  18  19
ENDBRANCH  17  18
ENDBRANCH  10  17
TORSDOF 4
ENDMDL
MODEL 8
REMARK VINA RESULT:      -8.6      1.753      2.537
REMARK  Name = 
REMARK  6 active torsions:
REMARK  status: ('A' for Active; 'I' for Inactive)
REMARK    1  A    between atoms: C_1  and  N_2
REMARK    2  A    between atoms: N_2  and  C_3
REMARK    3  A    between atoms: C_4  and  C_6
REMARK    4  A    between atoms: C_15  and  C_17
REMARK    5  A    between atoms: C_17  and  C_18
REMARK    6  A    between atoms: C_18  and  N_19
REMARK                            x       y       z     vdW  Elec       q    Type
REMARK                         _______ _______ _______ _____ _____    ______ ____
ROOT
ATOM      1  C   UNL     1       3.958   4.993  17.416  0.00  0.00    +0.000 C 
ATOM      2  C   UNL     1       3.525   3.512  17.349  0.00  0.00    +0.000 C 
ATOM      3  C   UNL     1       2.719   3.378  18.604  0.00  0.00    +0.000 A 
ATOM      4  C   UNL     1       2.312   2.197  19.221  0.00  0.00    +0.000 A 
ATOM      5  C   UNL     1       1.460   2.270  20.322  0.00  0.00    +0.000 A 
ATOM      6  C   UNL     1       0.981   3.503  20.749  0.00  0.00    +0.000 A 
ATOM      7  C   UNL     1       1.396   4.674  20.104  0.00  0.00    +0.000 A 
ATOM      8  C   UNL     1       2.312   4.632  19.063  0.00  0.00    +0.000 A 
ATOM      9  N   UNL     1       2.963   5.661  18.313  0.00  0.00    +0.000 N 
ATOM     10  C   UNL     1       2.794   7.058  18.344  0.00  0.00    +0.000 C 
ATOM     11  O   UNL     1       3.386   7.833  17.587  0.00  0.00    +0.000 OA
ENDROOT
BRANCH   1  15
ATOM     12  C   UNL     1       7.792   4.491  17.534  0.00  0.00    +0.000 C 
ATOM     13  N   UNL     1       6.437   4.663  17.029  0.00  0.00    +0.000 N 
ATOM     14  C   UNL     1       6.262   4.716  15.586  0.00  0.00    +0.000 C 
ATOM     15  C   UNL     1       5.423   4.976  17.950  0.00  0.00    +0.000 C 
ATOM     16  O   UNL     1       5.674   5.088  19.154  0.00  0.00    +0.000 OA
ENDBRANCH   1  15
BRANCH  10  17
ATOM     17  C   UNL     1       1.837   7.544  19.418  0.00  0.00    +0.000 C 
BRANCH  17  18
ATOM     18  C   UNL     1       1.539   8.956  19.948  0.00  0.00    +0.000 C 
BRANCH  18  19
ATOM     19  N   UNL     1       1.078   9.812  18.809  0.00  0.00    +0.000 NA
ATOM     20  C   UNL     1       1.983  10.831  18.255  0.00  0.00    +0.000 C 
ATOM     21  C   UNL     1       1.726  12.332  18.610  0.00  0.00    +0.000 C 
ATOM     22  C   UNL     1       0.234  12.702  18.797  0.00  0.00    +0.000 C 
ATOM     23  C   UNL     1      -0.060  14.036  19.467  0.00  0.00    +0.000 A 
ATOM     24  C   UNL     1      -0.298  15.175  18.684  0.00  0.00    +0.000 A 
ATOM     25  C   UNL     1      -0.720  16.370  19.274  0.00  0.00    +0.000 A 
ATOM     26  C   UNL     1      -0.884  16.450  20.654  0.00  0.00    +0.000 A 
ATOM     27  C   UNL     1      -0.641  15.335  21.446  0.00  0.00    +0.000 A 
ATOM     28  C   UNL     1      -0.253  14.119  20.863  0.00  0.00    +0.000 A 
ATOM     29  C   UNL     1      -0.169  12.913  21.767  0.00  0.00    +0.000 C 
ATOM     30  C   UNL     1       0.103  11.603  21.041  0.00  0.00    +0.000 C 
ATOM     31  C   UNL     1      -0.461  11.614  19.611  0.00  0.00    +0.000 C 
ATOM     32  C   UNL     1      -0.293  10.315  18.843  0.00  0.00    +0.000 C 
ENDBRANCH  18  19
ENDBRANCH  17  18
ENDBRANCH  10  17
TORSDOF 4
ENDMDL
MODEL 9
REMARK VINA RESULT:      -8.6      1.924      4.032
REMARK  Name = 
REMARK  6 active torsions:
REMARK  status: ('A' for Active; 'I' for Inactive)
REMARK    1  A    between atoms: C_1  and  N_2
REMARK    2  A    between atoms: N_2  and  C_3
REMARK    3  A    between atoms: C_4  and  C_6
REMARK    4  A    between atoms: C_15  and  C_17
REMARK    5  A    between atoms: C_17  and  C_18
REMARK    6  A    between atoms: C_18  and  N_19
REMARK                            x       y       z     vdW  Elec       q    Type
REMARK                         _______ _______ _______ _____ _____    ______ ____
ROOT
ATOM      1  C   UNL     1       3.512   4.326  19.021  0.00  0.00    +0.000 C 
ATOM      2  C   UNL     1       4.832   3.702  18.516  0.00  0.00    +0.000 C 
ATOM      3  C   UNL     1       5.085   4.501  17.275  0.00  0.00    +0.000 A 
ATOM      4  C   UNL     1       5.977   4.200  16.248  0.00  0.00    +0.000 A 
ATOM      5  C   UNL     1       6.166   5.128  15.225  0.00  0.00    +0.000 A 
ATOM      6  C   UNL     1       5.517   6.356  15.273  0.00  0.00    +0.000 A 
ATOM      7  C   UNL     1       4.634   6.639  16.322  0.00  0.00    +0.000 A 
ATOM      8  C   UNL     1       4.364   5.695  17.304  0.00  0.00    +0.000 A 
ATOM      9  N   UNL     1       3.452   5.688  18.405  0.00  0.00    +0.000 N 
ATOM     10  C   UNL     1       2.602   6.700  18.892  0.00  0.00    +0.000 C 
ATOM     11  O   UNL     1       1.905   6.576  19.903  0.00  0.00    +0.000 OA
ENDROOT
BRANCH   1  15
ATOM     12  C   UNL     1       0.639   1.741  19.197  0.00  0.00    +0.000 C 
ATOM     13  N   UNL     1       1.593   2.774  19.579  0.00  0.00    +0.000 N 
ATOM     14  C   UNL     1       1.507   3.297  20.933  0.00  0.00    +0.000 C 
ATOM     15  C   UNL     1       2.388   3.345  18.570  0.00  0.00    +0.000 C 
ATOM     16  O   UNL     1       2.287   2.972  17.398  0.00  0.00    +0.000 OA
ENDBRANCH   1  15
BRANCH  10  17
ATOM     17  C   UNL     1       2.587   7.959  18.044  0.00  0.00    +0.000 C 
BRANCH  17  18
ATOM     18  C   UNL     1       2.917   9.420  18.392  0.00  0.00    +0.000 C 
BRANCH  18  19
ATOM     19  N   UNL     1       1.776  10.289  17.958  0.00  0.00    +0.000 NA
ATOM     20  C   UNL     1       1.832  11.737  18.210  0.00  0.00    +0.000 C 
ATOM     21  C   UNL     1       0.966  12.329  19.369  0.00  0.00    +0.000 C 
ATOM     22  C   UNL     1      -0.377  11.597  19.607  0.00  0.00    +0.000 C 
ATOM     23  C   UNL     1      -1.097  11.896  20.913  0.00  0.00    +0.000 A 
ATOM     24  C   UNL     1      -2.096  12.880  20.952  0.00  0.00    +0.000 A 
ATOM     25  C   UNL     1      -2.872  13.063  22.101  0.00  0.00    +0.000 A 
ATOM     26  C   UNL     1      -2.643  12.285  23.232  0.00  0.00    +0.000 A 
ATOM     27  C   UNL     1      -1.649  11.313  23.215  0.00  0.00    +0.000 A 
ATOM     28  C   UNL     1      -0.888  11.095  22.056  0.00  0.00    +0.000 A 
ATOM     29  C   UNL     1       0.055   9.916  22.060  0.00  0.00    +0.000 C 
ATOM     30  C   UNL     1       0.728   9.648  20.721  0.00  0.00    +0.000 C 
ATOM     31  C   UNL     1      -0.152  10.088  19.540  0.00  0.00    +0.000 C 
ATOM     32  C   UNL     1       0.419   9.790  18.165  0.00  0.00    +0.000 C 
ENDBRANCH  18  19
ENDBRANCH  17  18
ENDBRANCH  10  17
TORSDOF 4
ENDMDL
