MODEL 1
REMARK VINA RESULT:      -8.6      0.000      0.000
REMARK  Name = 
REMARK  4 active torsions:
REMARK  status: ('A' for Active; 'I' for Inactive)
REMARK    1  A    between atoms: C_2  and  C_3
REMARK    2  A    between atoms: C_6  and  C_7
REMARK    3  A    between atoms: C_12  and  O_13
REMARK    4  A    between atoms: O_13  and  C_14
REMARK                            x       y       z     vdW  Elec       q    Type
REMARK                         _______ _______ _______ _____ _____    ______ ____
ROOT
ATOM      1  O   UNL     1       7.476   5.367  17.569  0.00  0.00    +0.000 OA
ENDROOT
BRANCH   1   2
ATOM      2  C   UNL     1       7.168   6.663  18.173  0.00  0.00    +0.000 C 
ATOM      3  C   UNL     1       8.351   7.319  18.907  0.00  0.00    +0.000 C 
ATOM      4  N   UNL     1       8.299   8.435  18.008  0.00  0.00    +0.000 N 
ATOM      5  C   UNL     1       8.663   9.779  18.324  0.00  0.00    +0.000 A 
ATOM      6  C   UNL     1       9.584   9.973  19.353  0.00  0.00    +0.000 A 
ATOM      7  C   UNL     1       9.856  11.258  19.825  0.00  0.00    +0.000 A 
ATOM      8  C   UNL     1       9.255  12.347  19.219  0.00  0.00    +0.000 A 
ATOM      9  C   UNL     1       9.479  13.651  19.719  0.00  0.00    +0.000 A 
ATOM     10  C   UNL     1       8.945  14.758  19.069  0.00  0.00    +0.000 A 
ATOM     11  C   UNL     1       8.213  14.561  17.905  0.00  0.00    +0.000 A 
ATOM     12  C   UNL     1       7.964  13.255  17.440  0.00  0.00    +0.000 A 
ATOM     13  C   UNL     1       8.440  12.114  18.096  0.00  0.00    +0.000 A 
ATOM     14  N   UNL     1       8.131  10.849  17.675  0.00  0.00    +0.000 NA
ATOM     15  C   UNL     1       7.145   7.948  17.307  0.00  0.00    +0.000 C 
ENDBRANCH   1   2
BRANCH   1  21
ATOM     16  C   UNL     1       5.559   4.515  16.341  0.00  0.00    +0.000 A 
ATOM     17  N   UNL     1       5.000   4.076  15.173  0.00  0.00    +0.000 NA
ATOM     18  C   UNL     1       5.750   4.192  14.063  0.00  0.00    +0.000 A 
ATOM     19  C   UNL     1       7.011   4.747  14.089  0.00  0.00    +0.000 A 
ATOM     20  N   UNL     1       7.605   5.189  15.230  0.00  0.00    +0.000 NA
ATOM     21  C   UNL     1       6.872   5.048  16.360  0.00  0.00    +0.000 A 
BRANCH  16  25
ATOM     22  C   UNL     1       2.952   3.827  19.605  0.00  0.00    +0.000 A 
ATOM     23  C   UNL     1       2.548   4.718  18.626  0.00  0.00    +0.000 A 
ATOM     24  C   UNL     1       3.426   4.973  17.574  0.00  0.00    +0.000 A 
ATOM     25  C   UNL     1       4.678   4.333  17.505  0.00  0.00    +0.000 A 
ATOM     26  C   UNL     1       5.017   3.549  18.603  0.00  0.00    +0.000 A 
ATOM     27  N   UNL     1       4.189   3.273  19.643  0.00  0.00    +0.000 NA
BRANCH  22  29
ATOM     28  N   UNL     1       1.316   2.958  21.423  0.00  0.00    +0.000 NA
ATOM     29  C   UNL     1       2.021   3.362  20.591  0.00  0.00    +0.000 C 
ENDBRANCH  22  29
ENDBRANCH  16  25
ENDBRANCH   1  21
TORSDOF 4
ENDMDL
MODEL 2
REMARK VINA RESULT:      -8.4      5.216      7.212
REMARK  Name = 
REMARK  4 active torsions:
REMARK  status: ('A' for Active; 'I' for Inactive)
REMARK    1  A    between atoms: C_2  and  C_3
REMARK    2  A    between atoms: C_6  and  C_7
REMARK    3  A    between atoms: C_12  and  O_13
REMARK    4  A    between atoms: O_13  and  C_14
REMARK                            x       y       z     vdW  Elec       q    Type
REMARK                         _______ _______ _______ _____ _____    ______ ____
ROOT
ATOM      1  O   UNL     1       2.241   5.943  19.012  0.00  0.00    +0.000 OA
ENDROOT
BRANCH   1   2
ATOM      2  C   UNL     1       2.496   7.270  19.572  0.00  0.00    +0.000 C 
ATOM      3  C   UNL     1       2.158   8.435  18.624  0.00  0.00    +0.000 C 
ATOM      4  N   UNL     1       1.183   8.920  19.557  0.00  0.00    +0.000 N 
ATOM      5  C   UNL     1       0.810  10.286  19.738  0.00  0.00    +0.000 A 
ATOM      6  C   UNL     1       0.985  11.152  18.659  0.00  0.00    +0.000 A 
ATOM      7  C   UNL     1       0.801  12.526  18.818  0.00  0.00    +0.000 A 
ATOM      8  C   UNL     1       0.378  13.020  20.040  0.00  0.00    +0.000 A 
ATOM      9  C   UNL     1       0.238  14.413  20.233  0.00  0.00    +0.000 A 
ATOM     10  C   UNL     1      -0.262  14.914  21.430  0.00  0.00    +0.000 A 
ATOM     11  C   UNL     1      -0.648  14.019  22.419  0.00  0.00    +0.000 A 
ATOM     12  C   UNL     1      -0.467  12.635  22.229  0.00  0.00    +0.000 A 
ATOM     13  C   UNL     1       0.082  12.097  21.060  0.00  0.00    +0.000 A 
ATOM     14  N   UNL     1       0.320  10.757  20.917  0.00  0.00    +0.000 NA
ATOM     15  C   UNL     1       1.479   7.920  20.544  0.00  0.00    +0.000 C 
ENDBRANCH   1   2
BRANCH   1  21
ATOM     16  C   UNL     1       3.525   3.928  19.460  0.00  0.00    +0.000 A 
ATOM     17  N   UNL     1       3.703   2.768  20.162  0.00  0.00    +0.000 NA
ATOM     18  C   UNL     1       2.868   2.551  21.193  0.00  0.00    +0.000 A 
ATOM     19  C   UNL     1       1.894   3.460  21.547  0.00  0.00    +0.000 A 
ATOM     20  N   UNL     1       1.681   4.622  20.872  0.00  0.00    +0.000 NA
ATOM     21  C   UNL     1       2.495   4.835  19.811  0.00  0.00    +0.000 A 
BRANCH  16  25
ATOM     22  C   UNL     1       6.186   4.536  16.224  0.00  0.00    +0.000 A 
ATOM     23  C   UNL     1       4.938   4.004  15.950  0.00  0.00    +0.000 A 
ATOM     24  C   UNL     1       4.080   3.767  17.022  0.00  0.00    +0.000 A 
ATOM     25  C   UNL     1       4.467   4.073  18.341  0.00  0.00    +0.000 A 
ATOM     26  C   UNL     1       5.784   4.494  18.501  0.00  0.00    +0.000 A 
ATOM     27  N   UNL     1       6.647   4.741  17.482  0.00  0.00    +0.000 NA
BRANCH  22  29
ATOM     28  N   UNL     1       7.726   5.424  14.333  0.00  0.00    +0.000 NA
ATOM     29  C   UNL     1       7.028   4.998  15.159  0.00  0.00    +0.000 C 
ENDBRANCH  22  29
ENDBRANCH  16  25
ENDBRANCH   1  21
TORSDOF 4
ENDMDL
MODEL 3
REMARK VINA RESULT:      -8.4      5.483      7.779
REMARK  Name = 
REMARK  4 active torsions:
REMARK  status: ('A' for Active; 'I' for Inactive)
REMARK    1  A    between atoms: C_2  and  C_3
REMARK    2  A    between atoms: C_6  and  C_7
REMARK    3  A    between atoms: C_12  and  O_13
REMARK    4  A    between atoms: O_13  and  C_14
REMARK                            x       y       z     vdW  Elec       q    Type
REMARK                         _______ _______ _______ _____ _____    ______ ____
ROOT
ATOM      1  O   UNL     1       3.088   6.173  19.634  0.00  0.00    +0.000 OA
ENDROOT
BRANCH   1   2
ATOM      2  C   UNL     1       1.840   6.934  19.682  0.00  0.00    +0.000 C 
ATOM      3  C   UNL     1       1.342   7.248  21.104  0.00  0.00    +0.000 C 
ATOM      4  N   UNL     1       1.453   8.653  20.840  0.00  0.00    +0.000 N 
ATOM      5  C   UNL     1       0.641   9.677  21.416  0.00  0.00    +0.000 A 
ATOM      6  C   UNL     1       0.058   9.417  22.657  0.00  0.00    +0.000 A 
ATOM      7  C   UNL     1      -0.877  10.301  23.197  0.00  0.00    +0.000 A 
ATOM      8  C   UNL     1      -1.175  11.472  22.524  0.00  0.00    +0.000 A 
ATOM      9  C   UNL     1      -2.159  12.352  23.031  0.00  0.00    +0.000 A 
ATOM     10  C   UNL     1      -2.408  13.569  22.406  0.00  0.00    +0.000 A 
ATOM     11  C   UNL     1      -1.653  13.916  21.293  0.00  0.00    +0.000 A 
ATOM     12  C   UNL     1      -0.703  13.014  20.775  0.00  0.00    +0.000 A 
ATOM     13  C   UNL     1      -0.462  11.758  21.345  0.00  0.00    +0.000 A 
ATOM     14  N   UNL     1       0.410  10.862  20.790  0.00  0.00    +0.000 NA
ATOM     15  C   UNL     1       1.847   8.469  19.472  0.00  0.00    +0.000 C 
ENDBRANCH   1   2
BRANCH   1  21
ATOM     16  C   UNL     1       3.829   3.862  19.504  0.00  0.00    +0.000 A 
ATOM     17  N   UNL     1       3.738   2.563  19.923  0.00  0.00    +0.000 NA
ATOM     18  C   UNL     1       2.933   2.321  20.972  0.00  0.00    +0.000 A 
ATOM     19  C   UNL     1       2.249   3.331  21.615  0.00  0.00    +0.000 A 
ATOM     20  N   UNL     1       2.307   4.633  21.226  0.00  0.00    +0.000 NA
ATOM     21  C   UNL     1       3.089   4.884  20.149  0.00  0.00    +0.000 A 
BRANCH  16  25
ATOM     22  C   UNL     1       6.328   4.540  16.155  0.00  0.00    +0.000 A 
ATOM     23  C   UNL     1       5.057   4.039  15.928  0.00  0.00    +0.000 A 
ATOM     24  C   UNL     1       4.252   3.779  17.035  0.00  0.00    +0.000 A 
ATOM     25  C   UNL     1       4.714   4.030  18.341  0.00  0.00    +0.000 A 
ATOM     26  C   UNL     1       6.044   4.424  18.446  0.00  0.00    +0.000 A 
ATOM     27  N   UNL     1       6.858   4.692  17.393  0.00  0.00    +0.000 NA
BRANCH  22  29
ATOM     28  N   UNL     1       7.712   5.451  14.157  0.00  0.00    +0.000 NA
ATOM     29  C   UNL     1       7.121   5.025  15.063  0.00  0.00    +0.000 C 
ENDBRANCH  22  29
ENDBRANCH  16  25
ENDBRANCH   1  21
TORSDOF 4
ENDMDL
MODEL 4
REMARK VINA RESULT:      -8.3      6.866      9.588
REMARK  Name = 
REMARK  4 active torsions:
REMARK  status: ('A' for Active; 'I' for Inactive)
REMARK    1  A    between atoms: C_2  and  C_3
REMARK    2  A    between atoms: C_6  and  C_7
REMARK    3  A    between atoms: C_12  and  O_13
REMARK    4  A    between atoms: O_13  and  C_14
REMARK                            x       y       z     vdW  Elec       q    Type
REMARK                         _______ _______ _______ _____ _____    ______ ____
ROOT
ATOM      1  O   UNL     1      -0.372   9.782  20.660  0.00  0.00    +0.000 OA
ENDROOT
BRANCH   1   2
ATOM      2  C   UNL     1       1.037   9.488  20.397  0.00  0.00    +0.000 C 
ATOM      3  C   UNL     1       1.460   8.049  20.744  0.00  0.00    +0.000 C 
ATOM      4  N   UNL     1       1.807   7.813  19.373  0.00  0.00    +0.000 N 
ATOM      5  C   UNL     1       2.828   6.928  18.911  0.00  0.00    +0.000 A 
ATOM      6  C   UNL     1       3.177   5.859  19.736  0.00  0.00    +0.000 A 
ATOM      7  C   UNL     1       4.276   5.057  19.426  0.00  0.00    +0.000 A 
ATOM      8  C   UNL     1       4.981   5.289  18.258  0.00  0.00    +0.000 A 
ATOM      9  C   UNL     1       6.128   4.520  17.956  0.00  0.00    +0.000 A 
ATOM     10  C   UNL     1       6.796   4.691  16.748  0.00  0.00    +0.000 A 
ATOM     11  C   UNL     1       6.296   5.609  15.833  0.00  0.00    +0.000 A 
ATOM     12  C   UNL     1       5.176   6.396  16.162  0.00  0.00    +0.000 A 
ATOM     13  C   UNL     1       4.510   6.290  17.389  0.00  0.00    +0.000 A 
ATOM     14  N   UNL     1       3.468   7.111  17.725  0.00  0.00    +0.000 NA
ATOM     15  C   UNL     1       1.515   9.157  18.961  0.00  0.00    +0.000 C 
ENDBRANCH   1   2
BRANCH   1  21
ATOM     16  C   UNL     1      -1.508  11.837  20.030  0.00  0.00    +0.000 A 
ATOM     17  N   UNL     1      -1.755  13.165  20.237  0.00  0.00    +0.000 NA
ATOM     18  C   UNL     1      -1.231  13.712  21.349  0.00  0.00    +0.000 A 
ATOM     19  C   UNL     1      -0.502  12.969  22.252  0.00  0.00    +0.000 A 
ATOM     20  N   UNL     1      -0.229  11.647  22.080  0.00  0.00    +0.000 NA
ATOM     21  C   UNL     1      -0.724  11.095  20.948  0.00  0.00    +0.000 A 
BRANCH  16  25
ATOM     22  C   UNL     1      -3.133  10.529  16.346  0.00  0.00    +0.000 A 
ATOM     23  C   UNL     1      -3.946  11.265  17.191  0.00  0.00    +0.000 A 
ATOM     24  C   UNL     1      -3.421  11.659  18.421  0.00  0.00    +0.000 A 
ATOM     25  C   UNL     1      -2.101  11.329  18.783  0.00  0.00    +0.000 A 
ATOM     26  C   UNL     1      -1.424  10.492  17.902  0.00  0.00    +0.000 A 
ATOM     27  N   UNL     1      -1.899  10.092  16.695  0.00  0.00    +0.000 NA
BRANCH  22  29
ATOM     28  N   UNL     1      -3.917  10.052  13.918  0.00  0.00    +0.000 NA
ATOM     29  C   UNL     1      -3.535  10.277  14.992  0.00  0.00    +0.000 C 
ENDBRANCH  22  29
ENDBRANCH  16  25
ENDBRANCH   1  21
TORSDOF 4
ENDMDL
MODEL 5
REMARK VINA RESULT:      -8.2      4.989      7.131
REMARK  Name = 
REMARK  4 active torsions:
REMARK  status: ('A' for Active; 'I' for Inactive)
REMARK    1  A    between atoms: C_2  and  C_3
REMARK    2  A    between atoms: C_6  and  C_7
REMARK    3  A    between atoms: C_12  and  O_13
REMARK    4  A    between atoms: O_13  and  C_14
REMARK                            x       y       z     vdW  Elec       q    Type
REMARK                         _______ _______ _______ _____ _____    ______ ____
ROOT
ATOM      1  O   UNL     1       3.010   5.139  20.303  0.00  0.00    +0.000 OA
ENDROOT
BRANCH   1   2
ATOM      2  C   UNL     1       1.910   6.038  19.952  0.00  0.00    +0.000 C 
ATOM      3  C   UNL     1       1.323   6.818  21.142  0.00  0.00    +0.000 C 
ATOM      4  N   UNL     1       1.698   8.056  20.524  0.00  0.00    +0.000 N 
ATOM      5  C   UNL     1       1.013   9.301  20.669  0.00  0.00    +0.000 A 
ATOM      6  C   UNL     1       0.265   9.495  21.830  0.00  0.00    +0.000 A 
ATOM      7  C   UNL     1      -0.560  10.613  21.960  0.00  0.00    +0.000 A 
ATOM      8  C   UNL     1      -0.582  11.565  20.956  0.00  0.00    +0.000 A 
ATOM      9  C   UNL     1      -1.450  12.676  21.048  0.00  0.00    +0.000 A 
ATOM     10  C   UNL     1      -1.422  13.678  20.085  0.00  0.00    +0.000 A 
ATOM     11  C   UNL     1      -0.503  13.581  19.047  0.00  0.00    +0.000 A 
ATOM     12  C   UNL     1       0.330  12.450  18.945  0.00  0.00    +0.000 A 
ATOM     13  C   UNL     1       0.292  11.396  19.866  0.00  0.00    +0.000 A 
ATOM     14  N   UNL     1       1.056  10.271  19.715  0.00  0.00    +0.000 NA
ATOM     15  C   UNL     1       2.200   7.429  19.335  0.00  0.00    +0.000 C 
ENDBRANCH   1   2
BRANCH   1  21
ATOM     16  C   UNL     1       4.143   3.904  18.543  0.00  0.00    +0.000 A 
ATOM     17  N   UNL     1       4.221   2.813  17.723  0.00  0.00    +0.000 NA
ATOM     18  C   UNL     1       3.340   1.822  17.949  0.00  0.00    +0.000 A 
ATOM     19  C   UNL     1       2.417   1.886  18.971  0.00  0.00    +0.000 A 
ATOM     20  N   UNL     1       2.303   2.956  19.804  0.00  0.00    +0.000 NA
ATOM     21  C   UNL     1       3.164   3.973  19.565  0.00  0.00    +0.000 A 
BRANCH  16  25
ATOM     22  C   UNL     1       6.902   7.010  17.731  0.00  0.00    +0.000 A 
ATOM     23  C   UNL     1       5.779   6.912  16.928  0.00  0.00    +0.000 A 
ATOM     24  C   UNL     1       4.893   5.863  17.172  0.00  0.00    +0.000 A 
ATOM     25  C   UNL     1       5.129   4.943  18.212  0.00  0.00    +0.000 A 
ATOM     26  C   UNL     1       6.346   5.079  18.873  0.00  0.00    +0.000 A 
ATOM     27  N   UNL     1       7.231   6.088  18.667  0.00  0.00    +0.000 NA
BRANCH  22  29
ATOM     28  N   UNL     1       8.379   9.144  17.678  0.00  0.00    +0.000 NA
ATOM     29  C   UNL     1       7.735   8.177  17.672  0.00  0.00    +0.000 C 
ENDBRANCH  22  29
ENDBRANCH  16  25
ENDBRANCH   1  21
TORSDOF 4
ENDMDL
MODEL 6
REMARK VINA RESULT:      -8.1      5.504      7.576
REMARK  Name = 
REMARK  4 active torsions:
REMARK  status: ('A' for Active; 'I' for Inactive)
REMARK    1  A    between atoms: C_2  and  C_3
REMARK    2  A    between atoms: C_6  and  C_7
REMARK    3  A    between atoms: C_12  and  O_13
REMARK    4  A    between atoms: O_13  and  C_14
REMARK                            x       y       z     vdW  Elec       q    Type
REMARK                         _______ _______ _______ _____ _____    ______ ____
ROOT
ATOM      1  O   UNL     1       2.051   6.046  19.317  0.00  0.00    +0.000 OA
ENDROOT
BRANCH   1   2
ATOM      2  C   UNL     1       2.225   7.319  20.016  0.00  0.00    +0.000 C 
ATOM      3  C   UNL     1       1.906   8.560  19.163  0.00  0.00    +0.000 C 
ATOM      4  N   UNL     1       0.860   8.925  20.073  0.00  0.00    +0.000 N 
ATOM      5  C   UNL     1       0.431  10.257  20.359  0.00  0.00    +0.000 A 
ATOM      6  C   UNL     1       0.642  11.227  19.380  0.00  0.00    +0.000 A 
ATOM      7  C   UNL     1       0.401  12.574  19.657  0.00  0.00    +0.000 A 
ATOM      8  C   UNL     1      -0.112  12.935  20.891  0.00  0.00    +0.000 A 
ATOM      9  C   UNL     1      -0.311  14.298  21.206  0.00  0.00    +0.000 A 
ATOM     10  C   UNL     1      -0.901  14.667  22.411  0.00  0.00    +0.000 A 
ATOM     11  C   UNL     1      -1.316  13.669  23.284  0.00  0.00    +0.000 A 
ATOM     12  C   UNL     1      -1.076  12.316  22.975  0.00  0.00    +0.000 A 
ATOM     13  C   UNL     1      -0.438  11.909  21.797  0.00  0.00    +0.000 A 
ATOM     14  N   UNL     1      -0.146  10.597  21.543  0.00  0.00    +0.000 NA
ATOM     15  C   UNL     1       1.129   7.843  20.977  0.00  0.00    +0.000 C 
ENDBRANCH   1   2
BRANCH   1  21
ATOM     16  C   UNL     1       3.556   4.138  19.391  0.00  0.00    +0.000 A 
ATOM     17  N   UNL     1       3.914   2.932  19.925  0.00  0.00    +0.000 NA
ATOM     18  C   UNL     1       3.218   2.514  20.996  0.00  0.00    +0.000 A 
ATOM     19  C   UNL     1       2.207   3.271  21.550  0.00  0.00    +0.000 A 
ATOM     20  N   UNL     1       1.817   4.472  21.046  0.00  0.00    +0.000 NA
ATOM     21  C   UNL     1       2.489   4.888  19.947  0.00  0.00    +0.000 A 
BRANCH  16  25
ATOM     22  C   UNL     1       5.988   5.056  16.050  0.00  0.00    +0.000 A 
ATOM     23  C   UNL     1       6.134   5.825  17.191  0.00  0.00    +0.000 A 
ATOM     24  C   UNL     1       5.303   5.547  18.275  0.00  0.00    +0.000 A 
ATOM     25  C   UNL     1       4.356   4.507  18.213  0.00  0.00    +0.000 A 
ATOM     26  C   UNL     1       4.226   3.882  16.977  0.00  0.00    +0.000 A 
ATOM     27  N   UNL     1       5.018   4.121  15.901  0.00  0.00    +0.000 NA
BRANCH  22  29
ATOM     28  N   UNL     1       7.720   5.290  14.130  0.00  0.00    +0.000 NA
ATOM     29  C   UNL     1       6.946   5.149  14.986  0.00  0.00    +0.000 C 
ENDBRANCH  22  29
ENDBRANCH  16  25
ENDBRANCH   1  21
TORSDOF 4
ENDMDL
MODEL 7
REMARK VINA RESULT:      -8.1      7.273     10.807
REMARK  Name = 
REMARK  4 active torsions:
REMARK  status: ('A' for Active; 'I' for Inactive)
REMARK    1  A    between atoms: C_2  and  C_3
REMARK    2  A    between atoms: C_6  and  C_7
REMARK    3  A    between atoms: C_12  and  O_13
REMARK    4  A    between atoms: O_13  and  C_14
REMARK                            x       y       z     vdW  Elec       q    Type
REMARK                         _______ _______ _______ _____ _____    ______ ____
ROOT
ATOM      1  O   UNL     1       1.221  11.529  21.280  0.00  0.00    +0.000 OA
ENDROOT
BRANCH   1   2
ATOM      2  C   UNL     1       0.664  10.272  20.782  0.00  0.00    +0.000 C 
ATOM      3  C   UNL     1       1.463   9.634  19.631  0.00  0.00    +0.000 C 
ATOM      4  N   UNL     1       1.713   8.475  20.438  0.00  0.00    +0.000 N 
ATOM      5  C   UNL     1       1.885   7.143  19.952  0.00  0.00    +0.000 A 
ATOM      6  C   UNL     1       2.347   6.987  18.645  0.00  0.00    +0.000 A 
ATOM      7  C   UNL     1       2.378   5.724  18.053  0.00  0.00    +0.000 A 
ATOM      8  C   UNL     1       2.009   4.615  18.794  0.00  0.00    +0.000 A 
ATOM      9  C   UNL     1       1.985   3.335  18.194  0.00  0.00    +0.000 A 
ATOM     10  C   UNL     1       1.694   2.205  18.950  0.00  0.00    +0.000 A 
ATOM     11  C   UNL     1       1.458   2.354  20.311  0.00  0.00    +0.000 A 
ATOM     12  C   UNL     1       1.447   3.639  20.889  0.00  0.00    +0.000 A 
ATOM     13  C   UNL     1       1.682   4.804  20.150  0.00  0.00    +0.000 A 
ATOM     14  N   UNL     1       1.597   6.050  20.709  0.00  0.00    +0.000 NA
ATOM     15  C   UNL     1       0.922   8.945  21.540  0.00  0.00    +0.000 C 
ENDBRANCH   1   2
BRANCH   1  21
ATOM     16  C   UNL     1      -0.015  13.480  20.520  0.00  0.00    +0.000 A 
ATOM     17  N   UNL     1      -0.173  14.512  19.637  0.00  0.00    +0.000 NA
ATOM     18  C   UNL     1       0.813  14.700  18.743  0.00  0.00    +0.000 A 
ATOM     19  C   UNL     1       1.942  13.910  18.726  0.00  0.00    +0.000 A 
ATOM     20  N   UNL     1       2.136  12.870  19.582  0.00  0.00    +0.000 NA
ATOM     21  C   UNL     1       1.134  12.652  20.466  0.00  0.00    +0.000 A 
BRANCH  16  25
ATOM     22  C   UNL     1      -3.209  12.887  23.234  0.00  0.00    +0.000 A 
ATOM     23  C   UNL     1      -3.443  12.645  21.891  0.00  0.00    +0.000 A 
ATOM     24  C   UNL     1      -2.401  12.881  20.996  0.00  0.00    +0.000 A 
ATOM     25  C   UNL     1      -1.148  13.337  21.446  0.00  0.00    +0.000 A 
ATOM     26  C   UNL     1      -1.071  13.652  22.800  0.00  0.00    +0.000 A 
ATOM     27  N   UNL     1      -2.060  13.432  23.703  0.00  0.00    +0.000 NA
BRANCH  22  29
ATOM     28  N   UNL     1      -4.911  12.065  25.012  0.00  0.00    +0.000 NA
ATOM     29  C   UNL     1      -4.160  12.467  24.222  0.00  0.00    +0.000 C 
ENDBRANCH  22  29
ENDBRANCH  16  25
ENDBRANCH   1  21
TORSDOF 4
ENDMDL
MODEL 8
REMARK VINA RESULT:      -8.1      5.226      7.522
REMARK  Name = 
REMARK  4 active torsions:
REMARK  status: ('A' for Active; 'I' for Inactive)
REMARK    1  A    between atoms: C_2  and  C_3
REMARK    2  A    between atoms: C_6  and  C_7
REMARK    3  A    between atoms: C_12  and  O_13
REMARK    4  A    between atoms: O_13  and  C_14
REMARK                            x       y       z     vdW  Elec       q    Type
REMARK                         _______ _______ _______ _____ _____    ______ ____
ROOT
ATOM      1  O   UNL     1       2.977   6.215  17.908  0.00  0.00    +0.000 OA
ENDROOT
BRANCH   1   2
ATOM      2  C   UNL     1       2.950   7.505  18.596  0.00  0.00    +0.000 C 
ATOM      3  C   UNL     1       2.055   8.563  17.926  0.00  0.00    +0.000 C 
ATOM      4  N   UNL     1       1.240   8.629  19.104  0.00  0.00    +0.000 N 
ATOM      5  C   UNL     1       0.529   9.780  19.563  0.00  0.00    +0.000 A 
ATOM      6  C   UNL     1       0.165  10.734  18.614  0.00  0.00    +0.000 A 
ATOM      7  C   UNL     1      -0.380  11.956  19.013  0.00  0.00    +0.000 A 
ATOM      8  C   UNL     1      -0.617  12.189  20.357  0.00  0.00    +0.000 A 
ATOM      9  C   UNL     1      -1.119  13.440  20.782  0.00  0.00    +0.000 A 
ATOM     10  C   UNL     1      -1.436  13.657  22.119  0.00  0.00    +0.000 A 
ATOM     11  C   UNL     1      -1.279  12.612  23.020  0.00  0.00    +0.000 A 
ATOM     12  C   UNL     1      -0.742  11.383  22.590  0.00  0.00    +0.000 A 
ATOM     13  C   UNL     1      -0.361  11.145  21.265  0.00  0.00    +0.000 A 
ATOM     14  N   UNL     1       0.226   9.973  20.875  0.00  0.00    +0.000 NA
ATOM     15  C   UNL     1       2.056   7.710  19.845  0.00  0.00    +0.000 C 
ENDBRANCH   1   2
BRANCH   1  21
ATOM     16  C   UNL     1       4.248   4.174  18.267  0.00  0.00    +0.000 A 
ATOM     17  N   UNL     1       4.423   2.987  18.923  0.00  0.00    +0.000 NA
ATOM     18  C   UNL     1       3.596   2.738  19.954  0.00  0.00    +0.000 A 
ATOM     19  C   UNL     1       2.634   3.641  20.351  0.00  0.00    +0.000 A 
ATOM     20  N   UNL     1       2.424   4.829  19.723  0.00  0.00    +0.000 NA
ATOM     21  C   UNL     1       3.229   5.076  18.662  0.00  0.00    +0.000 A 
BRANCH  16  25
ATOM     22  C   UNL     1       6.878   4.881  15.026  0.00  0.00    +0.000 A 
ATOM     23  C   UNL     1       5.638   4.333  14.750  0.00  0.00    +0.000 A 
ATOM     24  C   UNL     1       4.790   4.064  15.823  0.00  0.00    +0.000 A 
ATOM     25  C   UNL     1       5.181   4.353  17.145  0.00  0.00    +0.000 A 
ATOM     26  C   UNL     1       6.492   4.793  17.304  0.00  0.00    +0.000 A 
ATOM     27  N   UNL     1       7.344   5.072  16.285  0.00  0.00    +0.000 NA
BRANCH  22  29
ATOM     28  N   UNL     1       8.428   5.750  13.134  0.00  0.00    +0.000 NA
ATOM     29  C   UNL     1       7.706   5.374  13.964  0.00  0.00    +0.000 C 
ENDBRANCH  22  29
ENDBRANCH  16  25
ENDBRANCH   1  21
TORSDOF 4
ENDMDL
MODEL 9
REMARK VINA RESULT:      -8.0      7.004     10.263
REMARK  Name = 
REMARK  4 active torsions:
REMARK  status: ('A' for Active; 'I' for Inactive)
REMARK    1  A    between atoms: C_2  and  C_3
REMARK    2  A    between atoms: C_6  and  C_7
REMARK    3  A    between atoms: C_12  and  O_13
REMARK    4  A    between atoms: O_13  and  C_14
REMARK                            x       y       z     vdW  Elec       q    Type
REMARK                         _______ _______ _______ _____ _____    ______ ____
ROOT
ATOM      1  O   UNL     1      -0.206  10.974  21.448  0.00  0.00    +0.000 OA
ENDROOT
BRANCH   1   2
ATOM      2  C   UNL     1      -0.215   9.705  20.721  0.00  0.00    +0.000 C 
ATOM      3  C   UNL     1       0.850   9.598  19.616  0.00  0.00    +0.000 C 
ATOM      4  N   UNL     1       1.449   8.483  20.291  0.00  0.00    +0.000 N 
ATOM      5  C   UNL     1       2.140   7.402  19.665  0.00  0.00    +0.000 A 
ATOM      6  C   UNL     1       2.728   7.645  18.424  0.00  0.00    +0.000 A 
ATOM      7  C   UNL     1       3.272   6.595  17.682  0.00  0.00    +0.000 A 
ATOM      8  C   UNL     1       3.284   5.318  18.216  0.00  0.00    +0.000 A 
ATOM      9  C   UNL     1       3.783   4.235  17.457  0.00  0.00    +0.000 A 
ATOM     10  C   UNL     1       3.874   2.964  18.014  0.00  0.00    +0.000 A 
ATOM     11  C   UNL     1       3.493   2.786  19.338  0.00  0.00    +0.000 A 
ATOM     12  C   UNL     1       2.962   3.865  20.071  0.00  0.00    +0.000 A 
ATOM     13  C   UNL     1       2.805   5.145  19.528  0.00  0.00    +0.000 A 
ATOM     14  N   UNL     1       2.220   6.166  20.227  0.00  0.00    +0.000 NA
ATOM     15  C   UNL     1       0.456   8.447  21.328  0.00  0.00    +0.000 C 
ENDBRANCH   1   2
BRANCH   1  21
ATOM     16  C   UNL     1      -0.408  12.766  19.818  0.00  0.00    +0.000 A 
ATOM     17  N   UNL     1       0.156  13.781  19.098  0.00  0.00    +0.000 NA
ATOM     18  C   UNL     1       1.428  14.101  19.397  0.00  0.00    +0.000 A 
ATOM     19  C   UNL     1       2.126  13.457  20.396  0.00  0.00    +0.000 A 
ATOM     20  N   UNL     1       1.603  12.439  21.131  0.00  0.00    +0.000 NA
ATOM     21  C   UNL     1       0.334  12.087  20.817  0.00  0.00    +0.000 A 
BRANCH  16  25
ATOM     22  C   UNL     1      -4.379  11.754  18.757  0.00  0.00    +0.000 A 
ATOM     23  C   UNL     1      -3.367  11.431  17.870  0.00  0.00    +0.000 A 
ATOM     24  C   UNL     1      -2.066  11.802  18.204  0.00  0.00    +0.000 A 
ATOM     25  C   UNL     1      -1.791  12.472  19.412  0.00  0.00    +0.000 A 
ATOM     26  C   UNL     1      -2.902  12.842  20.163  0.00  0.00    +0.000 A 
ATOM     27  N   UNL     1      -4.182  12.495  19.874  0.00  0.00    +0.000 NA
BRANCH  22  29
ATOM     28  N   UNL     1      -6.750  10.770  18.370  0.00  0.00    +0.000 NA
ATOM     29  C   UNL     1      -5.698  11.219  18.577  0.00  0.00    +0.000 C 
ENDBRANCH  22  29
ENDBRANCH  16  25
ENDBRANCH   1  21
TORSDOF 4
ENDMDL
