MODEL 1
REMARK VINA RESULT:      -8.2      0.000      0.000
REMARK  Name = 
REMARK  4 active torsions:
REMARK  status: ('A' for Active; 'I' for Inactive)
REMARK    1  A    between atoms: C_1  and  C_2
REMARK    2  A    between atoms: C_2  and  O_3
REMARK    3  A    between atoms: O_3  and  C_4
REMARK    4  A    between atoms: C_4  and  C_6
REMARK                            x       y       z     vdW  Elec       q    Type
REMARK                         _______ _______ _______ _____ _____    ______ ____
ROOT
ATOM      1  C   UNL     1       6.108   4.633  15.887  0.00  0.00    +0.000 A 
ATOM      2  N   UNL     1       4.773   4.293  16.050  0.00  0.00    +0.000 NA
ATOM      3  C   UNL     1       4.569   4.436  17.340  0.00  0.00    +0.000 A 
ATOM      4  C   UNL     1       3.386   4.221  18.133  0.00  0.00    +0.000 A 
ATOM      5  C   UNL     1       2.177   3.764  17.614  0.00  0.00    +0.000 A 
ATOM      6  C   UNL     1       1.082   3.600  18.466  0.00  0.00    +0.000 A 
ATOM      7  C   UNL     1       1.192   3.893  19.830  0.00  0.00    +0.000 A 
ATOM      8  C   UNL     1       2.401   4.342  20.356  0.00  0.00    +0.000 A 
ATOM      9  C   UNL     1       3.486   4.493  19.499  0.00  0.00    +0.000 A 
ATOM     10  O   UNL     1       4.709   4.940  20.056  0.00  0.00    +0.000 OA
ATOM     11  C   UNL     1       5.886   5.126  19.311  0.00  0.00    +0.000 A 
ATOM     12  O   UNL     1       6.957   5.486  19.784  0.00  0.00    +0.000 OA
ATOM     13  N   UNL     1       5.721   4.860  17.948  0.00  0.00    +0.000 N 
ATOM     14  N   UNL     1       6.715   4.987  17.037  0.00  0.00    +0.000 NA
ENDROOT
BRANCH   1  15
ATOM     15  C   UNL     1       6.816   4.537  14.593  0.00  0.00    +0.000 C 
ATOM     16  O   UNL     1       7.654   5.347  14.211  0.00  0.00    +0.000 OA
BRANCH  15  17
ATOM     17  O   UNL     1       6.364   3.489  13.836  0.00  0.00    +0.000 OA
BRANCH  17  19
ATOM     18  C   UNL     1       5.092   3.203  11.831  0.00  0.00    +0.000 C 
ATOM     19  C   UNL     1       6.414   3.669  12.418  0.00  0.00    +0.000 C 
ENDBRANCH  17  19
ENDBRANCH  15  17
ENDBRANCH   1  15
TORSDOF 3
ENDMDL
MODEL 2
REMARK VINA RESULT:      -7.7      1.758      1.876
REMARK  Name = 
REMARK  4 active torsions:
REMARK  status: ('A' for Active; 'I' for Inactive)
REMARK    1  A    between atoms: C_1  and  C_2
REMARK    2  A    between atoms: C_2  and  O_3
REMARK    3  A    between atoms: O_3  and  C_4
REMARK    4  A    between atoms: C_4  and  C_6
REMARK                            x       y       z     vdW  Elec       q    Type
REMARK                         _______ _______ _______ _____ _____    ______ ____
ROOT
ATOM      1  C   UNL     1       5.409   4.862  16.054  0.00  0.00    +0.000 A 
ATOM      2  N   UNL     1       4.771   3.812  16.697  0.00  0.00    +0.000 NA
ATOM      3  C   UNL     1       3.912   4.408  17.493  0.00  0.00    +0.000 A 
ATOM      4  C   UNL     1       2.965   3.862  18.430  0.00  0.00    +0.000 A 
ATOM      5  C   UNL     1       2.818   2.499  18.678  0.00  0.00    +0.000 A 
ATOM      6  C   UNL     1       1.859   2.068  19.600  0.00  0.00    +0.000 A 
ATOM      7  C   UNL     1       1.049   2.993  20.268  0.00  0.00    +0.000 A 
ATOM      8  C   UNL     1       1.198   4.358  20.029  0.00  0.00    +0.000 A 
ATOM      9  C   UNL     1       2.161   4.773  19.117  0.00  0.00    +0.000 A 
ATOM     10  O   UNL     1       2.303   6.166  18.898  0.00  0.00    +0.000 OA
ATOM     11  C   UNL     1       3.242   6.726  18.015  0.00  0.00    +0.000 A 
ATOM     12  O   UNL     1       3.394   7.929  17.836  0.00  0.00    +0.000 OA
ATOM     13  N   UNL     1       4.003   5.767  17.340  0.00  0.00    +0.000 N 
ATOM     14  N   UNL     1       4.956   6.075  16.429  0.00  0.00    +0.000 NA
ENDROOT
BRANCH   1  15
ATOM     15  C   UNL     1       6.532   4.673  15.112  0.00  0.00    +0.000 C 
ATOM     16  O   UNL     1       7.509   5.412  15.056  0.00  0.00    +0.000 OA
BRANCH  15  17
ATOM     17  O   UNL     1       6.311   3.629  14.253  0.00  0.00    +0.000 OA
BRANCH  17  19
ATOM     18  C   UNL     1       5.485   3.152  12.060  0.00  0.00    +0.000 C 
ATOM     19  C   UNL     1       6.535   3.898  12.866  0.00  0.00    +0.000 C 
ENDBRANCH  17  19
ENDBRANCH  15  17
ENDBRANCH   1  15
TORSDOF 3
ENDMDL
MODEL 3
REMARK VINA RESULT:      -7.7      1.886      2.484
REMARK  Name = 
REMARK  4 active torsions:
REMARK  status: ('A' for Active; 'I' for Inactive)
REMARK    1  A    between atoms: C_1  and  C_2
REMARK    2  A    between atoms: C_2  and  O_3
REMARK    3  A    between atoms: O_3  and  C_4
REMARK    4  A    between atoms: C_4  and  C_6
REMARK                            x       y       z     vdW  Elec       q    Type
REMARK                         _______ _______ _______ _____ _____    ______ ____
ROOT
ATOM      1  C   UNL     1       5.918   5.019  17.215  0.00  0.00    +0.000 A 
ATOM      2  N   UNL     1       5.390   4.062  18.068  0.00  0.00    +0.000 NA
ATOM      3  C   UNL     1       4.304   4.630  18.542  0.00  0.00    +0.000 A 
ATOM      4  C   UNL     1       3.329   4.148  19.485  0.00  0.00    +0.000 A 
ATOM      5  C   UNL     1       3.405   2.909  20.116  0.00  0.00    +0.000 A 
ATOM      6  C   UNL     1       2.398   2.528  21.008  0.00  0.00    +0.000 A 
ATOM      7  C   UNL     1       1.319   3.381  21.267  0.00  0.00    +0.000 A 
ATOM      8  C   UNL     1       1.241   4.624  20.645  0.00  0.00    +0.000 A 
ATOM      9  C   UNL     1       2.253   4.994  19.766  0.00  0.00    +0.000 A 
ATOM     10  O   UNL     1       2.161   6.268  19.154  0.00  0.00    +0.000 OA
ATOM     11  C   UNL     1       3.116   6.775  18.256  0.00  0.00    +0.000 A 
ATOM     12  O   UNL     1       3.063   7.885  17.740  0.00  0.00    +0.000 OA
ATOM     13  N   UNL     1       4.156   5.877  17.995  0.00  0.00    +0.000 N 
ATOM     14  N   UNL     1       5.179   6.145  17.150  0.00  0.00    +0.000 NA
ENDROOT
BRANCH   1  15
ATOM     15  C   UNL     1       7.206   4.854  16.510  0.00  0.00    +0.000 C 
ATOM     16  O   UNL     1       8.164   4.241  16.970  0.00  0.00    +0.000 OA
BRANCH  15  17
ATOM     17  O   UNL     1       7.234   5.539  15.324  0.00  0.00    +0.000 OA
BRANCH  17  19
ATOM     18  C   UNL     1       5.913   4.091  13.954  0.00  0.00    +0.000 C 
ATOM     19  C   UNL     1       7.275   4.741  14.137  0.00  0.00    +0.000 C 
ENDBRANCH  17  19
ENDBRANCH  15  17
ENDBRANCH   1  15
TORSDOF 3
ENDMDL
MODEL 4
REMARK VINA RESULT:      -7.6      1.081      1.144
REMARK  Name = 
REMARK  4 active torsions:
REMARK  status: ('A' for Active; 'I' for Inactive)
REMARK    1  A    between atoms: C_1  and  C_2
REMARK    2  A    between atoms: C_2  and  O_3
REMARK    3  A    between atoms: O_3  and  C_4
REMARK    4  A    between atoms: C_4  and  C_6
REMARK                            x       y       z     vdW  Elec       q    Type
REMARK                         _______ _______ _______ _____ _____    ______ ____
ROOT
ATOM      1  C   UNL     1       6.591   4.735  15.092  0.00  0.00    +0.000 A 
ATOM      2  N   UNL     1       5.300   4.303  15.360  0.00  0.00    +0.000 NA
ATOM      3  C   UNL     1       5.266   4.212  16.671  0.00  0.00    +0.000 A 
ATOM      4  C   UNL     1       4.207   3.803  17.555  0.00  0.00    +0.000 A 
ATOM      5  C   UNL     1       2.954   3.378  17.121  0.00  0.00    +0.000 A 
ATOM      6  C   UNL     1       1.987   3.013  18.062  0.00  0.00    +0.000 A 
ATOM      7  C   UNL     1       2.269   3.074  19.431  0.00  0.00    +0.000 A 
ATOM      8  C   UNL     1       3.523   3.491  19.871  0.00  0.00    +0.000 A 
ATOM      9  C   UNL     1       4.479   3.843  18.925  0.00  0.00    +0.000 A 
ATOM     10  O   UNL     1       5.751   4.253  19.393  0.00  0.00    +0.000 OA
ATOM     11  C   UNL     1       6.813   4.624  18.550  0.00  0.00    +0.000 A 
ATOM     12  O   UNL     1       7.926   4.955  18.941  0.00  0.00    +0.000 OA
ATOM     13  N   UNL     1       6.476   4.587  17.194  0.00  0.00    +0.000 N 
ATOM     14  N   UNL     1       7.335   4.919  16.202  0.00  0.00    +0.000 NA
ENDROOT
BRANCH   1  15
ATOM     15  C   UNL     1       7.124   4.900  13.724  0.00  0.00    +0.000 C 
ATOM     16  O   UNL     1       8.164   5.494  13.462  0.00  0.00    +0.000 OA
BRANCH  15  17
ATOM     17  O   UNL     1       6.275   4.387  12.778  0.00  0.00    +0.000 OA
BRANCH  17  19
ATOM     18  C   UNL     1       5.461   2.444  11.648  0.00  0.00    +0.000 C 
ATOM     19  C   UNL     1       6.697   3.175  12.146  0.00  0.00    +0.000 C 
ENDBRANCH  17  19
ENDBRANCH  15  17
ENDBRANCH   1  15
TORSDOF 3
ENDMDL
MODEL 5
REMARK VINA RESULT:      -7.5      2.072      2.295
REMARK  Name = 
REMARK  4 active torsions:
REMARK  status: ('A' for Active; 'I' for Inactive)
REMARK    1  A    between atoms: C_1  and  C_2
REMARK    2  A    between atoms: C_2  and  O_3
REMARK    3  A    between atoms: O_3  and  C_4
REMARK    4  A    between atoms: C_4  and  C_6
REMARK                            x       y       z     vdW  Elec       q    Type
REMARK                         _______ _______ _______ _____ _____    ______ ____
ROOT
ATOM      1  C   UNL     1       5.854   5.030  15.999  0.00  0.00    +0.000 A 
ATOM      2  N   UNL     1       5.021   6.130  16.146  0.00  0.00    +0.000 NA
ATOM      3  C   UNL     1       4.468   5.949  17.324  0.00  0.00    +0.000 A 
ATOM      4  C   UNL     1       3.501   6.741  18.038  0.00  0.00    +0.000 A 
ATOM      5  C   UNL     1       2.934   7.910  17.537  0.00  0.00    +0.000 A 
ATOM      6  C   UNL     1       2.012   8.615  18.315  0.00  0.00    +0.000 A 
ATOM      7  C   UNL     1       1.660   8.157  19.590  0.00  0.00    +0.000 A 
ATOM      8  C   UNL     1       2.218   6.984  20.093  0.00  0.00    +0.000 A 
ATOM      9  C   UNL     1       3.128   6.288  19.305  0.00  0.00    +0.000 A 
ATOM     10  O   UNL     1       3.675   5.092  19.831  0.00  0.00    +0.000 OA
ATOM     11  C   UNL     1       4.594   4.283  19.141  0.00  0.00    +0.000 A 
ATOM     12  O   UNL     1       5.055   3.233  19.573  0.00  0.00    +0.000 OA
ATOM     13  N   UNL     1       4.948   4.797  17.890  0.00  0.00    +0.000 N 
ATOM     14  N   UNL     1       5.830   4.195  17.058  0.00  0.00    +0.000 NA
ENDROOT
BRANCH   1  15
ATOM     15  C   UNL     1       6.629   4.758  14.771  0.00  0.00    +0.000 C 
ATOM     16  O   UNL     1       7.637   5.378  14.447  0.00  0.00    +0.000 OA
BRANCH  15  17
ATOM     17  O   UNL     1       6.042   3.793  13.996  0.00  0.00    +0.000 OA
BRANCH  17  19
ATOM     18  C   UNL     1       5.467   2.931  11.841  0.00  0.00    +0.000 C 
ATOM     19  C   UNL     1       6.495   3.713  12.642  0.00  0.00    +0.000 C 
ENDBRANCH  17  19
ENDBRANCH  15  17
ENDBRANCH   1  15
TORSDOF 3
ENDMDL
MODEL 6
REMARK VINA RESULT:      -7.5      2.582      3.724
REMARK  Name = 
REMARK  4 active torsions:
REMARK  status: ('A' for Active; 'I' for Inactive)
REMARK    1  A    between atoms: C_1  and  C_2
REMARK    2  A    between atoms: C_2  and  O_3
REMARK    3  A    between atoms: O_3  and  C_4
REMARK    4  A    between atoms: C_4  and  C_6
REMARK                            x       y       z     vdW  Elec       q    Type
REMARK                         _______ _______ _______ _____ _____    ______ ____
ROOT
ATOM      1  C   UNL     1       5.806   5.649  17.330  0.00  0.00    +0.000 A 
ATOM      2  N   UNL     1       5.427   4.596  18.149  0.00  0.00    +0.000 NA
ATOM      3  C   UNL     1       4.252   4.963  18.608  0.00  0.00    +0.000 A 
ATOM      4  C   UNL     1       3.351   4.303  19.516  0.00  0.00    +0.000 A 
ATOM      5  C   UNL     1       3.619   3.078  20.122  0.00  0.00    +0.000 A 
ATOM      6  C   UNL     1       2.672   2.513  20.980  0.00  0.00    +0.000 A 
ATOM      7  C   UNL     1       1.461   3.167  21.231  0.00  0.00    +0.000 A 
ATOM      8  C   UNL     1       1.190   4.396  20.634  0.00  0.00    +0.000 A 
ATOM      9  C   UNL     1       2.144   4.951  19.789  0.00  0.00    +0.000 A 
ATOM     10  O   UNL     1       1.853   6.207  19.202  0.00  0.00    +0.000 OA
ATOM     11  C   UNL     1       2.729   6.888  18.339  0.00  0.00    +0.000 A 
ATOM     12  O   UNL     1       2.502   7.987  17.845  0.00  0.00    +0.000 OA
ATOM     13  N   UNL     1       3.910   6.183  18.085  0.00  0.00    +0.000 N 
ATOM     14  N   UNL     1       4.891   6.638  17.271  0.00  0.00    +0.000 NA
ENDROOT
BRANCH   1  15
ATOM     15  C   UNL     1       7.118   5.719  16.653  0.00  0.00    +0.000 C 
ATOM     16  O   UNL     1       7.679   4.751  16.149  0.00  0.00    +0.000 OA
BRANCH  15  17
ATOM     17  O   UNL     1       7.671   6.970  16.733  0.00  0.00    +0.000 OA
BRANCH  17  19
ATOM     18  C   UNL     1       8.209   8.937  17.981  0.00  0.00    +0.000 C 
ATOM     19  C   UNL     1       7.988   7.435  18.048  0.00  0.00    +0.000 C 
ENDBRANCH  17  19
ENDBRANCH  15  17
ENDBRANCH   1  15
TORSDOF 3
ENDMDL
MODEL 7
REMARK VINA RESULT:      -7.4      1.470      6.092
REMARK  Name = 
REMARK  4 active torsions:
REMARK  status: ('A' for Active; 'I' for Inactive)
REMARK    1  A    between atoms: C_1  and  C_2
REMARK    2  A    between atoms: C_2  and  O_3
REMARK    3  A    between atoms: O_3  and  C_4
REMARK    4  A    between atoms: C_4  and  C_6
REMARK                            x       y       z     vdW  Elec       q    Type
REMARK                         _______ _______ _______ _____ _____    ______ ____
ROOT
ATOM      1  C   UNL     1       4.116   4.332  17.724  0.00  0.00    +0.000 A 
ATOM      2  N   UNL     1       4.169   3.867  16.419  0.00  0.00    +0.000 NA
ATOM      3  C   UNL     1       5.261   4.414  15.935  0.00  0.00    +0.000 A 
ATOM      4  C   UNL     1       5.854   4.326  14.626  0.00  0.00    +0.000 A 
ATOM      5  C   UNL     1       5.300   3.607  13.570  0.00  0.00    +0.000 A 
ATOM      6  C   UNL     1       5.961   3.573  12.339  0.00  0.00    +0.000 A 
ATOM      7  C   UNL     1       7.171   4.254  12.164  0.00  0.00    +0.000 A 
ATOM      8  C   UNL     1       7.726   4.982  13.214  0.00  0.00    +0.000 A 
ATOM      9  C   UNL     1       7.054   5.013  14.431  0.00  0.00    +0.000 A 
ATOM     10  O   UNL     1       7.629   5.769  15.481  0.00  0.00    +0.000 OA
ATOM     11  C   UNL     1       7.054   5.899  16.757  0.00  0.00    +0.000 A 
ATOM     12  O   UNL     1       7.527   6.570  17.667  0.00  0.00    +0.000 OA
ATOM     13  N   UNL     1       5.868   5.172  16.902  0.00  0.00    +0.000 N 
ATOM     14  N   UNL     1       5.149   5.136  18.049  0.00  0.00    +0.000 NA
ENDROOT
BRANCH   1  15
ATOM     15  C   UNL     1       2.996   4.043  18.644  0.00  0.00    +0.000 C 
ATOM     16  O   UNL     1       1.875   3.710  18.273  0.00  0.00    +0.000 OA
BRANCH  15  17
ATOM     17  O   UNL     1       3.333   4.274  19.952  0.00  0.00    +0.000 OA
BRANCH  17  19
ATOM     18  C   UNL     1       2.119   3.151  21.679  0.00  0.00    +0.000 C 
ATOM     19  C   UNL     1       2.241   4.427  20.864  0.00  0.00    +0.000 C 
ENDBRANCH  17  19
ENDBRANCH  15  17
ENDBRANCH   1  15
TORSDOF 3
ENDMDL
MODEL 8
REMARK VINA RESULT:      -7.2      1.475      5.903
REMARK  Name = 
REMARK  4 active torsions:
REMARK  status: ('A' for Active; 'I' for Inactive)
REMARK    1  A    between atoms: C_1  and  C_2
REMARK    2  A    between atoms: C_2  and  O_3
REMARK    3  A    between atoms: O_3  and  C_4
REMARK    4  A    between atoms: C_4  and  C_6
REMARK                            x       y       z     vdW  Elec       q    Type
REMARK                         _______ _______ _______ _____ _____    ______ ____
ROOT
ATOM      1  C   UNL     1       4.790   3.950  18.011  0.00  0.00    +0.000 A 
ATOM      2  N   UNL     1       4.720   3.490  16.704  0.00  0.00    +0.000 NA
ATOM      3  C   UNL     1       5.647   4.180  16.080  0.00  0.00    +0.000 A 
ATOM      4  C   UNL     1       6.055   4.169  14.699  0.00  0.00    +0.000 A 
ATOM      5  C   UNL     1       5.462   3.374  13.722  0.00  0.00    +0.000 A 
ATOM      6  C   UNL     1       5.940   3.426  12.409  0.00  0.00    +0.000 A 
ATOM      7  C   UNL     1       7.008   4.267  12.075  0.00  0.00    +0.000 A 
ATOM      8  C   UNL     1       7.600   5.069  13.047  0.00  0.00    +0.000 A 
ATOM      9  C   UNL     1       7.109   5.014  14.347  0.00  0.00    +0.000 A 
ATOM     10  O   UNL     1       7.718   5.847  15.317  0.00  0.00    +0.000 OA
ATOM     11  C   UNL     1       7.317   5.902  16.663  0.00  0.00    +0.000 A 
ATOM     12  O   UNL     1       7.817   6.638  17.506  0.00  0.00    +0.000 OA
ATOM     13  N   UNL     1       6.275   5.020  16.962  0.00  0.00    +0.000 N 
ATOM     14  N   UNL     1       5.738   4.890  18.198  0.00  0.00    +0.000 NA
ENDROOT
BRANCH   1  15
ATOM     15  C   UNL     1       3.862   3.513  19.075  0.00  0.00    +0.000 C 
ATOM     16  O   UNL     1       4.044   2.523  19.777  0.00  0.00    +0.000 OA
BRANCH  15  17
ATOM     17  O   UNL     1       2.736   4.291  19.126  0.00  0.00    +0.000 OA
BRANCH  17  19
ATOM     18  C   UNL     1       0.761   3.464  20.191  0.00  0.00    +0.000 C 
ATOM     19  C   UNL     1       1.497   3.623  18.871  0.00  0.00    +0.000 C 
ENDBRANCH  17  19
ENDBRANCH  15  17
ENDBRANCH   1  15
TORSDOF 3
ENDMDL
MODEL 9
REMARK VINA RESULT:      -7.2      1.812      2.371
REMARK  Name = 
REMARK  4 active torsions:
REMARK  status: ('A' for Active; 'I' for Inactive)
REMARK    1  A    between atoms: C_1  and  C_2
REMARK    2  A    between atoms: C_2  and  O_3
REMARK    3  A    between atoms: O_3  and  C_4
REMARK    4  A    between atoms: C_4  and  C_6
REMARK                            x       y       z     vdW  Elec       q    Type
REMARK                         _______ _______ _______ _____ _____    ______ ____
ROOT
ATOM      1  C   UNL     1       5.362   4.551  16.129  0.00  0.00    +0.000 A 
ATOM      2  N   UNL     1       4.777   5.604  16.818  0.00  0.00    +0.000 NA
ATOM      3  C   UNL     1       4.027   5.009  17.719  0.00  0.00    +0.000 A 
ATOM      4  C   UNL     1       3.161   5.559  18.729  0.00  0.00    +0.000 A 
ATOM      5  C   UNL     1       2.944   6.923  18.906  0.00  0.00    +0.000 A 
ATOM      6  C   UNL     1       2.091   7.357  19.926  0.00  0.00    +0.000 A 
ATOM      7  C   UNL     1       1.461   6.433  20.766  0.00  0.00    +0.000 A 
ATOM      8  C   UNL     1       1.668   5.067  20.589  0.00  0.00    +0.000 A 
ATOM      9  C   UNL     1       2.512   4.648  19.566  0.00  0.00    +0.000 A 
ATOM     10  O   UNL     1       2.699   3.255  19.395  0.00  0.00    +0.000 OA
ATOM     11  C   UNL     1       3.512   2.692  18.396  0.00  0.00    +0.000 A 
ATOM     12  O   UNL     1       3.662   1.489  18.221  0.00  0.00    +0.000 OA
ATOM     13  N   UNL     1       4.154   3.650  17.605  0.00  0.00    +0.000 N 
ATOM     14  N   UNL     1       4.997   3.339  16.593  0.00  0.00    +0.000 NA
ENDROOT
BRANCH   1  15
ATOM     15  C   UNL     1       6.234   4.739  14.951  0.00  0.00    +0.000 C 
ATOM     16  O   UNL     1       7.375   5.187  15.010  0.00  0.00    +0.000 OA
BRANCH  15  17
ATOM     17  O   UNL     1       5.589   4.436  13.781  0.00  0.00    +0.000 OA
BRANCH  17  19
ATOM     18  C   UNL     1       5.314   3.068  11.839  0.00  0.00    +0.000 C 
ATOM     19  C   UNL     1       6.298   3.586  12.875  0.00  0.00    +0.000 C 
ENDBRANCH  17  19
ENDBRANCH  15  17
ENDBRANCH   1  15
TORSDOF 3
ENDMDL
