MODEL 1
REMARK VINA RESULT:      -8.6      0.000      0.000
REMARK  Name = 
REMARK  15 active torsions:
REMARK  status: ('A' for Active; 'I' for Inactive)
REMARK    1  A    between atoms: C_1  and  C_2
REMARK    2  A    between atoms: C_2  and  C_3
REMARK    3  A    between atoms: C_3  and  C_4
REMARK    4  A    between atoms: C_7  and  C_8
REMARK    5  A    between atoms: C_10  and  C_11
REMARK    6  A    between atoms: C_11  and  O_12
REMARK    7  A    between atoms: O_12  and  C_13
REMARK    8  A    between atoms: C_16  and  O_17
REMARK    9  A    between atoms: O_17  and  C_18
REMARK   10  A    between atoms: C_18  and  C_19
REMARK   11  A    between atoms: C_19  and  O_21
REMARK   12  A    between atoms: C_22  and  C_23
REMARK   13  A    between atoms: C_26  and  C_27
REMARK   14  A    between atoms: C_30  and  O_31
REMARK   15  A    between atoms: O_31  and  C_32
REMARK                            x       y       z     vdW  Elec       q    Type
REMARK                         _______ _______ _______ _____ _____    ______ ____
ROOT
ATOM      1  C   UNL     1       5.780   5.982  17.299  0.00  0.00    +0.000 A 
ATOM      2  O   UNL     1       6.319   6.881  18.185  0.00  0.00    +0.000 OA
ATOM      3  C   UNL     1       7.447   7.353  17.563  0.00  0.00    +0.000 A 
ATOM      4  N   UNL     1       7.671   6.815  16.378  0.00  0.00    +0.000 NA
ATOM      5  C   UNL     1       6.630   5.928  16.207  0.00  0.00    +0.000 A 
ENDROOT
BRANCH   1   9
ATOM      6  C   UNL     1       2.282   4.070  18.862  0.00  0.00    +0.000 A 
ATOM      7  C   UNL     1       3.342   3.308  18.363  0.00  0.00    +0.000 A 
ATOM      8  C   UNL     1       4.446   3.930  17.772  0.00  0.00    +0.000 A 
ATOM      9  C   UNL     1       4.541   5.329  17.710  0.00  0.00    +0.000 A 
ATOM     10  C   UNL     1       3.448   6.084  18.148  0.00  0.00    +0.000 A 
ATOM     11  C   UNL     1       2.329   5.462  18.714  0.00  0.00    +0.000 A 
BRANCH   6  12
ATOM     12  C   UNL     1       1.108   3.408  19.542  0.00  0.00    +0.000 C 
BRANCH  12  14
ATOM     13  C   UNL     1       2.589   3.040  21.596  0.00  0.00    +0.000 C 
ATOM     14  C   UNL     1       1.196   3.365  21.074  0.00  0.00    +0.000 C 
ENDBRANCH  12  14
ENDBRANCH   6  12
ENDBRANCH   1   9
BRANCH   5  15
ATOM     15  C   UNL     1       6.487   5.092  15.034  0.00  0.00    +0.000 A 
ATOM     16  C   UNL     1       5.314   4.448  14.689  0.00  0.00    +0.000 A 
ATOM     17  N   UNL     1       5.131   3.757  13.543  0.00  0.00    +0.000 NA
ATOM     18  C   UNL     1       6.186   3.696  12.722  0.00  0.00    +0.000 A 
ATOM     19  N   UNL     1       7.397   4.223  12.972  0.00  0.00    +0.000 NA
ATOM     20  C   UNL     1       7.520   4.902  14.140  0.00  0.00    +0.000 A 
BRANCH  18  21
ATOM     21  O   UNL     1       5.965   2.987  11.563  0.00  0.00    +0.000 OA
ATOM     22  C   UNL     1       4.584   2.828  11.275  0.00  0.00    +0.000 C 
ENDBRANCH  18  21
ENDBRANCH   5  15
BRANCH   3  23
ATOM     23  C   UNL     1       8.245   8.365  18.318  0.00  0.00    +0.000 C 
BRANCH  23  24
ATOM     24  O   UNL     1       7.871   9.649  17.811  0.00  0.00    +0.000 OA
BRANCH  24  25
ATOM     25  C   UNL     1       8.716  10.686  18.079  0.00  0.00    +0.000 A 
ATOM     26  C   UNL     1       8.284  11.928  17.630  0.00  0.00    +0.000 A 
ATOM     27  C   UNL     1       9.062  13.063  17.851  0.00  0.00    +0.000 A 
ATOM     28  C   UNL     1      10.298  12.995  18.512  0.00  0.00    +0.000 A 
ATOM     29  C   UNL     1      10.783  11.735  18.904  0.00  0.00    +0.000 A 
ATOM     30  C   UNL     1      12.137  11.443  19.495  0.00  0.00    +0.000 C 
ATOM     31  C   UNL     1       9.964  10.591  18.694  0.00  0.00    +0.000 A 
BRANCH  28  32
ATOM     32  O   UNL     1      10.900  14.223  18.611  0.00  0.00    +0.000 OA
BRANCH  32  33
ATOM     33  C   UNL     1      11.829  14.605  17.601  0.00  0.00    +0.000 C 
BRANCH  33  34
ATOM     34  C   UNL     1      11.400  15.911  16.941  0.00  0.00    +0.000 C 
ATOM     35  O   UNL     1      11.606  17.014  17.430  0.00  0.00    +0.000 OA
BRANCH  34  36
ATOM     36  O   UNL     1      10.781  15.743  15.751  0.00  0.00    +0.000 OA
ATOM     37  H   UNL     1      11.249  16.252  15.060  0.00  0.00    +0.000 HD
ENDBRANCH  34  36
ENDBRANCH  33  34
ENDBRANCH  32  33
ENDBRANCH  28  32
ENDBRANCH  24  25
ENDBRANCH  23  24
ENDBRANCH   3  23
TORSDOF 12
ENDMDL
MODEL 2
REMARK VINA RESULT:      -8.2      2.219      5.181
REMARK  Name = 
REMARK  15 active torsions:
REMARK  status: ('A' for Active; 'I' for Inactive)
REMARK    1  A    between atoms: C_1  and  C_2
REMARK    2  A    between atoms: C_2  and  C_3
REMARK    3  A    between atoms: C_3  and  C_4
REMARK    4  A    between atoms: C_7  and  C_8
REMARK    5  A    between atoms: C_10  and  C_11
REMARK    6  A    between atoms: C_11  and  O_12
REMARK    7  A    between atoms: O_12  and  C_13
REMARK    8  A    between atoms: C_16  and  O_17
REMARK    9  A    between atoms: O_17  and  C_18
REMARK   10  A    between atoms: C_18  and  C_19
REMARK   11  A    between atoms: C_19  and  O_21
REMARK   12  A    between atoms: C_22  and  C_23
REMARK   13  A    between atoms: C_26  and  C_27
REMARK   14  A    between atoms: C_30  and  O_31
REMARK   15  A    between atoms: O_31  and  C_32
REMARK                            x       y       z     vdW  Elec       q    Type
REMARK                         _______ _______ _______ _____ _____    ______ ____
ROOT
ATOM      1  C   UNL     1       6.680   5.922  16.529  0.00  0.00    +0.000 A 
ATOM      2  O   UNL     1       7.542   6.973  16.334  0.00  0.00    +0.000 OA
ATOM      3  C   UNL     1       7.615   7.597  17.554  0.00  0.00    +0.000 A 
ATOM      4  N   UNL     1       6.860   7.043  18.485  0.00  0.00    +0.000 NA
ATOM      5  C   UNL     1       6.247   5.989  17.843  0.00  0.00    +0.000 A 
ENDROOT
BRANCH   1   9
ATOM      6  C   UNL     1       5.785   3.715  12.971  0.00  0.00    +0.000 A 
ATOM      7  C   UNL     1       4.890   3.720  14.044  0.00  0.00    +0.000 A 
ATOM      8  C   UNL     1       5.220   4.367  15.239  0.00  0.00    +0.000 A 
ATOM      9  C   UNL     1       6.429   5.066  15.373  0.00  0.00    +0.000 A 
ATOM     10  C   UNL     1       7.350   5.000  14.322  0.00  0.00    +0.000 A 
ATOM     11  C   UNL     1       7.033   4.328  13.135  0.00  0.00    +0.000 A 
BRANCH   6  12
ATOM     12  C   UNL     1       5.418   3.058  11.662  0.00  0.00    +0.000 C 
BRANCH  12  14
ATOM     13  C   UNL     1       3.514   3.924  10.188  0.00  0.00    +0.000 C 
ATOM     14  C   UNL     1       3.914   3.034  11.357  0.00  0.00    +0.000 C 
ENDBRANCH  12  14
ENDBRANCH   6  12
ENDBRANCH   1   9
BRANCH   5  15
ATOM     15  C   UNL     1       5.302   5.107  18.492  0.00  0.00    +0.000 A 
ATOM     16  C   UNL     1       5.615   3.833  18.928  0.00  0.00    +0.000 A 
ATOM     17  N   UNL     1       4.781   3.041  19.634  0.00  0.00    +0.000 NA
ATOM     18  C   UNL     1       3.570   3.549  19.892  0.00  0.00    +0.000 A 
ATOM     19  N   UNL     1       3.123   4.744  19.470  0.00  0.00    +0.000 NA
ATOM     20  C   UNL     1       4.005   5.493  18.763  0.00  0.00    +0.000 A 
BRANCH  18  21
ATOM     21  O   UNL     1       2.745   2.717  20.615  0.00  0.00    +0.000 OA
ATOM     22  C   UNL     1       1.420   2.684  20.104  0.00  0.00    +0.000 C 
ENDBRANCH  18  21
ENDBRANCH   5  15
BRANCH   3  23
ATOM     23  C   UNL     1       8.499   8.799  17.631  0.00  0.00    +0.000 C 
BRANCH  23  24
ATOM     24  O   UNL     1       8.755   9.035  19.017  0.00  0.00    +0.000 OA
BRANCH  24  25
ATOM     25  C   UNL     1       9.273  10.254  19.348  0.00  0.00    +0.000 A 
ATOM     26  C   UNL     1      10.090  10.827  18.383  0.00  0.00    +0.000 A 
ATOM     27  C   UNL     1      10.672  12.073  18.607  0.00  0.00    +0.000 A 
ATOM     28  C   UNL     1      10.470  12.779  19.803  0.00  0.00    +0.000 A 
ATOM     29  C   UNL     1       9.708  12.178  20.819  0.00  0.00    +0.000 A 
ATOM     30  C   UNL     1       9.495  12.710  22.211  0.00  0.00    +0.000 C 
ATOM     31  C   UNL     1       9.100  10.917  20.563  0.00  0.00    +0.000 A 
BRANCH  28  32
ATOM     32  O   UNL     1      11.142  13.974  19.819  0.00  0.00    +0.000 OA
BRANCH  32  33
ATOM     33  C   UNL     1      10.424  15.160  19.486  0.00  0.00    +0.000 C 
BRANCH  33  34
ATOM     34  C   UNL     1      11.022  15.821  18.249  0.00  0.00    +0.000 C 
ATOM     35  O   UNL     1      10.772  15.463  17.105  0.00  0.00    +0.000 OA
BRANCH  34  36
ATOM     36  O   UNL     1      11.846  16.855  18.528  0.00  0.00    +0.000 OA
ATOM     37  H   UNL     1      11.361  17.699  18.433  0.00  0.00    +0.000 HD
ENDBRANCH  34  36
ENDBRANCH  33  34
ENDBRANCH  32  33
ENDBRANCH  28  32
ENDBRANCH  24  25
ENDBRANCH  23  24
ENDBRANCH   3  23
TORSDOF 12
ENDMDL
MODEL 3
REMARK VINA RESULT:      -8.1      1.677      2.482
REMARK  Name = 
REMARK  15 active torsions:
REMARK  status: ('A' for Active; 'I' for Inactive)
REMARK    1  A    between atoms: C_1  and  C_2
REMARK    2  A    between atoms: C_2  and  C_3
REMARK    3  A    between atoms: C_3  and  C_4
REMARK    4  A    between atoms: C_7  and  C_8
REMARK    5  A    between atoms: C_10  and  C_11
REMARK    6  A    between atoms: C_11  and  O_12
REMARK    7  A    between atoms: O_12  and  C_13
REMARK    8  A    between atoms: C_16  and  O_17
REMARK    9  A    between atoms: O_17  and  C_18
REMARK   10  A    between atoms: C_18  and  C_19
REMARK   11  A    between atoms: C_19  and  O_21
REMARK   12  A    between atoms: C_22  and  C_23
REMARK   13  A    between atoms: C_26  and  C_27
REMARK   14  A    between atoms: C_30  and  O_31
REMARK   15  A    between atoms: O_31  and  C_32
REMARK                            x       y       z     vdW  Elec       q    Type
REMARK                         _______ _______ _______ _____ _____    ______ ____
ROOT
ATOM      1  C   UNL     1       5.881   5.656  17.203  0.00  0.00    +0.000 A 
ATOM      2  O   UNL     1       6.396   6.496  18.159  0.00  0.00    +0.000 OA
ATOM      3  C   UNL     1       7.516   7.039  17.580  0.00  0.00    +0.000 A 
ATOM      4  N   UNL     1       7.756   6.598  16.359  0.00  0.00    +0.000 NA
ATOM      5  C   UNL     1       6.736   5.704  16.114  0.00  0.00    +0.000 A 
ENDROOT
BRANCH   1   9
ATOM      6  C   UNL     1       2.328   3.712  18.591  0.00  0.00    +0.000 A 
ATOM      7  C   UNL     1       3.554   3.040  18.606  0.00  0.00    +0.000 A 
ATOM      8  C   UNL     1       4.697   3.641  18.072  0.00  0.00    +0.000 A 
ATOM      9  C   UNL     1       4.656   4.945  17.556  0.00  0.00    +0.000 A 
ATOM     10  C   UNL     1       3.414   5.586  17.480  0.00  0.00    +0.000 A 
ATOM     11  C   UNL     1       2.262   4.974  17.988  0.00  0.00    +0.000 A 
BRANCH   6  12
ATOM     12  C   UNL     1       1.098   3.088  19.207  0.00  0.00    +0.000 C 
BRANCH  12  14
ATOM     13  C   UNL     1       1.678   2.627  21.656  0.00  0.00    +0.000 C 
ATOM     14  C   UNL     1       0.860   3.459  20.677  0.00  0.00    +0.000 C 
ENDBRANCH  12  14
ENDBRANCH   6  12
ENDBRANCH   1   9
BRANCH   5  15
ATOM     15  C   UNL     1       6.616   4.958  14.881  0.00  0.00    +0.000 A 
ATOM     16  C   UNL     1       5.554   4.125  14.587  0.00  0.00    +0.000 A 
ATOM     17  N   UNL     1       5.371   3.511  13.399  0.00  0.00    +0.000 NA
ATOM     18  C   UNL     1       6.314   3.729  12.475  0.00  0.00    +0.000 A 
ATOM     19  N   UNL     1       7.425   4.463  12.659  0.00  0.00    +0.000 NA
ATOM     20  C   UNL     1       7.555   5.052  13.873  0.00  0.00    +0.000 A 
BRANCH  18  21
ATOM     21  O   UNL     1       6.097   3.089  11.276  0.00  0.00    +0.000 OA
ATOM     22  C   UNL     1       5.769   1.717  11.440  0.00  0.00    +0.000 C 
ENDBRANCH  18  21
ENDBRANCH   5  15
BRANCH   3  23
ATOM     23  C   UNL     1       8.288   8.008  18.416  0.00  0.00    +0.000 C 
BRANCH  23  24
ATOM     24  O   UNL     1       8.325   9.240  17.692  0.00  0.00    +0.000 OA
BRANCH  24  25
ATOM     25  C   UNL     1       8.822  10.326  18.351  0.00  0.00    +0.000 A 
ATOM     26  C   UNL     1       9.194  10.094  19.669  0.00  0.00    +0.000 A 
ATOM     27  C   UNL     1       9.721  11.129  20.441  0.00  0.00    +0.000 A 
ATOM     28  C   UNL     1       9.880  12.426  19.930  0.00  0.00    +0.000 A 
ATOM     29  C   UNL     1       9.438  12.693  18.622  0.00  0.00    +0.000 A 
ATOM     30  C   UNL     1       9.395  14.039  17.951  0.00  0.00    +0.000 C 
ATOM     31  C   UNL     1       8.928  11.620  17.840  0.00  0.00    +0.000 A 
BRANCH  28  32
ATOM     32  O   UNL     1      10.403  13.288  20.859  0.00  0.00    +0.000 OA
BRANCH  32  33
ATOM     33  C   UNL     1       9.681  14.480  21.158  0.00  0.00    +0.000 C 
BRANCH  33  34
ATOM     34  C   UNL     1       8.539  14.188  22.126  0.00  0.00    +0.000 C 
ATOM     35  O   UNL     1       7.423  14.682  22.022  0.00  0.00    +0.000 OA
BRANCH  34  36
ATOM     36  O   UNL     1       8.864  13.317  23.107  0.00  0.00    +0.000 OA
ATOM     37  H   UNL     1       8.062  13.070  23.609  0.00  0.00    +0.000 HD
ENDBRANCH  34  36
ENDBRANCH  33  34
ENDBRANCH  32  33
ENDBRANCH  28  32
ENDBRANCH  24  25
ENDBRANCH  23  24
ENDBRANCH   3  23
TORSDOF 12
ENDMDL
MODEL 4
REMARK VINA RESULT:      -8.1      2.224      5.311
REMARK  Name = 
REMARK  15 active torsions:
REMARK  status: ('A' for Active; 'I' for Inactive)
REMARK    1  A    between atoms: C_1  and  C_2
REMARK    2  A    between atoms: C_2  and  C_3
REMARK    3  A    between atoms: C_3  and  C_4
REMARK    4  A    between atoms: C_7  and  C_8
REMARK    5  A    between atoms: C_10  and  C_11
REMARK    6  A    between atoms: C_11  and  O_12
REMARK    7  A    between atoms: O_12  and  C_13
REMARK    8  A    between atoms: C_16  and  O_17
REMARK    9  A    between atoms: O_17  and  C_18
REMARK   10  A    between atoms: C_18  and  C_19
REMARK   11  A    between atoms: C_19  and  O_21
REMARK   12  A    between atoms: C_22  and  C_23
REMARK   13  A    between atoms: C_26  and  C_27
REMARK   14  A    between atoms: C_30  and  O_31
REMARK   15  A    between atoms: O_31  and  C_32
REMARK                            x       y       z     vdW  Elec       q    Type
REMARK                         _______ _______ _______ _____ _____    ______ ____
ROOT
ATOM      1  C   UNL     1       6.601   5.752  16.564  0.00  0.00    +0.000 A 
ATOM      2  O   UNL     1       7.631   6.657  16.636  0.00  0.00    +0.000 OA
ATOM      3  C   UNL     1       7.481   7.260  17.859  0.00  0.00    +0.000 A 
ATOM      4  N   UNL     1       6.440   6.827  18.547  0.00  0.00    +0.000 NA
ATOM      5  C   UNL     1       5.861   5.883  17.727  0.00  0.00    +0.000 A 
ENDROOT
BRANCH   1   9
ATOM      6  C   UNL     1       6.171   3.666  12.849  0.00  0.00    +0.000 A 
ATOM      7  C   UNL     1       5.298   3.410  13.910  0.00  0.00    +0.000 A 
ATOM      8  C   UNL     1       5.491   4.024  15.151  0.00  0.00    +0.000 A 
ATOM      9  C   UNL     1       6.529   4.947  15.348  0.00  0.00    +0.000 A 
ATOM     10  C   UNL     1       7.440   5.148  14.305  0.00  0.00    +0.000 A 
ATOM     11  C   UNL     1       7.265   4.511  13.071  0.00  0.00    +0.000 A 
BRANCH   6  12
ATOM     12  C   UNL     1       5.943   3.043  11.493  0.00  0.00    +0.000 C 
BRANCH  12  14
ATOM     13  C   UNL     1       6.236   0.527  11.131  0.00  0.00    +0.000 C 
ATOM     14  C   UNL     1       6.903   1.896  11.146  0.00  0.00    +0.000 C 
ENDBRANCH  12  14
ENDBRANCH   6  12
ENDBRANCH   1   9
BRANCH   5  15
ATOM     15  C   UNL     1       4.661   5.156  18.081  0.00  0.00    +0.000 A 
ATOM     16  C   UNL     1       4.658   3.998  18.834  0.00  0.00    +0.000 A 
ATOM     17  N   UNL     1       3.544   3.371  19.267  0.00  0.00    +0.000 NA
ATOM     18  C   UNL     1       2.382   3.926  18.903  0.00  0.00    +0.000 A 
ATOM     19  N   UNL     1       2.250   5.010  18.120  0.00  0.00    +0.000 NA
ATOM     20  C   UNL     1       3.405   5.595  17.715  0.00  0.00    +0.000 A 
BRANCH  18  21
ATOM     21  O   UNL     1       1.266   3.263  19.362  0.00  0.00    +0.000 OA
ATOM     22  C   UNL     1       1.276   3.086  20.771  0.00  0.00    +0.000 C 
ENDBRANCH  18  21
ENDBRANCH   5  15
BRANCH   3  23
ATOM     23  C   UNL     1       8.486   8.310  18.206  0.00  0.00    +0.000 C 
BRANCH  23  24
ATOM     24  O   UNL     1       7.922   9.566  17.820  0.00  0.00    +0.000 OA
BRANCH  24  25
ATOM     25  C   UNL     1       8.653  10.682  18.104  0.00  0.00    +0.000 A 
ATOM     26  C   UNL     1       8.167  11.860  17.550  0.00  0.00    +0.000 A 
ATOM     27  C   UNL     1       8.828  13.066  17.776  0.00  0.00    +0.000 A 
ATOM     28  C   UNL     1       9.999  13.134  18.547  0.00  0.00    +0.000 A 
ATOM     29  C   UNL     1      10.544  11.940  19.050  0.00  0.00    +0.000 A 
ATOM     30  C   UNL     1      11.855  11.792  19.775  0.00  0.00    +0.000 C 
ATOM     31  C   UNL     1       9.842  10.723  18.832  0.00  0.00    +0.000 A 
BRANCH  28  32
ATOM     32  O   UNL     1      10.489  14.411  18.631  0.00  0.00    +0.000 OA
BRANCH  32  33
ATOM     33  C   UNL     1       9.888  15.309  19.561  0.00  0.00    +0.000 C 
BRANCH  33  34
ATOM     34  C   UNL     1      10.596  15.240  20.909  0.00  0.00    +0.000 C 
ATOM     35  O   UNL     1      10.316  14.424  21.778  0.00  0.00    +0.000 OA
BRANCH  34  36
ATOM     36  O   UNL     1      11.578  16.158  21.056  0.00  0.00    +0.000 OA
ATOM     37  H   UNL     1      11.359  16.962  20.545  0.00  0.00    +0.000 HD
ENDBRANCH  34  36
ENDBRANCH  33  34
ENDBRANCH  32  33
ENDBRANCH  28  32
ENDBRANCH  24  25
ENDBRANCH  23  24
ENDBRANCH   3  23
TORSDOF 12
ENDMDL
MODEL 5
REMARK VINA RESULT:      -8.1      1.335      1.984
REMARK  Name = 
REMARK  15 active torsions:
REMARK  status: ('A' for Active; 'I' for Inactive)
REMARK    1  A    between atoms: C_1  and  C_2
REMARK    2  A    between atoms: C_2  and  C_3
REMARK    3  A    between atoms: C_3  and  C_4
REMARK    4  A    between atoms: C_7  and  C_8
REMARK    5  A    between atoms: C_10  and  C_11
REMARK    6  A    between atoms: C_11  and  O_12
REMARK    7  A    between atoms: O_12  and  C_13
REMARK    8  A    between atoms: C_16  and  O_17
REMARK    9  A    between atoms: O_17  and  C_18
REMARK   10  A    between atoms: C_18  and  C_19
REMARK   11  A    between atoms: C_19  and  O_21
REMARK   12  A    between atoms: C_22  and  C_23
REMARK   13  A    between atoms: C_26  and  C_27
REMARK   14  A    between atoms: C_30  and  O_31
REMARK   15  A    between atoms: O_31  and  C_32
REMARK                            x       y       z     vdW  Elec       q    Type
REMARK                         _______ _______ _______ _____ _____    ______ ____
ROOT
ATOM      1  C   UNL     1       5.701   5.595  17.106  0.00  0.00    +0.000 A 
ATOM      2  O   UNL     1       6.243   6.409  18.070  0.00  0.00    +0.000 OA
ATOM      3  C   UNL     1       7.342   6.975  17.474  0.00  0.00    +0.000 A 
ATOM      4  N   UNL     1       7.546   6.571  16.234  0.00  0.00    +0.000 NA
ATOM      5  C   UNL     1       6.522   5.680  15.994  0.00  0.00    +0.000 A 
ENDROOT
BRANCH   1   9
ATOM      6  C   UNL     1       2.233   3.543  18.554  0.00  0.00    +0.000 A 
ATOM      7  C   UNL     1       3.424   2.847  18.324  0.00  0.00    +0.000 A 
ATOM      8  C   UNL     1       4.529   3.497  17.769  0.00  0.00    +0.000 A 
ATOM      9  C   UNL     1       4.490   4.869  17.476  0.00  0.00    +0.000 A 
ATOM     10  C   UNL     1       3.277   5.545  17.643  0.00  0.00    +0.000 A 
ATOM     11  C   UNL     1       2.159   4.888  18.172  0.00  0.00    +0.000 A 
BRANCH   6  12
ATOM     12  C   UNL     1       1.050   2.859  19.195  0.00  0.00    +0.000 C 
BRANCH  12  14
ATOM     13  C   UNL     1       1.725   2.659  21.655  0.00  0.00    +0.000 C 
ATOM     14  C   UNL     1       0.773   3.284  20.644  0.00  0.00    +0.000 C 
ENDBRANCH  12  14
ENDBRANCH   6  12
ENDBRANCH   1   9
BRANCH   5  15
ATOM     15  C   UNL     1       6.368   4.969  14.743  0.00  0.00    +0.000 A 
ATOM     16  C   UNL     1       7.377   4.828  13.810  0.00  0.00    +0.000 A 
ATOM     17  N   UNL     1       7.284   4.076  12.693  0.00  0.00    +0.000 NA
ATOM     18  C   UNL     1       6.113   3.458  12.499  0.00  0.00    +0.000 A 
ATOM     19  N   UNL     1       5.036   3.566  13.295  0.00  0.00    +0.000 NA
ATOM     20  C   UNL     1       5.189   4.338  14.400  0.00  0.00    +0.000 A 
BRANCH  18  21
ATOM     21  O   UNL     1       6.053   2.698  11.352  0.00  0.00    +0.000 OA
ATOM     22  C   UNL     1       7.232   1.936  11.139  0.00  0.00    +0.000 C 
ENDBRANCH  18  21
ENDBRANCH   5  15
BRANCH   3  23
ATOM     23  C   UNL     1       8.136   7.922  18.314  0.00  0.00    +0.000 C 
BRANCH  23  24
ATOM     24  O   UNL     1       8.373   9.083  17.514  0.00  0.00    +0.000 OA
BRANCH  24  25
ATOM     25  C   UNL     1       8.712  10.227  18.176  0.00  0.00    +0.000 A 
ATOM     26  C   UNL     1       9.285  10.035  19.427  0.00  0.00    +0.000 A 
ATOM     27  C   UNL     1       9.676  11.130  20.194  0.00  0.00    +0.000 A 
ATOM     28  C   UNL     1       9.499  12.448  19.747  0.00  0.00    +0.000 A 
ATOM     29  C   UNL     1       8.852  12.660  18.517  0.00  0.00    +0.000 A 
ATOM     30  C   UNL     1       8.448  13.988  17.936  0.00  0.00    +0.000 C 
ATOM     31  C   UNL     1       8.482  11.530  17.735  0.00  0.00    +0.000 A 
BRANCH  28  32
ATOM     32  O   UNL     1       9.942  13.369  20.660  0.00  0.00    +0.000 OA
BRANCH  32  33
ATOM     33  C   UNL     1      11.208  13.985  20.441  0.00  0.00    +0.000 C 
BRANCH  33  34
ATOM     34  C   UNL     1      11.061  15.500  20.345  0.00  0.00    +0.000 C 
ATOM     35  O   UNL     1      10.954  16.231  21.322  0.00  0.00    +0.000 OA
BRANCH  34  36
ATOM     36  O   UNL     1      11.073  15.970  19.078  0.00  0.00    +0.000 OA
ATOM     37  H   UNL     1      10.442  15.462  18.531  0.00  0.00    +0.000 HD
ENDBRANCH  34  36
ENDBRANCH  33  34
ENDBRANCH  32  33
ENDBRANCH  28  32
ENDBRANCH  24  25
ENDBRANCH  23  24
ENDBRANCH   3  23
TORSDOF 12
ENDMDL
MODEL 6
REMARK VINA RESULT:      -8.0      7.401     11.880
REMARK  Name = 
REMARK  15 active torsions:
REMARK  status: ('A' for Active; 'I' for Inactive)
REMARK    1  A    between atoms: C_1  and  C_2
REMARK    2  A    between atoms: C_2  and  C_3
REMARK    3  A    between atoms: C_3  and  C_4
REMARK    4  A    between atoms: C_7  and  C_8
REMARK    5  A    between atoms: C_10  and  C_11
REMARK    6  A    between atoms: C_11  and  O_12
REMARK    7  A    between atoms: O_12  and  C_13
REMARK    8  A    between atoms: C_16  and  O_17
REMARK    9  A    between atoms: O_17  and  C_18
REMARK   10  A    between atoms: C_18  and  C_19
REMARK   11  A    between atoms: C_19  and  O_21
REMARK   12  A    between atoms: C_22  and  C_23
REMARK   13  A    between atoms: C_26  and  C_27
REMARK   14  A    between atoms: C_30  and  O_31
REMARK   15  A    between atoms: O_31  and  C_32
REMARK                            x       y       z     vdW  Elec       q    Type
REMARK                         _______ _______ _______ _____ _____    ______ ____
ROOT
ATOM      1  C   UNL     1      -1.020  11.262  19.599  0.00  0.00    +0.000 A 
ATOM      2  O   UNL     1      -0.944  10.009  20.156  0.00  0.00    +0.000 OA
ATOM      3  C   UNL     1       0.313   9.945  20.703  0.00  0.00    +0.000 A 
ATOM      4  N   UNL     1       1.034  11.036  20.519  0.00  0.00    +0.000 NA
ATOM      5  C   UNL     1       0.207  11.873  19.803  0.00  0.00    +0.000 A 
ENDROOT
BRANCH   1   9
ATOM      6  C   UNL     1      -4.853  11.944  17.819  0.00  0.00    +0.000 A 
ATOM      7  C   UNL     1      -3.824  11.355  17.079  0.00  0.00    +0.000 A 
ATOM      8  C   UNL     1      -2.547  11.213  17.630  0.00  0.00    +0.000 A 
ATOM      9  C   UNL     1      -2.280  11.608  18.949  0.00  0.00    +0.000 A 
ATOM     10  C   UNL     1      -3.294  12.259  19.661  0.00  0.00    +0.000 A 
ATOM     11  C   UNL     1      -4.565  12.428  19.100  0.00  0.00    +0.000 A 
BRANCH   6  12
ATOM     12  C   UNL     1      -6.246  12.060  17.248  0.00  0.00    +0.000 C 
BRANCH  12  14
ATOM     13  C   UNL     1      -6.897  14.482  16.741  0.00  0.00    +0.000 C 
ATOM     14  C   UNL     1      -7.022  13.305  17.699  0.00  0.00    +0.000 C 
ENDBRANCH  12  14
ENDBRANCH   6  12
ENDBRANCH   1   9
BRANCH   5  15
ATOM     15  C   UNL     1       0.605  13.191  19.360  0.00  0.00    +0.000 A 
ATOM     16  C   UNL     1      -0.107  14.343  19.635  0.00  0.00    +0.000 A 
ATOM     17  N   UNL     1       0.307  15.590  19.328  0.00  0.00    +0.000 NA
ATOM     18  C   UNL     1       1.482  15.676  18.693  0.00  0.00    +0.000 A 
ATOM     19  N   UNL     1       2.238  14.632  18.312  0.00  0.00    +0.000 NA
ATOM     20  C   UNL     1       1.767  13.404  18.647  0.00  0.00    +0.000 A 
BRANCH  18  21
ATOM     21  O   UNL     1       1.876  16.961  18.395  0.00  0.00    +0.000 OA
ATOM     22  C   UNL     1       1.481  17.897  19.388  0.00  0.00    +0.000 C 
ENDBRANCH  18  21
ENDBRANCH   5  15
BRANCH   3  23
ATOM     23  C   UNL     1       0.672   8.666  21.386  0.00  0.00    +0.000 C 
BRANCH  23  24
ATOM     24  O   UNL     1       1.949   8.271  20.879  0.00  0.00    +0.000 OA
BRANCH  24  25
ATOM     25  C   UNL     1       1.997   7.102  20.177  0.00  0.00    +0.000 A 
ATOM     26  C   UNL     1       2.436   7.222  18.865  0.00  0.00    +0.000 A 
ATOM     27  C   UNL     1       2.532   6.094  18.052  0.00  0.00    +0.000 A 
ATOM     28  C   UNL     1       2.181   4.816  18.515  0.00  0.00    +0.000 A 
ATOM     29  C   UNL     1       1.663   4.691  19.816  0.00  0.00    +0.000 A 
ATOM     30  C   UNL     1       1.107   3.439  20.439  0.00  0.00    +0.000 C 
ATOM     31  C   UNL     1       1.598   5.848  20.640  0.00  0.00    +0.000 A 
BRANCH  28  32
ATOM     32  O   UNL     1       2.339   3.855  17.551  0.00  0.00    +0.000 OA
BRANCH  32  33
ATOM     33  C   UNL     1       3.645   3.332  17.323  0.00  0.00    +0.000 C 
BRANCH  33  34
ATOM     34  C   UNL     1       4.023   2.335  18.414  0.00  0.00    +0.000 C 
ATOM     35  O   UNL     1       3.498   1.236  18.535  0.00  0.00    +0.000 OA
BRANCH  34  36
ATOM     36  O   UNL     1       5.008   2.769  19.232  0.00  0.00    +0.000 OA
ATOM     37  H   UNL     1       5.661   2.055  19.371  0.00  0.00    +0.000 HD
ENDBRANCH  34  36
ENDBRANCH  33  34
ENDBRANCH  32  33
ENDBRANCH  28  32
ENDBRANCH  24  25
ENDBRANCH  23  24
ENDBRANCH   3  23
TORSDOF 12
ENDMDL
MODEL 7
REMARK VINA RESULT:      -7.9      1.030      1.192
REMARK  Name = 
REMARK  15 active torsions:
REMARK  status: ('A' for Active; 'I' for Inactive)
REMARK    1  A    between atoms: C_1  and  C_2
REMARK    2  A    between atoms: C_2  and  C_3
REMARK    3  A    between atoms: C_3  and  C_4
REMARK    4  A    between atoms: C_7  and  C_8
REMARK    5  A    between atoms: C_10  and  C_11
REMARK    6  A    between atoms: C_11  and  O_12
REMARK    7  A    between atoms: O_12  and  C_13
REMARK    8  A    between atoms: C_16  and  O_17
REMARK    9  A    between atoms: O_17  and  C_18
REMARK   10  A    between atoms: C_18  and  C_19
REMARK   11  A    between atoms: C_19  and  O_21
REMARK   12  A    between atoms: C_22  and  C_23
REMARK   13  A    between atoms: C_26  and  C_27
REMARK   14  A    between atoms: C_30  and  O_31
REMARK   15  A    between atoms: O_31  and  C_32
REMARK                            x       y       z     vdW  Elec       q    Type
REMARK                         _______ _______ _______ _____ _____    ______ ____
ROOT
ATOM      1  C   UNL     1       5.757   5.630  17.182  0.00  0.00    +0.000 A 
ATOM      2  O   UNL     1       6.235   6.499  18.132  0.00  0.00    +0.000 OA
ATOM      3  C   UNL     1       7.356   7.053  17.568  0.00  0.00    +0.000 A 
ATOM      4  N   UNL     1       7.631   6.594  16.361  0.00  0.00    +0.000 NA
ATOM      5  C   UNL     1       6.635   5.675  16.112  0.00  0.00    +0.000 A 
ENDROOT
BRANCH   1   9
ATOM      6  C   UNL     1       2.266   3.561  18.547  0.00  0.00    +0.000 A 
ATOM      7  C   UNL     1       3.451   2.863  18.301  0.00  0.00    +0.000 A 
ATOM      8  C   UNL     1       4.565   3.522  17.771  0.00  0.00    +0.000 A 
ATOM      9  C   UNL     1       4.538   4.903  17.522  0.00  0.00    +0.000 A 
ATOM     10  C   UNL     1       3.330   5.583  17.705  0.00  0.00    +0.000 A 
ATOM     11  C   UNL     1       2.204   4.919  18.208  0.00  0.00    +0.000 A 
BRANCH   6  12
ATOM     12  C   UNL     1       1.074   2.867  19.161  0.00  0.00    +0.000 C 
BRANCH  12  14
ATOM     13  C   UNL     1       1.871   2.992  21.589  0.00  0.00    +0.000 C 
ATOM     14  C   UNL     1       0.754   3.295  20.600  0.00  0.00    +0.000 C 
ENDBRANCH  12  14
ENDBRANCH   6  12
ENDBRANCH   1   9
BRANCH   5  15
ATOM     15  C   UNL     1       6.557   4.903  14.891  0.00  0.00    +0.000 A 
ATOM     16  C   UNL     1       5.552   3.994  14.619  0.00  0.00    +0.000 A 
ATOM     17  N   UNL     1       5.402   3.350  13.443  0.00  0.00    +0.000 NA
ATOM     18  C   UNL     1       6.320   3.619  12.507  0.00  0.00    +0.000 A 
ATOM     19  N   UNL     1       7.379   4.431  12.668  0.00  0.00    +0.000 NA
ATOM     20  C   UNL     1       7.477   5.047  13.873  0.00  0.00    +0.000 A 
BRANCH  18  21
ATOM     21  O   UNL     1       6.138   2.947  11.320  0.00  0.00    +0.000 OA
ATOM     22  C   UNL     1       7.008   1.833  11.183  0.00  0.00    +0.000 C 
ENDBRANCH  18  21
ENDBRANCH   5  15
BRANCH   3  23
ATOM     23  C   UNL     1       8.090   8.053  18.401  0.00  0.00    +0.000 C 
BRANCH  23  24
ATOM     24  O   UNL     1       8.515   9.094  17.517  0.00  0.00    +0.000 OA
BRANCH  24  25
ATOM     25  C   UNL     1       8.766  10.313  18.078  0.00  0.00    +0.000 A 
ATOM     26  C   UNL     1       8.178  11.390  17.429  0.00  0.00    +0.000 A 
ATOM     27  C   UNL     1       8.360  12.685  17.913  0.00  0.00    +0.000 A 
ATOM     28  C   UNL     1       9.142  12.946  19.049  0.00  0.00    +0.000 A 
ATOM     29  C   UNL     1       9.804  11.874  19.671  0.00  0.00    +0.000 A 
ATOM     30  C   UNL     1      10.789  11.969  20.806  0.00  0.00    +0.000 C 
ATOM     31  C   UNL     1       9.586  10.557  19.179  0.00  0.00    +0.000 A 
BRANCH  28  32
ATOM     32  O   UNL     1       9.196  14.284  19.343  0.00  0.00    +0.000 OA
BRANCH  32  33
ATOM     33  C   UNL     1       8.947  15.218  18.296  0.00  0.00    +0.000 C 
BRANCH  33  34
ATOM     34  C   UNL     1      10.116  16.186  18.149  0.00  0.00    +0.000 C 
ATOM     35  O   UNL     1      11.096  15.960  17.451  0.00  0.00    +0.000 OA
BRANCH  34  36
ATOM     36  O   UNL     1       9.967  17.332  18.852  0.00  0.00    +0.000 OA
ATOM     37  H   UNL     1       9.838  17.125  19.799  0.00  0.00    +0.000 HD
ENDBRANCH  34  36
ENDBRANCH  33  34
ENDBRANCH  32  33
ENDBRANCH  28  32
ENDBRANCH  24  25
ENDBRANCH  23  24
ENDBRANCH   3  23
TORSDOF 12
ENDMDL
MODEL 8
REMARK VINA RESULT:      -7.9      7.270     11.410
REMARK  Name = 
REMARK  15 active torsions:
REMARK  status: ('A' for Active; 'I' for Inactive)
REMARK    1  A    between atoms: C_1  and  C_2
REMARK    2  A    between atoms: C_2  and  C_3
REMARK    3  A    between atoms: C_3  and  C_4
REMARK    4  A    between atoms: C_7  and  C_8
REMARK    5  A    between atoms: C_10  and  C_11
REMARK    6  A    between atoms: C_11  and  O_12
REMARK    7  A    between atoms: O_12  and  C_13
REMARK    8  A    between atoms: C_16  and  O_17
REMARK    9  A    between atoms: O_17  and  C_18
REMARK   10  A    between atoms: C_18  and  C_19
REMARK   11  A    between atoms: C_19  and  O_21
REMARK   12  A    between atoms: C_22  and  C_23
REMARK   13  A    between atoms: C_26  and  C_27
REMARK   14  A    between atoms: C_30  and  O_31
REMARK   15  A    between atoms: O_31  and  C_32
REMARK                            x       y       z     vdW  Elec       q    Type
REMARK                         _______ _______ _______ _____ _____    ______ ____
ROOT
ATOM      1  C   UNL     1      -0.466  10.187  19.841  0.00  0.00    +0.000 A 
ATOM      2  O   UNL     1       0.322   9.162  19.380  0.00  0.00    +0.000 OA
ATOM      3  C   UNL     1       1.230   8.939  20.385  0.00  0.00    +0.000 A 
ATOM      4  N   UNL     1       1.092   9.746  21.421  0.00  0.00    +0.000 NA
ATOM      5  C   UNL     1       0.030  10.557  21.080  0.00  0.00    +0.000 A 
ENDROOT
BRANCH   1   9
ATOM      6  C   UNL     1      -3.868  11.275  17.480  0.00  0.00    +0.000 A 
ATOM      7  C   UNL     1      -3.110  10.147  17.152  0.00  0.00    +0.000 A 
ATOM      8  C   UNL     1      -1.949   9.841  17.868  0.00  0.00    +0.000 A 
ATOM      9  C   UNL     1      -1.544  10.624  18.959  0.00  0.00    +0.000 A 
ATOM     10  C   UNL     1      -2.267  11.788  19.241  0.00  0.00    +0.000 A 
ATOM     11  C   UNL     1      -3.414  12.112  18.506  0.00  0.00    +0.000 A 
BRANCH   6  12
ATOM     12  C   UNL     1      -5.148  11.587  16.742  0.00  0.00    +0.000 C 
BRANCH  12  14
ATOM     13  C   UNL     1      -6.837  10.896  18.535  0.00  0.00    +0.000 C 
ATOM     14  C   UNL     1      -6.318  12.013  17.639  0.00  0.00    +0.000 C 
ENDBRANCH  12  14
ENDBRANCH   6  12
ENDBRANCH   1   9
BRANCH   5  15
ATOM     15  C   UNL     1      -0.460  11.618  21.932  0.00  0.00    +0.000 A 
ATOM     16  C   UNL     1      -0.004  12.922  21.875  0.00  0.00    +0.000 A 
ATOM     17  N   UNL     1      -0.528  13.946  22.581  0.00  0.00    +0.000 NA
ATOM     18  C   UNL     1      -1.541  13.635  23.398  0.00  0.00    +0.000 A 
ATOM     19  N   UNL     1      -2.032  12.399  23.592  0.00  0.00    +0.000 NA
ATOM     20  C   UNL     1      -1.463  11.412  22.856  0.00  0.00    +0.000 A 
BRANCH  18  21
ATOM     21  O   UNL     1      -2.053  14.701  24.102  0.00  0.00    +0.000 OA
ATOM     22  C   UNL     1      -3.297  15.151  23.585  0.00  0.00    +0.000 C 
ENDBRANCH  18  21
ENDBRANCH   5  15
BRANCH   3  23
ATOM     23  C   UNL     1       2.229   7.855  20.145  0.00  0.00    +0.000 C 
BRANCH  23  24
ATOM     24  O   UNL     1       1.586   6.872  19.330  0.00  0.00    +0.000 OA
BRANCH  24  25
ATOM     25  C   UNL     1       2.396   6.032  18.623  0.00  0.00    +0.000 A 
ATOM     26  C   UNL     1       3.497   6.638  18.031  0.00  0.00    +0.000 A 
ATOM     27  C   UNL     1       4.399   5.879  17.287  0.00  0.00    +0.000 A 
ATOM     28  C   UNL     1       4.226   4.499  17.099  0.00  0.00    +0.000 A 
ATOM     29  C   UNL     1       3.076   3.887  17.628  0.00  0.00    +0.000 A 
ATOM     30  C   UNL     1       2.646   2.460  17.417  0.00  0.00    +0.000 C 
ATOM     31  C   UNL     1       2.180   4.671  18.406  0.00  0.00    +0.000 A 
BRANCH  28  32
ATOM     32  O   UNL     1       5.219   3.953  16.328  0.00  0.00    +0.000 OA
BRANCH  32  33
ATOM     33  C   UNL     1       5.588   4.623  15.125  0.00  0.00    +0.000 C 
BRANCH  33  34
ATOM     34  C   UNL     1       7.092   4.872  15.088  0.00  0.00    +0.000 C 
ATOM     35  O   UNL     1       7.672   5.359  14.126  0.00  0.00    +0.000 OA
BRANCH  34  36
ATOM     36  O   UNL     1       7.732   4.519  16.226  0.00  0.00    +0.000 OA
ATOM     37  H   UNL     1       7.350   3.690  16.576  0.00  0.00    +0.000 HD
ENDBRANCH  34  36
ENDBRANCH  33  34
ENDBRANCH  32  33
ENDBRANCH  28  32
ENDBRANCH  24  25
ENDBRANCH  23  24
ENDBRANCH   3  23
TORSDOF 12
ENDMDL
MODEL 9
REMARK VINA RESULT:      -7.9      6.824     10.837
REMARK  Name = 
REMARK  15 active torsions:
REMARK  status: ('A' for Active; 'I' for Inactive)
REMARK    1  A    between atoms: C_1  and  C_2
REMARK    2  A    between atoms: C_2  and  C_3
REMARK    3  A    between atoms: C_3  and  C_4
REMARK    4  A    between atoms: C_7  and  C_8
REMARK    5  A    between atoms: C_10  and  C_11
REMARK    6  A    between atoms: C_11  and  O_12
REMARK    7  A    between atoms: O_12  and  C_13
REMARK    8  A    between atoms: C_16  and  O_17
REMARK    9  A    between atoms: O_17  and  C_18
REMARK   10  A    between atoms: C_18  and  C_19
REMARK   11  A    between atoms: C_19  and  O_21
REMARK   12  A    between atoms: C_22  and  C_23
REMARK   13  A    between atoms: C_26  and  C_27
REMARK   14  A    between atoms: C_30  and  O_31
REMARK   15  A    between atoms: O_31  and  C_32
REMARK                            x       y       z     vdW  Elec       q    Type
REMARK                         _______ _______ _______ _____ _____    ______ ____
ROOT
ATOM      1  C   UNL     1       0.341  11.191  19.859  0.00  0.00    +0.000 A 
ATOM      2  O   UNL     1       0.410   9.944  19.288  0.00  0.00    +0.000 OA
ATOM      3  C   UNL     1       1.467  10.016  18.416  0.00  0.00    +0.000 A 
ATOM      4  N   UNL     1       2.049  11.200  18.376  0.00  0.00    +0.000 NA
ATOM      5  C   UNL     1       1.332  11.962  19.274  0.00  0.00    +0.000 A 
ENDROOT
BRANCH   1   9
ATOM      6  C   UNL     1      -2.538  12.087  22.899  0.00  0.00    +0.000 A 
ATOM      7  C   UNL     1      -1.487  11.202  23.158  0.00  0.00    +0.000 A 
ATOM      8  C   UNL     1      -0.598  10.841  22.141  0.00  0.00    +0.000 A 
ATOM      9  C   UNL     1      -0.706  11.391  20.855  0.00  0.00    +0.000 A 
ATOM     10  C   UNL     1      -1.799  12.222  20.583  0.00  0.00    +0.000 A 
ATOM     11  C   UNL     1      -2.707  12.562  21.592  0.00  0.00    +0.000 A 
BRANCH   6  12
ATOM     12  C   UNL     1      -3.475  12.518  24.001  0.00  0.00    +0.000 C 
BRANCH  12  14
ATOM     13  C   UNL     1      -5.988  12.934  23.768  0.00  0.00    +0.000 C 
ATOM     14  C   UNL     1      -4.583  13.483  23.560  0.00  0.00    +0.000 C 
ENDBRANCH  12  14
ENDBRANCH   6  12
ENDBRANCH   1   9
BRANCH   5  15
ATOM     15  C   UNL     1       1.618  13.355  19.536  0.00  0.00    +0.000 A 
ATOM     16  C   UNL     1       2.667  13.789  20.324  0.00  0.00    +0.000 A 
ATOM     17  N   UNL     1       3.016  15.083  20.487  0.00  0.00    +0.000 NA
ATOM     18  C   UNL     1       2.256  15.979  19.846  0.00  0.00    +0.000 A 
ATOM     19  N   UNL     1       1.173  15.691  19.105  0.00  0.00    +0.000 NA
ATOM     20  C   UNL     1       0.872  14.374  18.980  0.00  0.00    +0.000 A 
BRANCH  18  21
ATOM     21  O   UNL     1       2.639  17.288  20.033  0.00  0.00    +0.000 OA
ATOM     22  C   UNL     1       1.609  18.210  19.706  0.00  0.00    +0.000 C 
ENDBRANCH  18  21
ENDBRANCH   5  15
BRANCH   3  23
ATOM     23  C   UNL     1       1.773   8.774  17.643  0.00  0.00    +0.000 C 
BRANCH  23  24
ATOM     24  O   UNL     1       2.082   7.758  18.600  0.00  0.00    +0.000 OA
BRANCH  24  25
ATOM     25  C   UNL     1       3.059   6.868  18.259  0.00  0.00    +0.000 A 
ATOM     26  C   UNL     1       4.034   7.365  17.404  0.00  0.00    +0.000 A 
ATOM     27  C   UNL     1       5.086   6.549  16.991  0.00  0.00    +0.000 A 
ATOM     28  C   UNL     1       5.190   5.212  17.403  0.00  0.00    +0.000 A 
ATOM     29  C   UNL     1       4.169   4.673  18.205  0.00  0.00    +0.000 A 
ATOM     30  C   UNL     1       4.031   3.236  18.631  0.00  0.00    +0.000 C 
ATOM     31  C   UNL     1       3.118   5.528  18.640  0.00  0.00    +0.000 A 
BRANCH  28  32
ATOM     32  O   UNL     1       6.290   4.590  16.870  0.00  0.00    +0.000 OA
BRANCH  32  33
ATOM     33  C   UNL     1       6.118   3.795  15.700  0.00  0.00    +0.000 C 
BRANCH  33  34
ATOM     34  C   UNL     1       6.753   4.474  14.491  0.00  0.00    +0.000 C 
ATOM     35  O   UNL     1       7.585   5.368  14.578  0.00  0.00    +0.000 OA
BRANCH  34  36
ATOM     36  O   UNL     1       6.324   3.988  13.305  0.00  0.00    +0.000 OA
ATOM     37  H   UNL     1       5.359   3.835  13.340  0.00  0.00    +0.000 HD
ENDBRANCH  34  36
ENDBRANCH  33  34
ENDBRANCH  32  33
ENDBRANCH  28  32
ENDBRANCH  24  25
ENDBRANCH  23  24
ENDBRANCH   3  23
TORSDOF 12
ENDMDL
