MODEL 1
REMARK VINA RESULT:      -9.7      0.000      0.000
REMARK  Name = 
REMARK  3 active torsions:
REMARK  status: ('A' for Active; 'I' for Inactive)
REMARK    1  A    between atoms: C_1  and  C_2
REMARK    2  A    between atoms: N_5  and  C_6
REMARK    3  A    between atoms: C_9  and  C_10
REMARK                            x       y       z     vdW  Elec       q    Type
REMARK                         _______ _______ _______ _____ _____    ______ ____
ROOT
ATOM      1  C   UNL     1      -1.664  11.450  22.426  0.00  0.00    +0.000 C 
ATOM      2  C   UNL     1      -0.635  11.891  21.362  0.00  0.00    +0.000 C 
ATOM      3  C   UNL     1       0.369  10.795  21.200  0.00  0.00    +0.000 C 
ATOM      4  O   UNL     1       1.070  10.384  22.116  0.00  0.00    +0.000 OA
ATOM      5  N   UNL     1       0.255  10.314  19.936  0.00  0.00    +0.000 N 
ATOM      6  C   UNL     1      -1.004  10.625  19.508  0.00  0.00    +0.000 C 
ATOM      7  O   UNL     1      -1.769   9.914  18.867  0.00  0.00    +0.000 OA
ATOM      8  C   UNL     1      -1.392  12.078  19.970  0.00  0.00    +0.000 C 
ATOM      9  C   UNL     1      -1.166  13.643  19.678  0.00  0.00    +0.000 C 
ATOM     10  C   UNL     1       0.345  13.808  19.453  0.00  0.00    +0.000 A 
ATOM     11  C   UNL     1       0.964  14.119  18.252  0.00  0.00    +0.000 A 
ATOM     12  C   UNL     1       2.358  14.094  18.200  0.00  0.00    +0.000 A 
ATOM     13  C   UNL     1       3.113  13.756  19.333  0.00  0.00    +0.000 A 
ATOM     14  C   UNL     1       2.491  13.452  20.546  0.00  0.00    +0.000 A 
ATOM     15  C   UNL     1       1.106  13.484  20.603  0.00  0.00    +0.000 A 
ATOM     16  C   UNL     1       0.240  13.103  21.808  0.00  0.00    +0.000 C 
ATOM     17  C   UNL     1      -0.739  14.232  22.034  0.00  0.00    +0.000 A 
ATOM     18  C   UNL     1      -0.857  14.965  23.205  0.00  0.00    +0.000 A 
ATOM     19  C   UNL     1      -1.777  16.013  23.232  0.00  0.00    +0.000 A 
ATOM     20  C   UNL     1      -2.548  16.309  22.106  0.00  0.00    +0.000 A 
ATOM     21  C   UNL     1      -2.433  15.559  20.926  0.00  0.00    +0.000 A 
ATOM     22  C   UNL     1      -1.528  14.506  20.896  0.00  0.00    +0.000 A 
ENDROOT
BRANCH   5  23
ATOM     23  C   UNL     1       1.164   9.340  19.466  0.00  0.00    +0.000 A 
ATOM     24  C   UNL     1       1.800   9.415  18.230  0.00  0.00    +0.000 A 
ATOM     25  C   UNL     1       2.608   8.356  17.794  0.00  0.00    +0.000 A 
ATOM     26  C   UNL     1       2.774   7.205  18.570  0.00  0.00    +0.000 A 
ATOM     27  C   UNL     1       2.251   7.183  19.866  0.00  0.00    +0.000 A 
ATOM     28  C   UNL     1       1.458   8.243  20.303  0.00  0.00    +0.000 A 
BRANCH  26  29
ATOM     29  C   UNL     1       3.524   6.003  18.108  0.00  0.00    +0.000 C 
ATOM     30  O   UNL     1       4.747   6.112  18.001  0.00  0.00    +0.000 OA
ATOM     31  N   UNL     1       2.861   4.805  17.850  0.00  0.00    +0.000 N 
ATOM     32  C   UNL     1       1.433   4.519  18.037  0.00  0.00    +0.000 C 
ATOM     33  C   UNL     1       1.195   3.111  18.592  0.00  0.00    +0.000 C 
ATOM     34  O   UNL     1       1.880   2.115  17.825  0.00  0.00    +0.000 OA
ATOM     35  C   UNL     1       3.293   2.370  17.825  0.00  0.00    +0.000 C 
ATOM     36  C   UNL     1       3.598   3.725  17.184  0.00  0.00    +0.000 C 
ENDBRANCH  26  29
ENDBRANCH   5  23
TORSDOF 2
ENDMDL
MODEL 2
REMARK VINA RESULT:      -9.1      1.412      2.847
REMARK  Name = 
REMARK  3 active torsions:
REMARK  status: ('A' for Active; 'I' for Inactive)
REMARK    1  A    between atoms: C_1  and  C_2
REMARK    2  A    between atoms: N_5  and  C_6
REMARK    3  A    between atoms: C_9  and  C_10
REMARK                            x       y       z     vdW  Elec       q    Type
REMARK                         _______ _______ _______ _____ _____    ______ ____
ROOT
ATOM      1  C   UNL     1       1.416  13.794  21.164  0.00  0.00    +0.000 C 
ATOM      2  C   UNL     1       0.422  12.911  20.380  0.00  0.00    +0.000 C 
ATOM      3  C   UNL     1       1.192  11.809  19.725  0.00  0.00    +0.000 C 
ATOM      4  O   UNL     1       2.092  12.004  18.918  0.00  0.00    +0.000 OA
ATOM      5  N   UNL     1       0.781  10.637  20.271  0.00  0.00    +0.000 N 
ATOM      6  C   UNL     1       0.255  10.935  21.496  0.00  0.00    +0.000 C 
ATOM      7  O   UNL     1       0.404  10.313  22.541  0.00  0.00    +0.000 OA
ATOM      8  C   UNL     1      -0.599  12.253  21.413  0.00  0.00    +0.000 C 
ATOM      9  C   UNL     1      -2.004  12.869  20.928  0.00  0.00    +0.000 C 
ATOM     10  C   UNL     1      -2.253  12.277  19.531  0.00  0.00    +0.000 A 
ATOM     11  C   UNL     1      -3.237  11.358  19.197  0.00  0.00    +0.000 A 
ATOM     12  C   UNL     1      -3.231  10.825  17.908  0.00  0.00    +0.000 A 
ATOM     13  C   UNL     1      -2.253  11.204  16.977  0.00  0.00    +0.000 A 
ATOM     14  C   UNL     1      -1.268  12.137  17.310  0.00  0.00    +0.000 A 
ATOM     15  C   UNL     1      -1.275  12.676  18.588  0.00  0.00    +0.000 A 
ATOM     16  C   UNL     1      -0.239  13.642  19.169  0.00  0.00    +0.000 C 
ATOM     17  C   UNL     1      -0.995  14.801  19.776  0.00  0.00    +0.000 A 
ATOM     18  C   UNL     1      -0.841  16.132  19.416  0.00  0.00    +0.000 A 
ATOM     19  C   UNL     1      -1.657  17.076  20.038  0.00  0.00    +0.000 A 
ATOM     20  C   UNL     1      -2.599  16.684  20.990  0.00  0.00    +0.000 A 
ATOM     21  C   UNL     1      -2.744  15.338  21.360  0.00  0.00    +0.000 A 
ATOM     22  C   UNL     1      -1.926  14.392  20.755  0.00  0.00    +0.000 A 
ENDROOT
BRANCH   5  23
ATOM     23  C   UNL     1       1.263   9.411  19.760  0.00  0.00    +0.000 A 
ATOM     24  C   UNL     1       1.594   8.321  20.560  0.00  0.00    +0.000 A 
ATOM     25  C   UNL     1       2.162   7.177  19.983  0.00  0.00    +0.000 A 
ATOM     26  C   UNL     1       2.428   7.114  18.612  0.00  0.00    +0.000 A 
ATOM     27  C   UNL     1       1.972   8.146  17.788  0.00  0.00    +0.000 A 
ATOM     28  C   UNL     1       1.395   9.277  18.362  0.00  0.00    +0.000 A 
BRANCH  26  29
ATOM     29  C   UNL     1       3.135   5.973  17.964  0.00  0.00    +0.000 C 
ATOM     30  O   UNL     1       4.179   6.229  17.363  0.00  0.00    +0.000 OA
ATOM     31  N   UNL     1       2.642   4.675  18.075  0.00  0.00    +0.000 N 
ATOM     32  C   UNL     1       1.473   4.228  18.845  0.00  0.00    +0.000 C 
ATOM     33  C   UNL     1       1.719   2.884  19.539  0.00  0.00    +0.000 C 
ATOM     34  O   UNL     1       2.211   1.898  18.626  0.00  0.00    +0.000 OA
ATOM     35  C   UNL     1       3.445   2.336  18.036  0.00  0.00    +0.000 C 
ATOM     36  C   UNL     1       3.235   3.625  17.239  0.00  0.00    +0.000 C 
ENDBRANCH  26  29
ENDBRANCH   5  23
TORSDOF 2
ENDMDL
MODEL 3
REMARK VINA RESULT:      -9.1      0.673      1.046
REMARK  Name = 
REMARK  3 active torsions:
REMARK  status: ('A' for Active; 'I' for Inactive)
REMARK    1  A    between atoms: C_1  and  C_2
REMARK    2  A    between atoms: N_5  and  C_6
REMARK    3  A    between atoms: C_9  and  C_10
REMARK                            x       y       z     vdW  Elec       q    Type
REMARK                         _______ _______ _______ _____ _____    ______ ____
ROOT
ATOM      1  C   UNL     1      -1.846  12.149  22.437  0.00  0.00    +0.000 C 
ATOM      2  C   UNL     1      -0.735  12.444  21.405  0.00  0.00    +0.000 C 
ATOM      3  C   UNL     1       0.109  11.219  21.264  0.00  0.00    +0.000 C 
ATOM      4  O   UNL     1       0.719  10.711  22.197  0.00  0.00    +0.000 OA
ATOM      5  N   UNL     1      -0.035  10.761  19.995  0.00  0.00    +0.000 N 
ATOM      6  C   UNL     1      -1.225  11.247  19.533  0.00  0.00    +0.000 C 
ATOM      7  O   UNL     1      -2.064  10.652  18.867  0.00  0.00    +0.000 OA
ATOM      8  C   UNL     1      -1.418  12.739  19.994  0.00  0.00    +0.000 C 
ATOM      9  C   UNL     1      -0.967  14.258  19.719  0.00  0.00    +0.000 C 
ATOM     10  C   UNL     1       0.559  14.209  19.538  0.00  0.00    +0.000 A 
ATOM     11  C   UNL     1       1.249  14.433  18.355  0.00  0.00    +0.000 A 
ATOM     12  C   UNL     1       2.627  14.212  18.343  0.00  0.00    +0.000 A 
ATOM     13  C   UNL     1       3.295  13.769  19.494  0.00  0.00    +0.000 A 
ATOM     14  C   UNL     1       2.601  13.552  20.687  0.00  0.00    +0.000 A 
ATOM     15  C   UNL     1       1.233  13.779  20.706  0.00  0.00    +0.000 A 
ATOM     16  C   UNL     1       0.288  13.520  21.884  0.00  0.00    +0.000 C 
ATOM     17  C   UNL     1      -0.528  14.775  22.089  0.00  0.00    +0.000 A 
ATOM     18  C   UNL     1      -0.576  15.514  23.261  0.00  0.00    +0.000 A 
ATOM     19  C   UNL     1      -1.340  16.681  23.269  0.00  0.00    +0.000 A 
ATOM     20  C   UNL     1      -2.029  17.086  22.124  0.00  0.00    +0.000 A 
ATOM     21  C   UNL     1      -1.987  16.329  20.943  0.00  0.00    +0.000 A 
ATOM     22  C   UNL     1      -1.238  15.159  20.931  0.00  0.00    +0.000 A 
ENDROOT
BRANCH   5  23
ATOM     23  C   UNL     1       0.742   9.670  19.544  0.00  0.00    +0.000 A 
ATOM     24  C   UNL     1       1.137   8.617  20.364  0.00  0.00    +0.000 A 
ATOM     25  C   UNL     1       1.993   7.626  19.864  0.00  0.00    +0.000 A 
ATOM     26  C   UNL     1       2.480   7.682  18.555  0.00  0.00    +0.000 A 
ATOM     27  C   UNL     1       1.978   8.657  17.690  0.00  0.00    +0.000 A 
ATOM     28  C   UNL     1       1.116   9.635  18.184  0.00  0.00    +0.000 A 
BRANCH  26  29
ATOM     29  C   UNL     1       3.480   6.722  18.008  0.00  0.00    +0.000 C 
ATOM     30  O   UNL     1       4.633   7.132  17.869  0.00  0.00    +0.000 OA
ATOM     31  N   UNL     1       3.118   5.410  17.710  0.00  0.00    +0.000 N 
ATOM     32  C   UNL     1       1.812   4.775  17.927  0.00  0.00    +0.000 C 
ATOM     33  C   UNL     1       1.948   3.329  18.416  0.00  0.00    +0.000 C 
ATOM     34  O   UNL     1       2.821   2.565  17.577  0.00  0.00    +0.000 OA
ATOM     35  C   UNL     1       4.128   3.159  17.546  0.00  0.00    +0.000 C 
ATOM     36  C   UNL     1       4.066   4.573  16.967  0.00  0.00    +0.000 C 
ENDBRANCH  26  29
ENDBRANCH   5  23
TORSDOF 2
ENDMDL
MODEL 4
REMARK VINA RESULT:      -9.0      1.777      3.511
REMARK  Name = 
REMARK  3 active torsions:
REMARK  status: ('A' for Active; 'I' for Inactive)
REMARK    1  A    between atoms: C_1  and  C_2
REMARK    2  A    between atoms: N_5  and  C_6
REMARK    3  A    between atoms: C_9  and  C_10
REMARK                            x       y       z     vdW  Elec       q    Type
REMARK                         _______ _______ _______ _____ _____    ______ ____
ROOT
ATOM      1  C   UNL     1       2.000  13.656  20.335  0.00  0.00    +0.000 C 
ATOM      2  C   UNL     1       0.857  12.774  19.787  0.00  0.00    +0.000 C 
ATOM      3  C   UNL     1       1.463  11.553  19.173  0.00  0.00    +0.000 C 
ATOM      4  O   UNL     1       2.259  11.592  18.244  0.00  0.00    +0.000 OA
ATOM      5  N   UNL     1       1.055  10.480  19.897  0.00  0.00    +0.000 N 
ATOM      6  C   UNL     1       0.716  10.947  21.136  0.00  0.00    +0.000 C 
ATOM      7  O   UNL     1       0.962  10.429  22.219  0.00  0.00    +0.000 OA
ATOM      8  C   UNL     1      -0.058  12.310  21.009  0.00  0.00    +0.000 C 
ATOM      9  C   UNL     1      -1.473  12.977  20.634  0.00  0.00    +0.000 C 
ATOM     10  C   UNL     1      -1.941  12.262  19.356  0.00  0.00    +0.000 A 
ATOM     11  C   UNL     1      -3.016  11.391  19.255  0.00  0.00    +0.000 A 
ATOM     12  C   UNL     1      -3.215  10.725  18.045  0.00  0.00    +0.000 A 
ATOM     13  C   UNL     1      -2.345  10.927  16.962  0.00  0.00    +0.000 A 
ATOM     14  C   UNL     1      -1.269  11.811  17.061  0.00  0.00    +0.000 A 
ATOM     15  C   UNL     1      -1.073  12.482  18.260  0.00  0.00    +0.000 A 
ATOM     16  C   UNL     1       0.089  13.421  18.593  0.00  0.00    +0.000 C 
ATOM     17  C   UNL     1      -0.506  14.693  19.151  0.00  0.00    +0.000 A 
ATOM     18  C   UNL     1      -0.318  15.962  18.624  0.00  0.00    +0.000 A 
ATOM     19  C   UNL     1      -0.983  17.027  19.229  0.00  0.00    +0.000 A 
ATOM     20  C   UNL     1      -1.814  16.812  20.330  0.00  0.00    +0.000 A 
ATOM     21  C   UNL     1      -1.993  15.528  20.867  0.00  0.00    +0.000 A 
ATOM     22  C   UNL     1      -1.324  14.463  20.278  0.00  0.00    +0.000 A 
ENDROOT
BRANCH   5  23
ATOM     23  C   UNL     1       1.388   9.173  19.474  0.00  0.00    +0.000 A 
ATOM     24  C   UNL     1       1.700   8.138  20.351  0.00  0.00    +0.000 A 
ATOM     25  C   UNL     1       2.119   6.899  19.847  0.00  0.00    +0.000 A 
ATOM     26  C   UNL     1       2.253   6.684  18.472  0.00  0.00    +0.000 A 
ATOM     27  C   UNL     1       1.810   7.671  17.589  0.00  0.00    +0.000 A 
ATOM     28  C   UNL     1       1.381   8.899  18.091  0.00  0.00    +0.000 A 
BRANCH  26  29
ATOM     29  C   UNL     1       2.803   5.429  17.887  0.00  0.00    +0.000 C 
ATOM     30  O   UNL     1       1.996   4.545  17.596  0.00  0.00    +0.000 OA
ATOM     31  N   UNL     1       4.170   5.293  17.650  0.00  0.00    +0.000 N 
ATOM     32  C   UNL     1       5.215   6.305  17.856  0.00  0.00    +0.000 C 
ATOM     33  C   UNL     1       6.264   6.284  16.739  0.00  0.00    +0.000 C 
ATOM     34  O   UNL     1       6.781   4.967  16.522  0.00  0.00    +0.000 OA
ATOM     35  C   UNL     1       5.720   4.068  16.163  0.00  0.00    +0.000 C 
ATOM     36  C   UNL     1       4.691   3.970  17.291  0.00  0.00    +0.000 C 
ENDBRANCH  26  29
ENDBRANCH   5  23
TORSDOF 2
ENDMDL
MODEL 5
REMARK VINA RESULT:      -9.0      1.232      2.072
REMARK  Name = 
REMARK  3 active torsions:
REMARK  status: ('A' for Active; 'I' for Inactive)
REMARK    1  A    between atoms: C_1  and  C_2
REMARK    2  A    between atoms: N_5  and  C_6
REMARK    3  A    between atoms: C_9  and  C_10
REMARK                            x       y       z     vdW  Elec       q    Type
REMARK                         _______ _______ _______ _____ _____    ______ ____
ROOT
ATOM      1  C   UNL     1      -1.537  11.518  22.350  0.00  0.00    +0.000 C 
ATOM      2  C   UNL     1      -0.508  11.928  21.274  0.00  0.00    +0.000 C 
ATOM      3  C   UNL     1       0.457  10.800  21.096  0.00  0.00    +0.000 C 
ATOM      4  O   UNL     1       1.156  10.364  22.002  0.00  0.00    +0.000 OA
ATOM      5  N   UNL     1       0.311  10.327  19.833  0.00  0.00    +0.000 N 
ATOM      6  C   UNL     1      -0.943  10.681  19.422  0.00  0.00    +0.000 C 
ATOM      7  O   UNL     1      -1.739   9.997  18.789  0.00  0.00    +0.000 OA
ATOM      8  C   UNL     1      -1.276  12.144  19.893  0.00  0.00    +0.000 C 
ATOM      9  C   UNL     1      -1.003  13.702  19.602  0.00  0.00    +0.000 C 
ATOM     10  C   UNL     1       0.510  13.817  19.358  0.00  0.00    +0.000 A 
ATOM     11  C   UNL     1       1.123  14.111  18.149  0.00  0.00    +0.000 A 
ATOM     12  C   UNL     1       2.515  14.041  18.079  0.00  0.00    +0.000 A 
ATOM     13  C   UNL     1       3.273  13.675  19.201  0.00  0.00    +0.000 A 
ATOM     14  C   UNL     1       2.657  13.388  20.421  0.00  0.00    +0.000 A 
ATOM     15  C   UNL     1       1.274  13.466  20.497  0.00  0.00    +0.000 A 
ATOM     16  C   UNL     1       0.412  13.110  21.712  0.00  0.00    +0.000 C 
ATOM     17  C   UNL     1      -0.526  14.270  21.953  0.00  0.00    +0.000 A 
ATOM     18  C   UNL     1      -0.605  15.003  23.128  0.00  0.00    +0.000 A 
ATOM     19  C   UNL     1      -1.489  16.080  23.169  0.00  0.00    +0.000 A 
ATOM     20  C   UNL     1      -2.264  16.405  22.055  0.00  0.00    +0.000 A 
ATOM     21  C   UNL     1      -2.189  15.655  20.872  0.00  0.00    +0.000 A 
ATOM     22  C   UNL     1      -1.320  14.572  20.826  0.00  0.00    +0.000 A 
ENDROOT
BRANCH   5  23
ATOM     23  C   UNL     1       1.181   9.325  19.348  0.00  0.00    +0.000 A 
ATOM     24  C   UNL     1       1.780   9.369  18.093  0.00  0.00    +0.000 A 
ATOM     25  C   UNL     1       2.549   8.284  17.647  0.00  0.00    +0.000 A 
ATOM     26  C   UNL     1       2.710   7.139  18.433  0.00  0.00    +0.000 A 
ATOM     27  C   UNL     1       2.227   7.147  19.744  0.00  0.00    +0.000 A 
ATOM     28  C   UNL     1       1.474   8.232  20.191  0.00  0.00    +0.000 A 
BRANCH  26  29
ATOM     29  C   UNL     1       3.417   5.914  17.964  0.00  0.00    +0.000 C 
ATOM     30  O   UNL     1       2.719   4.949  17.650  0.00  0.00    +0.000 OA
ATOM     31  N   UNL     1       4.806   5.891  17.855  0.00  0.00    +0.000 N 
ATOM     32  C   UNL     1       5.737   7.001  18.098  0.00  0.00    +0.000 C 
ATOM     33  C   UNL     1       6.882   7.026  17.081  0.00  0.00    +0.000 C 
ATOM     34  O   UNL     1       7.528   5.752  16.979  0.00  0.00    +0.000 OA
ATOM     35  C   UNL     1       6.586   4.746  16.576  0.00  0.00    +0.000 C 
ATOM     36  C   UNL     1       5.469   4.606  17.612  0.00  0.00    +0.000 C 
ENDBRANCH  26  29
ENDBRANCH   5  23
TORSDOF 2
ENDMDL
MODEL 6
REMARK VINA RESULT:      -8.7      1.704      3.173
REMARK  Name = 
REMARK  3 active torsions:
REMARK  status: ('A' for Active; 'I' for Inactive)
REMARK    1  A    between atoms: C_1  and  C_2
REMARK    2  A    between atoms: N_5  and  C_6
REMARK    3  A    between atoms: C_9  and  C_10
REMARK                            x       y       z     vdW  Elec       q    Type
REMARK                         _______ _______ _______ _____ _____    ______ ____
ROOT
ATOM      1  C   UNL     1       1.212  13.683  21.413  0.00  0.00    +0.000 C 
ATOM      2  C   UNL     1       0.285  12.811  20.537  0.00  0.00    +0.000 C 
ATOM      3  C   UNL     1       1.132  11.822  19.803  0.00  0.00    +0.000 C 
ATOM      4  O   UNL     1       2.027  12.143  19.031  0.00  0.00    +0.000 OA
ATOM      5  N   UNL     1       0.790  10.583  20.237  0.00  0.00    +0.000 N 
ATOM      6  C   UNL     1       0.232  10.739  21.475  0.00  0.00    +0.000 C 
ATOM      7  O   UNL     1       0.408  10.038  22.464  0.00  0.00    +0.000 OA
ATOM      8  C   UNL     1      -0.704  12.003  21.492  0.00  0.00    +0.000 C 
ATOM      9  C   UNL     1      -2.139  12.570  21.038  0.00  0.00    +0.000 C 
ATOM     10  C   UNL     1      -2.334  12.088  19.591  0.00  0.00    +0.000 A 
ATOM     11  C   UNL     1      -3.252  11.142  19.161  0.00  0.00    +0.000 A 
ATOM     12  C   UNL     1      -3.198  10.725  17.830  0.00  0.00    +0.000 A 
ATOM     13  C   UNL     1      -2.235  11.245  16.953  0.00  0.00    +0.000 A 
ATOM     14  C   UNL     1      -1.316  12.205  17.383  0.00  0.00    +0.000 A 
ATOM     15  C   UNL     1      -1.372  12.629  18.703  0.00  0.00    +0.000 A 
ATOM     16  C   UNL     1      -0.406  13.603  19.384  0.00  0.00    +0.000 C 
ATOM     17  C   UNL     1      -1.242  14.654  20.076  0.00  0.00    +0.000 A 
ATOM     18  C   UNL     1      -1.170  16.019  19.835  0.00  0.00    +0.000 A 
ATOM     19  C   UNL     1      -2.051  16.852  20.522  0.00  0.00    +0.000 A 
ATOM     20  C   UNL     1      -2.977  16.319  21.421  0.00  0.00    +0.000 A 
ATOM     21  C   UNL     1      -3.040  14.940  21.670  0.00  0.00    +0.000 A 
ATOM     22  C   UNL     1      -2.157  14.104  20.999  0.00  0.00    +0.000 A 
ENDROOT
BRANCH   5  23
ATOM     23  C   UNL     1       1.356   9.439  19.630  0.00  0.00    +0.000 A 
ATOM     24  C   UNL     1       1.604   9.338  18.264  0.00  0.00    +0.000 A 
ATOM     25  C   UNL     1       2.071   8.130  17.726  0.00  0.00    +0.000 A 
ATOM     26  C   UNL     1       2.274   7.008  18.534  0.00  0.00    +0.000 A 
ATOM     27  C   UNL     1       2.158   7.145  19.920  0.00  0.00    +0.000 A 
ATOM     28  C   UNL     1       1.707   8.350  20.455  0.00  0.00    +0.000 A 
BRANCH  26  29
ATOM     29  C   UNL     1       2.657   5.670  18.002  0.00  0.00    +0.000 C 
ATOM     30  O   UNL     1       1.748   4.859  17.815  0.00  0.00    +0.000 OA
ATOM     31  N   UNL     1       3.985   5.379  17.696  0.00  0.00    +0.000 N 
ATOM     32  C   UNL     1       5.137   6.287  17.775  0.00  0.00    +0.000 C 
ATOM     33  C   UNL     1       6.106   6.091  16.604  0.00  0.00    +0.000 C 
ATOM     34  O   UNL     1       6.473   4.717  16.444  0.00  0.00    +0.000 OA
ATOM     35  C   UNL     1       5.307   3.914  16.206  0.00  0.00    +0.000 C 
ATOM     36  C   UNL     1       4.346   3.990  17.395  0.00  0.00    +0.000 C 
ENDBRANCH  26  29
ENDBRANCH   5  23
TORSDOF 2
ENDMDL
MODEL 7
REMARK VINA RESULT:      -8.5      1.135      1.138
REMARK  Name = 
REMARK  3 active torsions:
REMARK  status: ('A' for Active; 'I' for Inactive)
REMARK    1  A    between atoms: C_1  and  C_2
REMARK    2  A    between atoms: N_5  and  C_6
REMARK    3  A    between atoms: C_9  and  C_10
REMARK                            x       y       z     vdW  Elec       q    Type
REMARK                         _______ _______ _______ _____ _____    ______ ____
ROOT
ATOM      1  C   UNL     1      -2.021  12.252  22.042  0.00  0.00    +0.000 C 
ATOM      2  C   UNL     1      -0.786  12.578  21.174  0.00  0.00    +0.000 C 
ATOM      3  C   UNL     1       0.078  11.359  21.115  0.00  0.00    +0.000 C 
ATOM      4  O   UNL     1       0.563  10.830  22.107  0.00  0.00    +0.000 OA
ATOM      5  N   UNL     1       0.107  10.934  19.827  0.00  0.00    +0.000 N 
ATOM      6  C   UNL     1      -1.016  11.427  19.224  0.00  0.00    +0.000 C 
ATOM      7  O   UNL     1      -1.754  10.846  18.438  0.00  0.00    +0.000 OA
ATOM      8  C   UNL     1      -1.278  12.906  19.692  0.00  0.00    +0.000 C 
ATOM      9  C   UNL     1      -0.804  14.433  19.517  0.00  0.00    +0.000 C 
ATOM     10  C   UNL     1       0.732  14.394  19.538  0.00  0.00    +0.000 A 
ATOM     11  C   UNL     1       1.571  14.651  18.464  0.00  0.00    +0.000 A 
ATOM     12  C   UNL     1       2.940  14.435  18.628  0.00  0.00    +0.000 A 
ATOM     13  C   UNL     1       3.452  13.965  19.846  0.00  0.00    +0.000 A 
ATOM     14  C   UNL     1       2.609  13.715  20.931  0.00  0.00    +0.000 A 
ATOM     15  C   UNL     1       1.249  13.937  20.775  0.00  0.00    +0.000 A 
ATOM     16  C   UNL     1       0.159  13.645  21.810  0.00  0.00    +0.000 C 
ATOM     17  C   UNL     1      -0.687  14.891  21.936  0.00  0.00    +0.000 A 
ATOM     18  C   UNL     1      -0.894  15.600  23.110  0.00  0.00    +0.000 A 
ATOM     19  C   UNL     1      -1.660  16.763  23.046  0.00  0.00    +0.000 A 
ATOM     20  C   UNL     1      -2.195  17.195  21.831  0.00  0.00    +0.000 A 
ATOM     21  C   UNL     1      -1.991  16.469  20.647  0.00  0.00    +0.000 A 
ATOM     22  C   UNL     1      -1.240  15.302  20.705  0.00  0.00    +0.000 A 
ENDROOT
BRANCH   5  23
ATOM     23  C   UNL     1       0.943   9.857  19.455  0.00  0.00    +0.000 A 
ATOM     24  C   UNL     1       1.541   9.745  18.204  0.00  0.00    +0.000 A 
ATOM     25  C   UNL     1       2.274   8.594  17.879  0.00  0.00    +0.000 A 
ATOM     26  C   UNL     1       2.399   7.537  18.785  0.00  0.00    +0.000 A 
ATOM     27  C   UNL     1       1.919   7.703  20.087  0.00  0.00    +0.000 A 
ATOM     28  C   UNL     1       1.203   8.854  20.412  0.00  0.00    +0.000 A 
BRANCH  26  29
ATOM     29  C   UNL     1       3.065   6.246  18.454  0.00  0.00    +0.000 C 
ATOM     30  O   UNL     1       3.966   6.279  17.614  0.00  0.00    +0.000 OA
ATOM     31  N   UNL     1       2.699   5.069  19.103  0.00  0.00    +0.000 N 
ATOM     32  C   UNL     1       1.720   4.917  20.188  0.00  0.00    +0.000 C 
ATOM     33  C   UNL     1       2.184   3.911  21.246  0.00  0.00    +0.000 C 
ATOM     34  O   UNL     1       2.581   2.668  20.659  0.00  0.00    +0.000 OA
ATOM     35  C   UNL     1       3.656   2.876  19.730  0.00  0.00    +0.000 C 
ATOM     36  C   UNL     1       3.214   3.795  18.589  0.00  0.00    +0.000 C 
ENDBRANCH  26  29
ENDBRANCH   5  23
TORSDOF 2
ENDMDL
MODEL 8
REMARK VINA RESULT:      -8.4      5.041      7.537
REMARK  Name = 
REMARK  3 active torsions:
REMARK  status: ('A' for Active; 'I' for Inactive)
REMARK    1  A    between atoms: C_1  and  C_2
REMARK    2  A    between atoms: N_5  and  C_6
REMARK    3  A    between atoms: C_9  and  C_10
REMARK                            x       y       z     vdW  Elec       q    Type
REMARK                         _______ _______ _______ _____ _____    ______ ____
ROOT
ATOM      1  C   UNL     1      -3.185  15.905  22.200  0.00  0.00    +0.000 C 
ATOM      2  C   UNL     1      -2.322  14.637  22.020  0.00  0.00    +0.000 C 
ATOM      3  C   UNL     1      -1.241  14.945  21.034  0.00  0.00    +0.000 C 
ATOM      4  O   UNL     1      -1.461  15.301  19.883  0.00  0.00    +0.000 OA
ATOM      5  N   UNL     1      -0.053  14.862  21.683  0.00  0.00    +0.000 N 
ATOM      6  C   UNL     1      -0.315  15.048  23.011  0.00  0.00    +0.000 C 
ATOM      7  O   UNL     1       0.335  15.708  23.813  0.00  0.00    +0.000 OA
ATOM      8  C   UNL     1      -1.632  14.289  23.416  0.00  0.00    +0.000 C 
ATOM      9  C   UNL     1      -2.257  12.843  23.742  0.00  0.00    +0.000 C 
ATOM     10  C   UNL     1      -1.704  11.901  22.660  0.00  0.00    +0.000 A 
ATOM     11  C   UNL     1      -0.792  10.876  22.859  0.00  0.00    +0.000 A 
ATOM     12  C   UNL     1      -0.295  10.208  21.739  0.00  0.00    +0.000 A 
ATOM     13  C   UNL     1      -0.703  10.569  20.446  0.00  0.00    +0.000 A 
ATOM     14  C   UNL     1      -1.629  11.596  20.247  0.00  0.00    +0.000 A 
ATOM     15  C   UNL     1      -2.132  12.256  21.358  0.00  0.00    +0.000 A 
ATOM     16  C   UNL     1      -3.084  13.455  21.344  0.00  0.00    +0.000 C 
ATOM     17  C   UNL     1      -4.224  13.136  22.284  0.00  0.00    +0.000 A 
ATOM     18  C   UNL     1      -5.564  13.097  21.930  0.00  0.00    +0.000 A 
ATOM     19  C   UNL     1      -6.489  12.731  22.907  0.00  0.00    +0.000 A 
ATOM     20  C   UNL     1      -6.067  12.412  24.199  0.00  0.00    +0.000 A 
ATOM     21  C   UNL     1      -4.712  12.463  24.556  0.00  0.00    +0.000 A 
ATOM     22  C   UNL     1      -3.785  12.839  23.592  0.00  0.00    +0.000 A 
ENDROOT
BRANCH   5  23
ATOM     23  C   UNL     1       1.157  14.995  20.965  0.00  0.00    +0.000 A 
ATOM     24  C   UNL     1       1.796  16.214  20.756  0.00  0.00    +0.000 A 
ATOM     25  C   UNL     1       2.938  16.274  19.945  0.00  0.00    +0.000 A 
ATOM     26  C   UNL     1       3.442  15.131  19.318  0.00  0.00    +0.000 A 
ATOM     27  C   UNL     1       2.888  13.888  19.635  0.00  0.00    +0.000 A 
ATOM     28  C   UNL     1       1.760  13.828  20.453  0.00  0.00    +0.000 A 
BRANCH  26  29
ATOM     29  C   UNL     1       4.580  15.155  18.357  0.00  0.00    +0.000 C 
ATOM     30  O   UNL     1       4.303  15.277  17.162  0.00  0.00    +0.000 OA
ATOM     31  N   UNL     1       5.896  15.082  18.809  0.00  0.00    +0.000 N 
ATOM     32  C   UNL     1       6.358  15.039  20.203  0.00  0.00    +0.000 C 
ATOM     33  C   UNL     1       7.624  15.875  20.415  0.00  0.00    +0.000 C 
ATOM     34  O   UNL     1       8.644  15.545  19.466  0.00  0.00    +0.000 OA
ATOM     35  C   UNL     1       8.172  15.769  18.129  0.00  0.00    +0.000 C 
ATOM     36  C   UNL     1       6.965  14.880  17.825  0.00  0.00    +0.000 C 
ENDBRANCH  26  29
ENDBRANCH   5  23
TORSDOF 2
ENDMDL
MODEL 9
REMARK VINA RESULT:      -8.3      1.624      2.674
REMARK  Name = 
REMARK  3 active torsions:
REMARK  status: ('A' for Active; 'I' for Inactive)
REMARK    1  A    between atoms: C_1  and  C_2
REMARK    2  A    between atoms: N_5  and  C_6
REMARK    3  A    between atoms: C_9  and  C_10
REMARK                            x       y       z     vdW  Elec       q    Type
REMARK                         _______ _______ _______ _____ _____    ______ ____
ROOT
ATOM      1  C   UNL     1       0.469  13.357  21.930  0.00  0.00    +0.000 C 
ATOM      2  C   UNL     1      -0.256  12.568  20.818  0.00  0.00    +0.000 C 
ATOM      3  C   UNL     1       0.745  11.686  20.143  0.00  0.00    +0.000 C 
ATOM      4  O   UNL     1       1.745  12.112  19.579  0.00  0.00    +0.000 OA
ATOM      5  N   UNL     1       0.387  10.399  20.377  0.00  0.00    +0.000 N 
ATOM      6  C   UNL     1      -0.381  10.402  21.507  0.00  0.00    +0.000 C 
ATOM      7  O   UNL     1      -0.349   9.600  22.432  0.00  0.00    +0.000 OA
ATOM      8  C   UNL     1      -1.359  11.635  21.494  0.00  0.00    +0.000 C 
ATOM      9  C   UNL     1      -2.718  12.215  20.858  0.00  0.00    +0.000 C 
ATOM     10  C   UNL     1      -2.641  11.895  19.356  0.00  0.00    +0.000 A 
ATOM     11  C   UNL     1      -3.431  10.981  18.674  0.00  0.00    +0.000 A 
ATOM     12  C   UNL     1      -3.131  10.718  17.337  0.00  0.00    +0.000 A 
ATOM     13  C   UNL     1      -2.054  11.355  16.702  0.00  0.00    +0.000 A 
ATOM     14  C   UNL     1      -1.264  12.281  17.386  0.00  0.00    +0.000 A 
ATOM     15  C   UNL     1      -1.565  12.553  18.713  0.00  0.00    +0.000 A 
ATOM     16  C   UNL     1      -0.772  13.467  19.652  0.00  0.00    +0.000 C 
ATOM     17  C   UNL     1      -1.758  14.415  20.295  0.00  0.00    +0.000 A 
ATOM     18  C   UNL     1      -1.703  15.799  20.217  0.00  0.00    +0.000 A 
ATOM     19  C   UNL     1      -2.724  16.530  20.823  0.00  0.00    +0.000 A 
ATOM     20  C   UNL     1      -3.767  15.878  21.484  0.00  0.00    +0.000 A 
ATOM     21  C   UNL     1      -3.813  14.479  21.570  0.00  0.00    +0.000 A 
ATOM     22  C   UNL     1      -2.794  13.744  20.979  0.00  0.00    +0.000 A 
ENDROOT
BRANCH   5  23
ATOM     23  C   UNL     1       1.096   9.343  19.760  0.00  0.00    +0.000 A 
ATOM     24  C   UNL     1       1.333   9.275  18.390  0.00  0.00    +0.000 A 
ATOM     25  C   UNL     1       1.955   8.143  17.844  0.00  0.00    +0.000 A 
ATOM     26  C   UNL     1       2.326   7.062  18.649  0.00  0.00    +0.000 A 
ATOM     27  C   UNL     1       2.216   7.184  20.037  0.00  0.00    +0.000 A 
ATOM     28  C   UNL     1       1.609   8.316  20.579  0.00  0.00    +0.000 A 
BRANCH  26  29
ATOM     29  C   UNL     1       2.882   5.789  18.110  0.00  0.00    +0.000 C 
ATOM     30  O   UNL     1       3.876   5.873  17.387  0.00  0.00    +0.000 OA
ATOM     31  N   UNL     1       2.314   4.563  18.450  0.00  0.00    +0.000 N 
ATOM     32  C   UNL     1       1.201   4.323  19.378  0.00  0.00    +0.000 C 
ATOM     33  C   UNL     1       1.422   3.071  20.232  0.00  0.00    +0.000 C 
ATOM     34  O   UNL     1       1.750   1.932  19.429  0.00  0.00    +0.000 OA
ATOM     35  C   UNL     1       2.945   2.182  18.674  0.00  0.00    +0.000 C 
ATOM     36  C   UNL     1       2.746   3.364  17.723  0.00  0.00    +0.000 C 
ENDBRANCH  26  29
ENDBRANCH   5  23
TORSDOF 2
ENDMDL
