MODEL 1
REMARK VINA RESULT:      -6.0      0.000      0.000
REMARK  Name = 
REMARK  9 active torsions:
REMARK  status: ('A' for Active; 'I' for Inactive)
REMARK    1  A    between atoms: C_1  and  C_2
REMARK    2  A    between atoms: C_2  and  C_3
REMARK    3  A    between atoms: C_11  and  C_12
REMARK    4  A    between atoms: N_14  and  C_15
REMARK    5  A    between atoms: N_14  and  C_17
REMARK    6  A    between atoms: C_15  and  C_16
REMARK    7  A    between atoms: C_17  and  C_18
REMARK    8  A    between atoms: C_19  and  C_20
REMARK    9  A    between atoms: C_24  and  C_25
REMARK                            x       y       z     vdW  Elec       q    Type
REMARK                         _______ _______ _______ _____ _____    ______ ____
ROOT
ATOM      1  C   UNL     1       4.310   5.026  18.819  0.00  0.00    +0.000 C 
ATOM      2  C   UNL     1       3.243   5.805  19.132  0.00  0.00    +0.000 C 
ATOM      3  N   UNL     1       2.559   5.693  20.354  0.00  0.00    +0.000 N 
ATOM      4  C   UNL     1       1.899   6.782  21.092  0.00  0.00    +0.000 C 
ATOM      5  C   UNL     1       1.305   7.848  20.151  0.00  0.00    +0.000 C 
ATOM      6  C   UNL     1       0.901   9.181  20.832  0.00  0.00    +0.000 C 
ATOM      7  C   UNL     1      -0.290   9.296  21.805  0.00  0.00    +0.000 C 
ATOM      8  C   UNL     1      -0.592  10.822  21.856  0.00  0.00    +0.000 C 
ATOM      9  C   UNL     1       0.162  11.451  20.681  0.00  0.00    +0.000 C 
ATOM     10  C   UNL     1       0.496  10.249  19.775  0.00  0.00    +0.000 C 
ATOM     11  C   UNL     1      -0.676   9.747  18.888  0.00  0.00    +0.000 C 
ATOM     12  C   UNL     1       1.710  10.584  18.928  0.00  0.00    +0.000 C 
ATOM     13  C   UNL     1       2.142   9.376  18.147  0.00  0.00    +0.000 C 
ATOM     14  C   UNL     1       2.382   8.139  19.042  0.00  0.00    +0.000 C 
ATOM     15  C   UNL     1       2.697   6.861  18.186  0.00  0.00    +0.000 C 
ATOM     16  C   UNL     1       1.421   6.257  17.537  0.00  0.00    +0.000 C 
ATOM     17  C   UNL     1       3.671   7.279  17.060  0.00  0.00    +0.000 C 
ATOM     18  C   UNL     1       4.710   6.305  16.587  0.00  0.00    +0.000 C 
ATOM     19  C   UNL     1       5.054   5.197  17.534  0.00  0.00    +0.000 C 
ATOM     20  O   UNL     1       5.984   4.443  17.243  0.00  0.00    +0.000 OA
ATOM     21  H   UNL     1       2.188   4.759  20.532  0.00  0.00    +0.000 HD
ENDROOT
BRANCH   9  22
ATOM     22  C   UNL     1      -0.483  12.639  19.931  0.00  0.00    +0.000 C 
ATOM     23  O   UNL     1      -1.663  12.599  19.586  0.00  0.00    +0.000 OA
ATOM     24  N   UNL     1       0.357  13.706  19.561  0.00  0.00    +0.000 N 
BRANCH  24  25
ATOM     25  C   UNL     1      -0.175  14.732  18.647  0.00  0.00    +0.000 C 
ATOM     26  C   UNL     1      -0.495  16.062  19.323  0.00  0.00    +0.000 C 
ENDBRANCH  24  25
BRANCH  24  27
ATOM     27  C   UNL     1       1.576  14.047  20.299  0.00  0.00    +0.000 C 
ATOM     28  C   UNL     1       2.826  14.134  19.434  0.00  0.00    +0.000 C 
ENDBRANCH  24  27
ENDBRANCH   9  22
BRANCH   1  30
ATOM     29  C   UNL     1       4.122   2.608  19.506  0.00  0.00    +0.000 C 
ATOM     30  C   UNL     1       4.856   3.934  19.707  0.00  0.00    +0.000 C 
ENDBRANCH   1  30
TORSDOF 4
ENDMDL
MODEL 2
REMARK VINA RESULT:      -5.7      2.331      3.683
REMARK  Name = 
REMARK  9 active torsions:
REMARK  status: ('A' for Active; 'I' for Inactive)
REMARK    1  A    between atoms: C_1  and  C_2
REMARK    2  A    between atoms: C_2  and  C_3
REMARK    3  A    between atoms: C_11  and  C_12
REMARK    4  A    between atoms: N_14  and  C_15
REMARK    5  A    between atoms: N_14  and  C_17
REMARK    6  A    between atoms: C_15  and  C_16
REMARK    7  A    between atoms: C_17  and  C_18
REMARK    8  A    between atoms: C_19  and  C_20
REMARK    9  A    between atoms: C_24  and  C_25
REMARK                            x       y       z     vdW  Elec       q    Type
REMARK                         _______ _______ _______ _____ _____    ______ ____
ROOT
ATOM      1  C   UNL     1       1.841   7.647  19.915  0.00  0.00    +0.000 C 
ATOM      2  C   UNL     1       1.016   8.657  20.291  0.00  0.00    +0.000 C 
ATOM      3  N   UNL     1       0.423   8.714  21.564  0.00  0.00    +0.000 N 
ATOM      4  C   UNL     1       0.099   9.931  22.326  0.00  0.00    +0.000 C 
ATOM      5  C   UNL     1      -0.299  11.104  21.410  0.00  0.00    +0.000 C 
ATOM      6  C   UNL     1      -0.322  12.497  22.091  0.00  0.00    +0.000 C 
ATOM      7  C   UNL     1      -1.372  12.893  23.148  0.00  0.00    +0.000 C 
ATOM      8  C   UNL     1      -1.301  14.448  23.189  0.00  0.00    +0.000 C 
ATOM      9  C   UNL     1      -0.515  14.877  21.947  0.00  0.00    +0.000 C 
ATOM     10  C   UNL     1      -0.546  13.627  21.045  0.00  0.00    +0.000 C 
ATOM     11  C   UNL     1      -1.869  13.414  20.260  0.00  0.00    +0.000 C 
ATOM     12  C   UNL     1       0.642  13.663  20.101  0.00  0.00    +0.000 C 
ATOM     13  C   UNL     1       0.714  12.384  19.316  0.00  0.00    +0.000 C 
ATOM     14  C   UNL     1       0.726  11.129  20.217  0.00  0.00    +0.000 C 
ATOM     15  C   UNL     1       0.663   9.809  19.367  0.00  0.00    +0.000 C 
ATOM     16  C   UNL     1      -0.767   9.522  18.829  0.00  0.00    +0.000 C 
ATOM     17  C   UNL     1       1.616   9.981  18.162  0.00  0.00    +0.000 C 
ATOM     18  C   UNL     1       2.355   8.789  17.632  0.00  0.00    +0.000 C 
ATOM     19  C   UNL     1       2.502   7.633  18.575  0.00  0.00    +0.000 C 
ATOM     20  O   UNL     1       3.201   6.679  18.230  0.00  0.00    +0.000 OA
ATOM     21  H   UNL     1      -0.142   7.895  21.789  0.00  0.00    +0.000 HD
ENDROOT
BRANCH   9  22
ATOM     22  C   UNL     1      -0.918  16.181  21.222  0.00  0.00    +0.000 C 
ATOM     23  O   UNL     1      -2.102  16.445  21.014  0.00  0.00    +0.000 OA
ATOM     24  N   UNL     1       0.116  16.988  20.714  0.00  0.00    +0.000 N 
BRANCH  24  25
ATOM     25  C   UNL     1      -0.239  18.106  19.822  0.00  0.00    +0.000 C 
ATOM     26  C   UNL     1      -0.416  17.705  18.360  0.00  0.00    +0.000 C 
ENDBRANCH  24  25
BRANCH  24  27
ATOM     27  C   UNL     1       1.462  17.011  21.296  0.00  0.00    +0.000 C 
ATOM     28  C   UNL     1       2.581  16.789  20.288  0.00  0.00    +0.000 C 
ENDBRANCH  24  27
ENDBRANCH   9  22
BRANCH   1  30
ATOM     29  C   UNL     1       1.273   5.262  20.504  0.00  0.00    +0.000 C 
ATOM     30  C   UNL     1       2.183   6.459  20.783  0.00  0.00    +0.000 C 
ENDBRANCH   1  30
TORSDOF 4
ENDMDL
MODEL 3
REMARK VINA RESULT:      -5.6      5.911      8.639
REMARK  Name = 
REMARK  9 active torsions:
REMARK  status: ('A' for Active; 'I' for Inactive)
REMARK    1  A    between atoms: C_1  and  C_2
REMARK    2  A    between atoms: C_2  and  C_3
REMARK    3  A    between atoms: C_11  and  C_12
REMARK    4  A    between atoms: N_14  and  C_15
REMARK    5  A    between atoms: N_14  and  C_17
REMARK    6  A    between atoms: C_15  and  C_16
REMARK    7  A    between atoms: C_17  and  C_18
REMARK    8  A    between atoms: C_19  and  C_20
REMARK    9  A    between atoms: C_24  and  C_25
REMARK                            x       y       z     vdW  Elec       q    Type
REMARK                         _______ _______ _______ _____ _____    ______ ____
ROOT
ATOM      1  C   UNL     1      -2.973  13.372  22.166  0.00  0.00    +0.000 C 
ATOM      2  C   UNL     1      -2.053  13.711  21.227  0.00  0.00    +0.000 C 
ATOM      3  N   UNL     1      -2.194  14.842  20.405  0.00  0.00    +0.000 N 
ATOM      4  C   UNL     1      -1.107  15.679  19.874  0.00  0.00    +0.000 C 
ATOM      5  C   UNL     1       0.169  14.865  19.584  0.00  0.00    +0.000 C 
ATOM      6  C   UNL     1       1.451  15.705  19.352  0.00  0.00    +0.000 C 
ATOM      7  C   UNL     1       1.661  16.583  18.102  0.00  0.00    +0.000 C 
ATOM      8  C   UNL     1       3.197  16.839  18.072  0.00  0.00    +0.000 C 
ATOM      9  C   UNL     1       3.820  15.838  19.049  0.00  0.00    +0.000 C 
ATOM     10  C   UNL     1       2.708  14.792  19.260  0.00  0.00    +0.000 C 
ATOM     11  C   UNL     1       2.563  13.746  18.121  0.00  0.00    +0.000 C 
ATOM     12  C   UNL     1       2.915  14.107  20.599  0.00  0.00    +0.000 C 
ATOM     13  C   UNL     1       1.761  13.191  20.892  0.00  0.00    +0.000 C 
ATOM     14  C   UNL     1       0.394  13.905  20.810  0.00  0.00    +0.000 C 
ATOM     15  C   UNL     1      -0.796  12.894  20.984  0.00  0.00    +0.000 C 
ATOM     16  C   UNL     1      -1.052  12.058  19.700  0.00  0.00    +0.000 C 
ATOM     17  C   UNL     1      -0.426  11.928  22.133  0.00  0.00    +0.000 C 
ATOM     18  C   UNL     1      -1.508  11.400  23.028  0.00  0.00    +0.000 C 
ATOM     19  C   UNL     1      -2.778  12.194  23.064  0.00  0.00    +0.000 C 
ATOM     20  O   UNL     1      -3.650  11.868  23.871  0.00  0.00    +0.000 OA
ATOM     21  H   UNL     1      -3.055  14.845  19.857  0.00  0.00    +0.000 HD
ENDROOT
BRANCH   9  22
ATOM     22  C   UNL     1       5.199  15.226  18.711  0.00  0.00    +0.000 C 
ATOM     23  O   UNL     1       5.381  14.635  17.647  0.00  0.00    +0.000 OA
ATOM     24  N   UNL     1       6.191  15.270  19.708  0.00  0.00    +0.000 N 
BRANCH  24  25
ATOM     25  C   UNL     1       7.426  14.494  19.504  0.00  0.00    +0.000 C 
ATOM     26  C   UNL     1       8.661  15.347  19.228  0.00  0.00    +0.000 C 
ENDBRANCH  24  25
BRANCH  24  27
ATOM     27  C   UNL     1       6.227  16.307  20.744  0.00  0.00    +0.000 C 
ATOM     28  C   UNL     1       6.238  15.767  22.167  0.00  0.00    +0.000 C 
ENDBRANCH  24  27
ENDBRANCH   9  22
BRANCH   1  30
ATOM     29  C   UNL     1      -5.388  13.649  21.496  0.00  0.00    +0.000 C 
ATOM     30  C   UNL     1      -4.259  14.126  22.410  0.00  0.00    +0.000 C 
ENDBRANCH   1  30
TORSDOF 4
ENDMDL
MODEL 4
REMARK VINA RESULT:      -5.4      1.990      2.901
REMARK  Name = 
REMARK  9 active torsions:
REMARK  status: ('A' for Active; 'I' for Inactive)
REMARK    1  A    between atoms: C_1  and  C_2
REMARK    2  A    between atoms: C_2  and  C_3
REMARK    3  A    between atoms: C_11  and  C_12
REMARK    4  A    between atoms: N_14  and  C_15
REMARK    5  A    between atoms: N_14  and  C_17
REMARK    6  A    between atoms: C_15  and  C_16
REMARK    7  A    between atoms: C_17  and  C_18
REMARK    8  A    between atoms: C_19  and  C_20
REMARK    9  A    between atoms: C_24  and  C_25
REMARK                            x       y       z     vdW  Elec       q    Type
REMARK                         _______ _______ _______ _____ _____    ______ ____
ROOT
ATOM      1  C   UNL     1       2.391   6.659  19.665  0.00  0.00    +0.000 C 
ATOM      2  C   UNL     1       1.652   7.796  19.741  0.00  0.00    +0.000 C 
ATOM      3  N   UNL     1       0.809   8.077  20.829  0.00  0.00    +0.000 N 
ATOM      4  C   UNL     1       0.499   9.407  21.377  0.00  0.00    +0.000 C 
ATOM      5  C   UNL     1       0.479  10.497  20.288  0.00  0.00    +0.000 C 
ATOM      6  C   UNL     1       0.503  11.956  20.812  0.00  0.00    +0.000 C 
ATOM      7  C   UNL     1      -0.688  12.597  21.553  0.00  0.00    +0.000 C 
ATOM      8  C   UNL     1      -0.411  14.127  21.464  0.00  0.00    +0.000 C 
ATOM      9  C   UNL     1       0.680  14.306  20.405  0.00  0.00    +0.000 C 
ATOM     10  C   UNL     1       0.673  12.967  19.642  0.00  0.00    +0.000 C 
ATOM     11  C   UNL     1      -0.462  12.813  18.593  0.00  0.00    +0.000 C 
ATOM     12  C   UNL     1       2.033  12.750  19.002  0.00  0.00    +0.000 C 
ATOM     13  C   UNL     1       2.096  11.385  18.379  0.00  0.00    +0.000 C 
ATOM     14  C   UNL     1       1.734  10.257  19.370  0.00  0.00    +0.000 C 
ATOM     15  C   UNL     1       1.675   8.859  18.656  0.00  0.00    +0.000 C 
ATOM     16  C   UNL     1       0.373   8.674  17.829  0.00  0.00    +0.000 C 
ATOM     17  C   UNL     1       2.884   8.771  17.697  0.00  0.00    +0.000 C 
ATOM     18  C   UNL     1       3.547   7.445  17.469  0.00  0.00    +0.000 C 
ATOM     19  C   UNL     1       3.321   6.405  18.523  0.00  0.00    +0.000 C 
ATOM     20  O   UNL     1       3.938   5.343  18.441  0.00  0.00    +0.000 OA
ATOM     21  H   UNL     1       0.099   7.362  20.992  0.00  0.00    +0.000 HD
ENDROOT
BRANCH   9  22
ATOM     22  C   UNL     1       0.632  15.550  19.488  0.00  0.00    +0.000 C 
ATOM     23  O   UNL     1      -0.338  15.758  18.761  0.00  0.00    +0.000 OA
ATOM     24  N   UNL     1       1.781  16.361  19.432  0.00  0.00    +0.000 N 
BRANCH  24  25
ATOM     25  C   UNL     1       1.851  17.409  18.399  0.00  0.00    +0.000 C 
ATOM     26  C   UNL     1       2.653  17.014  17.163  0.00  0.00    +0.000 C 
ENDBRANCH  24  25
BRANCH  24  27
ATOM     27  C   UNL     1       2.730  16.466  20.545  0.00  0.00    +0.000 C 
ATOM     28  C   UNL     1       3.408  17.825  20.659  0.00  0.00    +0.000 C 
ENDBRANCH  24  27
ENDBRANCH   9  22
BRANCH   1  30
ATOM     29  C   UNL     1       1.191   4.598  20.482  0.00  0.00    +0.000 C 
ATOM     30  C   UNL     1       2.364   5.556  20.695  0.00  0.00    +0.000 C 
ENDBRANCH   1  30
TORSDOF 4
ENDMDL
MODEL 5
REMARK VINA RESULT:      -5.3      7.237      8.474
REMARK  Name = 
REMARK  9 active torsions:
REMARK  status: ('A' for Active; 'I' for Inactive)
REMARK    1  A    between atoms: C_1  and  C_2
REMARK    2  A    between atoms: C_2  and  C_3
REMARK    3  A    between atoms: C_11  and  C_12
REMARK    4  A    between atoms: N_14  and  C_15
REMARK    5  A    between atoms: N_14  and  C_17
REMARK    6  A    between atoms: C_15  and  C_16
REMARK    7  A    between atoms: C_17  and  C_18
REMARK    8  A    between atoms: C_19  and  C_20
REMARK    9  A    between atoms: C_24  and  C_25
REMARK                            x       y       z     vdW  Elec       q    Type
REMARK                         _______ _______ _______ _____ _____    ______ ____
ROOT
ATOM      1  C   UNL     1       9.782  12.953  18.991  0.00  0.00    +0.000 C 
ATOM      2  C   UNL     1       8.772  13.853  18.871  0.00  0.00    +0.000 C 
ATOM      3  N   UNL     1       8.099  14.076  17.658  0.00  0.00    +0.000 N 
ATOM      4  C   UNL     1       6.685  14.449  17.497  0.00  0.00    +0.000 C 
ATOM      5  C   UNL     1       6.180  15.337  18.651  0.00  0.00    +0.000 C 
ATOM      6  C   UNL     1       4.640  15.491  18.743  0.00  0.00    +0.000 C 
ATOM      7  C   UNL     1       3.815  16.277  17.704  0.00  0.00    +0.000 C 
ATOM      8  C   UNL     1       2.463  16.554  18.424  0.00  0.00    +0.000 C 
ATOM      9  C   UNL     1       2.695  16.253  19.908  0.00  0.00    +0.000 C 
ATOM     10  C   UNL     1       4.231  16.242  20.043  0.00  0.00    +0.000 C 
ATOM     11  C   UNL     1       4.895  17.644  20.118  0.00  0.00    +0.000 C 
ATOM     12  C   UNL     1       4.620  15.395  21.241  0.00  0.00    +0.000 C 
ATOM     13  C   UNL     1       6.114  15.248  21.304  0.00  0.00    +0.000 C 
ATOM     14  C   UNL     1       6.718  14.708  19.989  0.00  0.00    +0.000 C 
ATOM     15  C   UNL     1       8.288  14.697  20.038  0.00  0.00    +0.000 C 
ATOM     16  C   UNL     1       8.894  16.114  19.841  0.00  0.00    +0.000 C 
ATOM     17  C   UNL     1       8.710  14.171  21.429  0.00  0.00    +0.000 C 
ATOM     18  C   UNL     1       9.960  13.351  21.558  0.00  0.00    +0.000 C 
ATOM     19  C   UNL     1      10.450  12.695  20.303  0.00  0.00    +0.000 C 
ATOM     20  O   UNL     1      11.402  11.917  20.380  0.00  0.00    +0.000 OA
ATOM     21  H   UNL     1       8.714  14.357  16.894  0.00  0.00    +0.000 HD
ENDROOT
BRANCH   9  22
ATOM     22  C   UNL     1       1.980  17.124  20.966  0.00  0.00    +0.000 C 
ATOM     23  O   UNL     1       1.940  18.348  20.850  0.00  0.00    +0.000 OA
ATOM     24  N   UNL     1       1.485  16.476  22.113  0.00  0.00    +0.000 N 
BRANCH  24  25
ATOM     25  C   UNL     1       1.013  17.303  23.237  0.00  0.00    +0.000 C 
ATOM     26  C   UNL     1       1.998  17.398  24.398  0.00  0.00    +0.000 C 
ENDBRANCH  24  25
BRANCH  24  27
ATOM     27  C   UNL     1       1.078  15.068  22.113  0.00  0.00    +0.000 C 
ATOM     28  C   UNL     1      -0.323  14.823  22.659  0.00  0.00    +0.000 C 
ENDBRANCH  24  27
ENDBRANCH   9  22
BRANCH   1  30
ATOM     29  C   UNL     1      11.379  12.888  17.042  0.00  0.00    +0.000 C 
ATOM     30  C   UNL     1      10.327  12.128  17.850  0.00  0.00    +0.000 C 
ENDBRANCH   1  30
TORSDOF 4
ENDMDL
MODEL 6
REMARK VINA RESULT:      -5.3      6.015      8.008
REMARK  Name = 
REMARK  9 active torsions:
REMARK  status: ('A' for Active; 'I' for Inactive)
REMARK    1  A    between atoms: C_1  and  C_2
REMARK    2  A    between atoms: C_2  and  C_3
REMARK    3  A    between atoms: C_11  and  C_12
REMARK    4  A    between atoms: N_14  and  C_15
REMARK    5  A    between atoms: N_14  and  C_17
REMARK    6  A    between atoms: C_15  and  C_16
REMARK    7  A    between atoms: C_17  and  C_18
REMARK    8  A    between atoms: C_19  and  C_20
REMARK    9  A    between atoms: C_24  and  C_25
REMARK                            x       y       z     vdW  Elec       q    Type
REMARK                         _______ _______ _______ _____ _____    ______ ____
ROOT
ATOM      1  C   UNL     1       2.956  15.229  18.638  0.00  0.00    +0.000 C 
ATOM      2  C   UNL     1       1.937  14.489  19.145  0.00  0.00    +0.000 C 
ATOM      3  N   UNL     1       2.148  13.267  19.806  0.00  0.00    +0.000 N 
ATOM      4  C   UNL     1       1.346  12.720  20.912  0.00  0.00    +0.000 C 
ATOM      5  C   UNL     1      -0.141  13.112  20.805  0.00  0.00    +0.000 C 
ATOM      6  C   UNL     1      -0.981  12.874  22.087  0.00  0.00    +0.000 C 
ATOM      7  C   UNL     1      -1.333  11.465  22.607  0.00  0.00    +0.000 C 
ATOM      8  C   UNL     1      -2.523  11.707  23.581  0.00  0.00    +0.000 C 
ATOM      9  C   UNL     1      -3.021  13.129  23.309  0.00  0.00    +0.000 C 
ATOM     10  C   UNL     1      -2.409  13.476  21.938  0.00  0.00    +0.000 C 
ATOM     11  C   UNL     1      -3.150  12.871  20.714  0.00  0.00    +0.000 C 
ATOM     12  C   UNL     1      -2.293  14.984  21.808  0.00  0.00    +0.000 C 
ATOM     13  C   UNL     1      -1.564  15.337  20.544  0.00  0.00    +0.000 C 
ATOM     14  C   UNL     1      -0.191  14.638  20.429  0.00  0.00    +0.000 C 
ATOM     15  C   UNL     1       0.484  14.919  19.039  0.00  0.00    +0.000 C 
ATOM     16  C   UNL     1      -0.145  14.073  17.897  0.00  0.00    +0.000 C 
ATOM     17  C   UNL     1       0.279  16.416  18.711  0.00  0.00    +0.000 C 
ATOM     18  C   UNL     1       1.342  17.155  17.954  0.00  0.00    +0.000 C 
ATOM     19  C   UNL     1       2.713  16.551  17.984  0.00  0.00    +0.000 C 
ATOM     20  O   UNL     1       3.643  17.181  17.479  0.00  0.00    +0.000 OA
ATOM     21  H   UNL     1       2.639  12.575  19.240  0.00  0.00    +0.000 HD
ENDROOT
BRANCH   9  22
ATOM     22  C   UNL     1      -4.536  13.421  23.409  0.00  0.00    +0.000 C 
ATOM     23  O   UNL     1      -5.362  12.585  23.045  0.00  0.00    +0.000 OA
ATOM     24  N   UNL     1      -4.924  14.710  23.820  0.00  0.00    +0.000 N 
BRANCH  24  25
ATOM     25  C   UNL     1      -6.343  15.087  23.700  0.00  0.00    +0.000 C 
ATOM     26  C   UNL     1      -6.726  15.643  22.332  0.00  0.00    +0.000 C 
ENDBRANCH  24  25
BRANCH  24  27
ATOM     27  C   UNL     1      -4.088  15.551  24.682  0.00  0.00    +0.000 C 
ATOM     28  C   UNL     1      -4.688  16.915  24.993  0.00  0.00    +0.000 C 
ENDBRANCH  24  27
ENDBRANCH   9  22
BRANCH   1  30
ATOM     29  C   UNL     1       5.090  15.244  19.980  0.00  0.00    +0.000 C 
ATOM     30  C   UNL     1       4.408  14.819  18.679  0.00  0.00    +0.000 C 
ENDBRANCH   1  30
TORSDOF 4
ENDMDL
MODEL 7
REMARK VINA RESULT:      -5.1      5.007      8.059
REMARK  Name = 
REMARK  9 active torsions:
REMARK  status: ('A' for Active; 'I' for Inactive)
REMARK    1  A    between atoms: C_1  and  C_2
REMARK    2  A    between atoms: C_2  and  C_3
REMARK    3  A    between atoms: C_11  and  C_12
REMARK    4  A    between atoms: N_14  and  C_15
REMARK    5  A    between atoms: N_14  and  C_17
REMARK    6  A    between atoms: C_15  and  C_16
REMARK    7  A    between atoms: C_17  and  C_18
REMARK    8  A    between atoms: C_19  and  C_20
REMARK    9  A    between atoms: C_24  and  C_25
REMARK                            x       y       z     vdW  Elec       q    Type
REMARK                         _______ _______ _______ _____ _____    ______ ____
ROOT
ATOM      1  C   UNL     1       5.982  16.379  18.897  0.00  0.00    +0.000 C 
ATOM      2  C   UNL     1       4.851  15.669  18.648  0.00  0.00    +0.000 C 
ATOM      3  N   UNL     1       4.859  14.469  17.917  0.00  0.00    +0.000 N 
ATOM      4  C   UNL     1       3.960  13.320  18.112  0.00  0.00    +0.000 C 
ATOM      5  C   UNL     1       2.554  13.749  18.572  0.00  0.00    +0.000 C 
ATOM      6  C   UNL     1       1.661  12.609  19.124  0.00  0.00    +0.000 C 
ATOM      7  C   UNL     1       1.087  11.490  18.231  0.00  0.00    +0.000 C 
ATOM      8  C   UNL     1      -0.072  10.886  19.078  0.00  0.00    +0.000 C 
ATOM      9  C   UNL     1      -0.341  11.879  20.212  0.00  0.00    +0.000 C 
ATOM     10  C   UNL     1       0.346  13.174  19.734  0.00  0.00    +0.000 C 
ATOM     11  C   UNL     1      -0.454  13.996  18.687  0.00  0.00    +0.000 C 
ATOM     12  C   UNL     1       0.693  14.029  20.940  0.00  0.00    +0.000 C 
ATOM     13  C   UNL     1       1.494  15.224  20.509  0.00  0.00    +0.000 C 
ATOM     14  C   UNL     1       2.746  14.842  19.688  0.00  0.00    +0.000 C 
ATOM     15  C   UNL     1       3.484  16.114  19.137  0.00  0.00    +0.000 C 
ATOM     16  C   UNL     1       2.757  16.734  17.911  0.00  0.00    +0.000 C 
ATOM     17  C   UNL     1       3.518  17.165  20.270  0.00  0.00    +0.000 C 
ATOM     18  C   UNL     1       4.697  18.084  20.386  0.00  0.00    +0.000 C 
ATOM     19  C   UNL     1       5.958  17.626  19.720  0.00  0.00    +0.000 C 
ATOM     20  O   UNL     1       6.984  18.287  19.886  0.00  0.00    +0.000 OA
ATOM     21  H   UNL     1       5.250  14.562  16.980  0.00  0.00    +0.000 HD
ENDROOT
BRANCH   9  22
ATOM     22  C   UNL     1      -1.794  12.083  20.696  0.00  0.00    +0.000 C 
ATOM     23  O   UNL     1      -2.716  12.197  19.888  0.00  0.00    +0.000 OA
ATOM     24  N   UNL     1      -2.002  12.248  22.077  0.00  0.00    +0.000 N 
BRANCH  24  25
ATOM     25  C   UNL     1      -3.334  12.676  22.541  0.00  0.00    +0.000 C 
ATOM     26  C   UNL     1      -3.594  12.413  24.021  0.00  0.00    +0.000 C 
ENDBRANCH  24  25
BRANCH  24  27
ATOM     27  C   UNL     1      -1.104  11.680  23.087  0.00  0.00    +0.000 C 
ATOM     28  C   UNL     1      -0.943  10.168  22.998  0.00  0.00    +0.000 C 
ENDBRANCH  24  27
ENDBRANCH   9  22
BRANCH   1  30
ATOM     29  C   UNL     1       8.015  14.933  19.266  0.00  0.00    +0.000 C 
ATOM     30  C   UNL     1       7.354  15.999  18.392  0.00  0.00    +0.000 C 
ENDBRANCH   1  30
TORSDOF 4
ENDMDL
MODEL 8
REMARK VINA RESULT:      -5.1      7.121     10.325
REMARK  Name = 
REMARK  9 active torsions:
REMARK  status: ('A' for Active; 'I' for Inactive)
REMARK    1  A    between atoms: C_1  and  C_2
REMARK    2  A    between atoms: C_2  and  C_3
REMARK    3  A    between atoms: C_11  and  C_12
REMARK    4  A    between atoms: N_14  and  C_15
REMARK    5  A    between atoms: N_14  and  C_17
REMARK    6  A    between atoms: C_15  and  C_16
REMARK    7  A    between atoms: C_17  and  C_18
REMARK    8  A    between atoms: C_19  and  C_20
REMARK    9  A    between atoms: C_24  and  C_25
REMARK                            x       y       z     vdW  Elec       q    Type
REMARK                         _______ _______ _______ _____ _____    ______ ____
ROOT
ATOM      1  C   UNL     1       1.319  15.620  20.271  0.00  0.00    +0.000 C 
ATOM      2  C   UNL     1       2.619  15.635  20.662  0.00  0.00    +0.000 C 
ATOM      3  N   UNL     1       3.055  15.038  21.858  0.00  0.00    +0.000 N 
ATOM      4  C   UNL     1       4.363  14.406  22.094  0.00  0.00    +0.000 C 
ATOM      5  C   UNL     1       5.494  15.088  21.301  0.00  0.00    +0.000 C 
ATOM      6  C   UNL     1       6.821  14.290  21.220  0.00  0.00    +0.000 C 
ATOM      7  C   UNL     1       7.737  14.067  22.441  0.00  0.00    +0.000 C 
ATOM      8  C   UNL     1       9.103  13.656  21.819  0.00  0.00    +0.000 C 
ATOM      9  C   UNL     1       9.022  14.005  20.330  0.00  0.00    +0.000 C 
ATOM     10  C   UNL     1       7.824  14.971  20.246  0.00  0.00    +0.000 C 
ATOM     11  C   UNL     1       8.125  16.432  20.676  0.00  0.00    +0.000 C 
ATOM     12  C   UNL     1       7.247  14.930  18.842  0.00  0.00    +0.000 C 
ATOM     13  C   UNL     1       5.990  15.750  18.778  0.00  0.00    +0.000 C 
ATOM     14  C   UNL     1       4.952  15.338  19.845  0.00  0.00    +0.000 C 
ATOM     15  C   UNL     1       3.711  16.300  19.842  0.00  0.00    +0.000 C 
ATOM     16  C   UNL     1       4.016  17.659  20.532  0.00  0.00    +0.000 C 
ATOM     17  C   UNL     1       3.331  16.572  18.369  0.00  0.00    +0.000 C 
ATOM     18  C   UNL     1       1.889  16.766  18.004  0.00  0.00    +0.000 C 
ATOM     19  C   UNL     1       0.885  16.217  18.972  0.00  0.00    +0.000 C 
ATOM     20  O   UNL     1      -0.306  16.245  18.661  0.00  0.00    +0.000 OA
ATOM     21  H   UNL     1       2.588  15.399  22.689  0.00  0.00    +0.000 HD
ENDROOT
BRANCH   9  22
ATOM     22  C   UNL     1      10.292  14.518  19.614  0.00  0.00    +0.000 C 
ATOM     23  O   UNL     1      11.076  15.273  20.188  0.00  0.00    +0.000 OA
ATOM     24  N   UNL     1      10.451  14.185  18.256  0.00  0.00    +0.000 N 
BRANCH  24  25
ATOM     25  C   UNL     1      11.521  14.850  17.491  0.00  0.00    +0.000 C 
ATOM     26  C   UNL     1      11.070  16.106  16.753  0.00  0.00    +0.000 C 
ENDBRANCH  24  25
BRANCH  24  27
ATOM     27  C   UNL     1       9.870  12.977  17.664  0.00  0.00    +0.000 C 
ATOM     28  C   UNL     1      10.748  11.738  17.784  0.00  0.00    +0.000 C 
ENDBRANCH  24  27
ENDBRANCH   9  22
BRANCH   1  30
ATOM     29  C   UNL     1      -0.365  15.989  22.111  0.00  0.00    +0.000 C 
ATOM     30  C   UNL     1       0.195  15.013  21.076  0.00  0.00    +0.000 C 
ENDBRANCH   1  30
TORSDOF 4
ENDMDL
MODEL 9
REMARK VINA RESULT:      -5.1      1.397      1.685
REMARK  Name = 
REMARK  9 active torsions:
REMARK  status: ('A' for Active; 'I' for Inactive)
REMARK    1  A    between atoms: C_1  and  C_2
REMARK    2  A    between atoms: C_2  and  C_3
REMARK    3  A    between atoms: C_11  and  C_12
REMARK    4  A    between atoms: N_14  and  C_15
REMARK    5  A    between atoms: N_14  and  C_17
REMARK    6  A    between atoms: C_15  and  C_16
REMARK    7  A    between atoms: C_17  and  C_18
REMARK    8  A    between atoms: C_19  and  C_20
REMARK    9  A    between atoms: C_24  and  C_25
REMARK                            x       y       z     vdW  Elec       q    Type
REMARK                         _______ _______ _______ _____ _____    ______ ____
ROOT
ATOM      1  C   UNL     1       3.250   5.945  19.273  0.00  0.00    +0.000 C 
ATOM      2  C   UNL     1       2.361   6.952  19.471  0.00  0.00    +0.000 C 
ATOM      3  N   UNL     1       1.560   7.036  20.622  0.00  0.00    +0.000 N 
ATOM      4  C   UNL     1       1.098   8.269  21.279  0.00  0.00    +0.000 C 
ATOM      5  C   UNL     1       0.848   9.409  20.273  0.00  0.00    +0.000 C 
ATOM      6  C   UNL     1       0.694  10.821  20.896  0.00  0.00    +0.000 C 
ATOM      7  C   UNL     1      -0.525  11.230  21.747  0.00  0.00    +0.000 C 
ATOM      8  C   UNL     1      -0.479  12.787  21.750  0.00  0.00    +0.000 C 
ATOM      9  C   UNL     1       0.502  13.192  20.646  0.00  0.00    +0.000 C 
ATOM     10  C   UNL     1       0.639  11.916  19.792  0.00  0.00    +0.000 C 
ATOM     11  C   UNL     1      -0.529  11.659  18.801  0.00  0.00    +0.000 C 
ATOM     12  C   UNL     1       1.970  11.943  19.063  0.00  0.00    +0.000 C 
ATOM     13  C   UNL     1       2.189  10.644  18.342  0.00  0.00    +0.000 C 
ATOM     14  C   UNL     1       2.061   9.416  19.271  0.00  0.00    +0.000 C 
ATOM     15  C   UNL     1       2.158   8.071  18.464  0.00  0.00    +0.000 C 
ATOM     16  C   UNL     1       0.844   7.745  17.701  0.00  0.00    +0.000 C 
ATOM     17  C   UNL     1       3.300   8.223  17.434  0.00  0.00    +0.000 C 
ATOM     18  C   UNL     1       4.132   7.028  17.076  0.00  0.00    +0.000 C 
ATOM     19  C   UNL     1       4.129   5.903  18.065  0.00  0.00    +0.000 C 
ATOM     20  O   UNL     1       4.887   4.951  17.874  0.00  0.00    +0.000 OA
ATOM     21  H   UNL     1       0.973   6.215  20.773  0.00  0.00    +0.000 HD
ENDROOT
BRANCH   9  22
ATOM     22  C   UNL     1       0.214  14.468  19.823  0.00  0.00    +0.000 C 
ATOM     23  O   UNL     1      -0.914  14.692  19.385  0.00  0.00    +0.000 OA
ATOM     24  N   UNL     1       1.307  15.294  19.501  0.00  0.00    +0.000 N 
BRANCH  24  25
ATOM     25  C   UNL     1       1.102  16.380  18.528  0.00  0.00    +0.000 C 
ATOM     26  C   UNL     1       1.029  17.771  19.151  0.00  0.00    +0.000 C 
ENDBRANCH  24  25
BRANCH  24  27
ATOM     27  C   UNL     1       2.514  15.368  20.329  0.00  0.00    +0.000 C 
ATOM     28  C   UNL     1       3.814  15.206  19.553  0.00  0.00    +0.000 C 
ENDBRANCH  24  27
ENDBRANCH   9  22
BRANCH   1  30
ATOM     29  C   UNL     1       2.418   3.682  20.009  0.00  0.00    +0.000 C 
ATOM     30  C   UNL     1       3.451   4.788  20.223  0.00  0.00    +0.000 C 
ENDBRANCH   1  30
TORSDOF 4
ENDMDL
