MODEL 1
REMARK VINA RESULT:      -9.2      0.000      0.000
REMARK  Name = 
REMARK  6 active torsions:
REMARK  status: ('A' for Active; 'I' for Inactive)
REMARK    1  A    between atoms: C_5  and  C_6
REMARK    2  A    between atoms: C_9  and  C_10
REMARK    3  A    between atoms: C_13  and  C_14
REMARK    4  A    between atoms: C_14  and  C_15
REMARK    5  A    between atoms: C_15  and  C_16
REMARK    6  A    between atoms: C_16  and  C_17
REMARK                            x       y       z     vdW  Elec       q    Type
REMARK                         _______ _______ _______ _____ _____    ______ ____
ROOT
ATOM      1  C   UNL     1       1.919   5.625  20.288  0.00  0.00    +0.000 A 
ATOM      2  N   UNL     1       2.494   5.070  21.339  0.00  0.00    +0.000 NA
ATOM      3  N   UNL     1       2.417   3.709  21.163  0.00  0.00    +0.000 NA
ATOM      4  C   UNL     1       1.803   3.520  20.016  0.00  0.00    +0.000 A 
ATOM      5  O   UNL     1       1.449   4.691  19.395  0.00  0.00    +0.000 OA
ENDROOT
BRANCH   1   9
ATOM      6  C   UNL     1       1.229   9.802  19.462  0.00  0.00    +0.000 A 
ATOM      7  C   UNL     1       0.895   9.217  20.693  0.00  0.00    +0.000 A 
ATOM      8  C   UNL     1       1.149   7.866  20.954  0.00  0.00    +0.000 A 
ATOM      9  C   UNL     1       1.732   7.037  19.987  0.00  0.00    +0.000 A 
ATOM     10  C   UNL     1       2.091   7.610  18.764  0.00  0.00    +0.000 A 
ATOM     11  C   UNL     1       1.846   8.968  18.509  0.00  0.00    +0.000 A 
BRANCH   6  16
ATOM     12  F   UNL     1       0.047  15.207  18.327  0.00  0.00    +0.000 F 
ATOM     13  C   UNL     1       0.345  13.928  18.599  0.00  0.00    +0.000 A 
ATOM     14  C   UNL     1      -0.673  13.076  19.004  0.00  0.00    +0.000 A 
ATOM     15  C   UNL     1      -0.382  11.739  19.296  0.00  0.00    +0.000 A 
ATOM     16  C   UNL     1       0.926  11.226  19.178  0.00  0.00    +0.000 A 
ATOM     17  C   UNL     1       1.934  12.118  18.762  0.00  0.00    +0.000 A 
ATOM     18  C   UNL     1       1.647  13.458  18.480  0.00  0.00    +0.000 A 
ATOM     19 CL   UNL     1       2.919  14.507  17.986  0.00  0.00    +0.000 Cl
ENDBRANCH   6  16
ENDBRANCH   1   9
BRANCH   4  20
ATOM     20  C   UNL     1       1.533   2.245  19.313  0.00  0.00    +0.000 C 
BRANCH  20  21
ATOM     21  C   UNL     1       2.370   2.087  18.045  0.00  0.00    +0.000 C 
BRANCH  21  22
ATOM     22  C   UNL     1       3.863   2.123  18.382  0.00  0.00    +0.000 C 
BRANCH  22  23
ATOM     23  C   UNL     1       4.497   3.441  18.020  0.00  0.00    +0.000 A 
ATOM     24  C   UNL     1       3.950   4.246  17.032  0.00  0.00    +0.000 A 
ATOM     25  C   UNL     1       4.585   5.441  16.733  0.00  0.00    +0.000 A 
ATOM     26  C   UNL     1       5.746   5.797  17.432  0.00  0.00    +0.000 A 
ATOM     27  C   UNL     1       6.434   6.990  17.164  0.00  0.00    +0.000 A 
ATOM     28  C   UNL     1       7.577   7.295  17.887  0.00  0.00    +0.000 A 
ATOM     29  C   UNL     1       7.982   6.391  18.848  0.00  0.00    +0.000 A 
ATOM     30  N   UNL     1       7.336   5.237  19.121  0.00  0.00    +0.000 NA
ATOM     31  C   UNL     1       6.235   4.932  18.431  0.00  0.00    +0.000 A 
ATOM     32  N   UNL     1       5.611   3.785  18.709  0.00  0.00    +0.000 NA
ENDBRANCH  22  23
ENDBRANCH  21  22
ENDBRANCH  20  21
ENDBRANCH   4  20
TORSDOF 6
ENDMDL
MODEL 2
REMARK VINA RESULT:      -9.0      3.233      3.732
REMARK  Name = 
REMARK  6 active torsions:
REMARK  status: ('A' for Active; 'I' for Inactive)
REMARK    1  A    between atoms: C_5  and  C_6
REMARK    2  A    between atoms: C_9  and  C_10
REMARK    3  A    between atoms: C_13  and  C_14
REMARK    4  A    between atoms: C_14  and  C_15
REMARK    5  A    between atoms: C_15  and  C_16
REMARK    6  A    between atoms: C_16  and  C_17
REMARK                            x       y       z     vdW  Elec       q    Type
REMARK                         _______ _______ _______ _____ _____    ______ ____
ROOT
ATOM      1  C   UNL     1       1.213   7.936  20.773  0.00  0.00    +0.000 A 
ATOM      2  N   UNL     1       2.051   7.885  19.753  0.00  0.00    +0.000 NA
ATOM      3  N   UNL     1       2.421   6.570  19.608  0.00  0.00    +0.000 NA
ATOM      4  C   UNL     1       1.785   5.902  20.544  0.00  0.00    +0.000 A 
ATOM      5  O   UNL     1       0.994   6.700  21.332  0.00  0.00    +0.000 OA
ENDROOT
BRANCH   1   9
ATOM      6  C   UNL     1      -0.904  11.270  22.508  0.00  0.00    +0.000 A 
ATOM      7  C   UNL     1      -0.784  10.035  23.165  0.00  0.00    +0.000 A 
ATOM      8  C   UNL     1      -0.073   8.972  22.599  0.00  0.00    +0.000 A 
ATOM      9  C   UNL     1       0.535   9.092  21.343  0.00  0.00    +0.000 A 
ATOM     10  C   UNL     1       0.446  10.322  20.687  0.00  0.00    +0.000 A 
ATOM     11  C   UNL     1      -0.260  11.392  21.262  0.00  0.00    +0.000 A 
BRANCH   6  16
ATOM     12  F   UNL     1      -3.922  15.515  24.693  0.00  0.00    +0.000 F 
ATOM     13  C   UNL     1      -3.190  14.515  24.180  0.00  0.00    +0.000 A 
ATOM     14  C   UNL     1      -3.804  13.296  23.933  0.00  0.00    +0.000 A 
ATOM     15  C   UNL     1      -3.057  12.239  23.402  0.00  0.00    +0.000 A 
ATOM     16  C   UNL     1      -1.688  12.383  23.097  0.00  0.00    +0.000 A 
ATOM     17  C   UNL     1      -1.098  13.636  23.357  0.00  0.00    +0.000 A 
ATOM     18  C   UNL     1      -1.841  14.690  23.899  0.00  0.00    +0.000 A 
ATOM     19 CL   UNL     1      -1.065  16.196  24.207  0.00  0.00    +0.000 Cl
ENDBRANCH   6  16
ENDBRANCH   1   9
BRANCH   4  20
ATOM     20  C   UNL     1       1.763   4.440  20.783  0.00  0.00    +0.000 C 
BRANCH  20  21
ATOM     21  C   UNL     1       1.514   3.641  19.505  0.00  0.00    +0.000 C 
BRANCH  21  22
ATOM     22  C   UNL     1       2.790   2.913  19.073  0.00  0.00    +0.000 C 
BRANCH  22  23
ATOM     23  C   UNL     1       3.817   3.854  18.500  0.00  0.00    +0.000 A 
ATOM     24  C   UNL     1       3.668   4.379  17.225  0.00  0.00    +0.000 A 
ATOM     25  C   UNL     1       4.653   5.229  16.747  0.00  0.00    +0.000 A 
ATOM     26  C   UNL     1       5.754   5.532  17.558  0.00  0.00    +0.000 A 
ATOM     27  C   UNL     1       6.783   6.379  17.121  0.00  0.00    +0.000 A 
ATOM     28  C   UNL     1       7.850   6.647  17.965  0.00  0.00    +0.000 A 
ATOM     29  C   UNL     1       7.840   6.055  19.211  0.00  0.00    +0.000 A 
ATOM     30  N   UNL     1       6.861   5.236  19.652  0.00  0.00    +0.000 NA
ATOM     31  C   UNL     1       5.829   4.969  18.848  0.00  0.00    +0.000 A 
ATOM     32  N   UNL     1       4.872   4.153  19.295  0.00  0.00    +0.000 NA
ENDBRANCH  22  23
ENDBRANCH  21  22
ENDBRANCH  20  21
ENDBRANCH   4  20
TORSDOF 6
ENDMDL
MODEL 3
REMARK VINA RESULT:      -8.7      1.119      1.420
REMARK  Name = 
REMARK  6 active torsions:
REMARK  status: ('A' for Active; 'I' for Inactive)
REMARK    1  A    between atoms: C_5  and  C_6
REMARK    2  A    between atoms: C_9  and  C_10
REMARK    3  A    between atoms: C_13  and  C_14
REMARK    4  A    between atoms: C_14  and  C_15
REMARK    5  A    between atoms: C_15  and  C_16
REMARK    6  A    between atoms: C_16  and  C_17
REMARK                            x       y       z     vdW  Elec       q    Type
REMARK                         _______ _______ _______ _____ _____    ______ ____
ROOT
ATOM      1  C   UNL     1       2.001   5.275  20.242  0.00  0.00    +0.000 A 
ATOM      2  N   UNL     1       2.226   4.678  21.398  0.00  0.00    +0.000 NA
ATOM      3  N   UNL     1       2.287   3.328  21.144  0.00  0.00    +0.000 NA
ATOM      4  C   UNL     1       2.098   3.189  19.850  0.00  0.00    +0.000 A 
ATOM      5  O   UNL     1       1.905   4.383  19.202  0.00  0.00    +0.000 OA
ENDROOT
BRANCH   1   9
ATOM      6  C   UNL     1       1.402   9.477  19.473  0.00  0.00    +0.000 A 
ATOM      7  C   UNL     1       1.023   8.876  20.684  0.00  0.00    +0.000 A 
ATOM      8  C   UNL     1       1.247   7.517  20.926  0.00  0.00    +0.000 A 
ATOM      9  C   UNL     1       1.845   6.695  19.962  0.00  0.00    +0.000 A 
ATOM     10  C   UNL     1       2.251   7.284  18.761  0.00  0.00    +0.000 A 
ATOM     11  C   UNL     1       2.034   8.651  18.524  0.00  0.00    +0.000 A 
BRANCH   6  16
ATOM     12  F   UNL     1       0.422  14.953  18.498  0.00  0.00    +0.000 F 
ATOM     13  C   UNL     1       0.638  13.651  18.734  0.00  0.00    +0.000 A 
ATOM     14  C   UNL     1       1.743  13.041  18.158  0.00  0.00    +0.000 A 
ATOM     15  C   UNL     1       1.983  11.682  18.389  0.00  0.00    +0.000 A 
ATOM     16  C   UNL     1       1.132  10.911  19.207  0.00  0.00    +0.000 A 
ATOM     17  C   UNL     1       0.021  11.564  19.778  0.00  0.00    +0.000 A 
ATOM     18  C   UNL     1      -0.227  12.919  19.539  0.00  0.00    +0.000 A 
ATOM     19 CL   UNL     1      -1.605  13.663  20.253  0.00  0.00    +0.000 Cl
ENDBRANCH   6  16
ENDBRANCH   1   9
BRANCH   4  20
ATOM     20  C   UNL     1       2.146   1.951  19.038  0.00  0.00    +0.000 C 
BRANCH  20  21
ATOM     21  C   UNL     1       3.444   1.824  18.241  0.00  0.00    +0.000 C 
BRANCH  21  22
ATOM     22  C   UNL     1       3.395   2.713  16.995  0.00  0.00    +0.000 C 
BRANCH  22  23
ATOM     23  C   UNL     1       4.428   3.809  17.037  0.00  0.00    +0.000 A 
ATOM     24  C   UNL     1       4.623   4.644  15.947  0.00  0.00    +0.000 A 
ATOM     25  C   UNL     1       5.597   5.625  16.040  0.00  0.00    +0.000 A 
ATOM     26  C   UNL     1       6.344   5.745  17.220  0.00  0.00    +0.000 A 
ATOM     27  C   UNL     1       7.347   6.715  17.364  0.00  0.00    +0.000 A 
ATOM     28  C   UNL     1       8.056   6.791  18.553  0.00  0.00    +0.000 A 
ATOM     29  C   UNL     1       7.728   5.892  19.548  0.00  0.00    +0.000 A 
ATOM     30  N   UNL     1       6.767   4.951  19.430  0.00  0.00    +0.000 NA
ATOM     31  C   UNL     1       6.079   4.867  18.289  0.00  0.00    +0.000 A 
ATOM     32  N   UNL     1       5.137   3.927  18.185  0.00  0.00    +0.000 NA
ENDBRANCH  22  23
ENDBRANCH  21  22
ENDBRANCH  20  21
ENDBRANCH   4  20
TORSDOF 6
ENDMDL
MODEL 4
REMARK VINA RESULT:      -8.6      4.940      9.386
REMARK  Name = 
REMARK  6 active torsions:
REMARK  status: ('A' for Active; 'I' for Inactive)
REMARK    1  A    between atoms: C_5  and  C_6
REMARK    2  A    between atoms: C_9  and  C_10
REMARK    3  A    between atoms: C_13  and  C_14
REMARK    4  A    between atoms: C_14  and  C_15
REMARK    5  A    between atoms: C_15  and  C_16
REMARK    6  A    between atoms: C_16  and  C_17
REMARK                            x       y       z     vdW  Elec       q    Type
REMARK                         _______ _______ _______ _____ _____    ______ ____
ROOT
ATOM      1  C   UNL     1       2.724   5.932  19.354  0.00  0.00    +0.000 A 
ATOM      2  N   UNL     1       2.237   5.167  20.314  0.00  0.00    +0.000 NA
ATOM      3  N   UNL     1       1.563   5.996  21.179  0.00  0.00    +0.000 NA
ATOM      4  C   UNL     1       1.679   7.211  20.690  0.00  0.00    +0.000 A 
ATOM      5  O   UNL     1       2.408   7.257  19.529  0.00  0.00    +0.000 OA
ENDROOT
BRANCH   1   9
ATOM      6  C   UNL     1       5.031   4.919  15.852  0.00  0.00    +0.000 A 
ATOM      7  C   UNL     1       4.926   6.237  16.324  0.00  0.00    +0.000 A 
ATOM      8  C   UNL     1       4.194   6.544  17.476  0.00  0.00    +0.000 A 
ATOM      9  C   UNL     1       3.521   5.550  18.197  0.00  0.00    +0.000 A 
ATOM     10  C   UNL     1       3.635   4.229  17.753  0.00  0.00    +0.000 A 
ATOM     11  C   UNL     1       4.380   3.921  16.603  0.00  0.00    +0.000 A 
BRANCH   6  16
ATOM     12  F   UNL     1       7.867   3.773  11.104  0.00  0.00    +0.000 F 
ATOM     13  C   UNL     1       7.185   4.029  12.230  0.00  0.00    +0.000 A 
ATOM     14  C   UNL     1       7.702   4.949  13.131  0.00  0.00    +0.000 A 
ATOM     15  C   UNL     1       7.008   5.227  14.313  0.00  0.00    +0.000 A 
ATOM     16  C   UNL     1       5.780   4.602  14.612  0.00  0.00    +0.000 A 
ATOM     17  C   UNL     1       5.282   3.677  13.673  0.00  0.00    +0.000 A 
ATOM     18  C   UNL     1       5.981   3.389  12.496  0.00  0.00    +0.000 A 
ATOM     19 CL   UNL     1       5.331   2.241  11.390  0.00  0.00    +0.000 Cl
ENDBRANCH   6  16
ENDBRANCH   1   9
BRANCH   4  20
ATOM     20  C   UNL     1       1.073   8.468  21.187  0.00  0.00    +0.000 C 
BRANCH  20  21
ATOM     21  C   UNL     1       1.066   9.572  20.132  0.00  0.00    +0.000 C 
BRANCH  21  22
ATOM     22  C   UNL     1       0.225  10.761  20.607  0.00  0.00    +0.000 C 
BRANCH  22  23
ATOM     23  C   UNL     1      -0.949  11.027  19.702  0.00  0.00    +0.000 A 
ATOM     24  C   UNL     1      -1.933  11.935  20.062  0.00  0.00    +0.000 A 
ATOM     25  C   UNL     1      -2.997  12.127  19.194  0.00  0.00    +0.000 A 
ATOM     26  C   UNL     1      -3.043  11.410  17.992  0.00  0.00    +0.000 A 
ATOM     27  C   UNL     1      -4.099  11.559  17.082  0.00  0.00    +0.000 A 
ATOM     28  C   UNL     1      -4.095  10.825  15.906  0.00  0.00    +0.000 A 
ATOM     29  C   UNL     1      -3.032   9.973  15.691  0.00  0.00    +0.000 A 
ATOM     30  N   UNL     1      -2.005   9.813  16.554  0.00  0.00    +0.000 NA
ATOM     31  C   UNL     1      -1.999  10.513  17.691  0.00  0.00    +0.000 A 
ATOM     32  N   UNL     1      -0.980  10.339  18.536  0.00  0.00    +0.000 NA
ENDBRANCH  22  23
ENDBRANCH  21  22
ENDBRANCH  20  21
ENDBRANCH   4  20
TORSDOF 6
ENDMDL
MODEL 5
REMARK VINA RESULT:      -8.6      3.324      4.002
REMARK  Name = 
REMARK  6 active torsions:
REMARK  status: ('A' for Active; 'I' for Inactive)
REMARK    1  A    between atoms: C_5  and  C_6
REMARK    2  A    between atoms: C_9  and  C_10
REMARK    3  A    between atoms: C_13  and  C_14
REMARK    4  A    between atoms: C_14  and  C_15
REMARK    5  A    between atoms: C_15  and  C_16
REMARK    6  A    between atoms: C_16  and  C_17
REMARK                            x       y       z     vdW  Elec       q    Type
REMARK                         _______ _______ _______ _____ _____    ______ ____
ROOT
ATOM      1  C   UNL     1       0.958   8.289  20.795  0.00  0.00    +0.000 A 
ATOM      2  N   UNL     1       1.744   8.340  19.735  0.00  0.00    +0.000 NA
ATOM      3  N   UNL     1       2.302   7.092  19.593  0.00  0.00    +0.000 NA
ATOM      4  C   UNL     1       1.821   6.360  20.573  0.00  0.00    +0.000 A 
ATOM      5  O   UNL     1       0.958   7.050  21.387  0.00  0.00    +0.000 OA
ENDROOT
BRANCH   1   9
ATOM      6  C   UNL     1      -1.372  11.515  22.460  0.00  0.00    +0.000 A 
ATOM      7  C   UNL     1      -0.924  11.525  21.130  0.00  0.00    +0.000 A 
ATOM      8  C   UNL     1      -0.190  10.458  20.598  0.00  0.00    +0.000 A 
ATOM      9  C   UNL     1       0.142   9.344  21.379  0.00  0.00    +0.000 A 
ATOM     10  C   UNL     1      -0.318   9.309  22.698  0.00  0.00    +0.000 A 
ATOM     11  C   UNL     1      -1.064  10.375  23.226  0.00  0.00    +0.000 A 
BRANCH   6  16
ATOM     12  F   UNL     1      -4.269  15.875  24.582  0.00  0.00    +0.000 F 
ATOM     13  C   UNL     1      -3.567  14.851  24.076  0.00  0.00    +0.000 A 
ATOM     14  C   UNL     1      -3.999  13.556  24.325  0.00  0.00    +0.000 A 
ATOM     15  C   UNL     1      -3.278  12.473  23.810  0.00  0.00    +0.000 A 
ATOM     16  C   UNL     1      -2.120  12.663  23.028  0.00  0.00    +0.000 A 
ATOM     17  C   UNL     1      -1.711  13.991  22.793  0.00  0.00    +0.000 A 
ATOM     18  C   UNL     1      -2.425  15.074  23.317  0.00  0.00    +0.000 A 
ATOM     19 CL   UNL     1      -1.873  16.675  23.007  0.00  0.00    +0.000 Cl
ENDBRANCH   6  16
ENDBRANCH   1   9
BRANCH   4  20
ATOM     20  C   UNL     1       2.033   4.918  20.839  0.00  0.00    +0.000 C 
BRANCH  20  21
ATOM     21  C   UNL     1       1.392   4.026  19.777  0.00  0.00    +0.000 C 
BRANCH  21  22
ATOM     22  C   UNL     1       2.464   3.225  19.034  0.00  0.00    +0.000 C 
BRANCH  22  23
ATOM     23  C   UNL     1       3.570   4.103  18.508  0.00  0.00    +0.000 A 
ATOM     24  C   UNL     1       3.461   4.720  17.271  0.00  0.00    +0.000 A 
ATOM     25  C   UNL     1       4.517   5.506  16.836  0.00  0.00    +0.000 A 
ATOM     26  C   UNL     1       5.647   5.654  17.651  0.00  0.00    +0.000 A 
ATOM     27  C   UNL     1       6.747   6.430  17.255  0.00  0.00    +0.000 A 
ATOM     28  C   UNL     1       7.840   6.544  18.100  0.00  0.00    +0.000 A 
ATOM     29  C   UNL     1       7.784   5.876  19.306  0.00  0.00    +0.000 A 
ATOM     30  N   UNL     1       6.736   5.123  19.706  0.00  0.00    +0.000 NA
ATOM     31  C   UNL     1       5.679   5.005  18.900  0.00  0.00    +0.000 A 
ATOM     32  N   UNL     1       4.654   4.252  19.307  0.00  0.00    +0.000 NA
ENDBRANCH  22  23
ENDBRANCH  21  22
ENDBRANCH  20  21
ENDBRANCH   4  20
TORSDOF 6
ENDMDL
MODEL 6
REMARK VINA RESULT:      -8.6      4.917      7.264
REMARK  Name = 
REMARK  6 active torsions:
REMARK  status: ('A' for Active; 'I' for Inactive)
REMARK    1  A    between atoms: C_5  and  C_6
REMARK    2  A    between atoms: C_9  and  C_10
REMARK    3  A    between atoms: C_13  and  C_14
REMARK    4  A    between atoms: C_14  and  C_15
REMARK    5  A    between atoms: C_15  and  C_16
REMARK    6  A    between atoms: C_16  and  C_17
REMARK                            x       y       z     vdW  Elec       q    Type
REMARK                         _______ _______ _______ _____ _____    ______ ____
ROOT
ATOM      1  C   UNL     1       7.970   7.614  17.942  0.00  0.00    +0.000 A 
ATOM      2  N   UNL     1       7.871   6.581  18.759  0.00  0.00    +0.000 NA
ATOM      3  N   UNL     1       7.447   5.515  18.002  0.00  0.00    +0.000 NA
ATOM      4  C   UNL     1       7.318   5.964  16.774  0.00  0.00    +0.000 A 
ATOM      5  O   UNL     1       7.629   7.295  16.651  0.00  0.00    +0.000 OA
ENDROOT
BRANCH   1   9
ATOM      6  C   UNL     1       9.182  11.687  18.684  0.00  0.00    +0.000 A 
ATOM      7  C   UNL     1       8.329  11.341  17.624  0.00  0.00    +0.000 A 
ATOM      8  C   UNL     1       7.926  10.018  17.413  0.00  0.00    +0.000 A 
ATOM      9  C   UNL     1       8.371   8.981  18.242  0.00  0.00    +0.000 A 
ATOM     10  C   UNL     1       9.201   9.313  19.317  0.00  0.00    +0.000 A 
ATOM     11  C   UNL     1       9.596  10.643  19.533  0.00  0.00    +0.000 A 
BRANCH   6  16
ATOM     12  F   UNL     1      10.842  17.030  19.456  0.00  0.00    +0.000 F 
ATOM     13  C   UNL     1      10.457  15.762  19.257  0.00  0.00    +0.000 A 
ATOM     14  C   UNL     1      10.043  15.010  20.347  0.00  0.00    +0.000 A 
ATOM     15  C   UNL     1       9.641  13.683  20.161  0.00  0.00    +0.000 A 
ATOM     16  C   UNL     1       9.634  13.086  18.884  0.00  0.00    +0.000 A 
ATOM     17  C   UNL     1      10.058  13.879  17.799  0.00  0.00    +0.000 A 
ATOM     18  C   UNL     1      10.471  15.202  17.985  0.00  0.00    +0.000 A 
ATOM     19 CL   UNL     1      10.990  16.122  16.625  0.00  0.00    +0.000 Cl
ENDBRANCH   6  16
ENDBRANCH   1   9
BRANCH   4  20
ATOM     20  C   UNL     1       6.966   5.211  15.548  0.00  0.00    +0.000 C 
BRANCH  20  21
ATOM     21  C   UNL     1       5.519   4.719  15.557  0.00  0.00    +0.000 C 
BRANCH  21  22
ATOM     22  C   UNL     1       4.693   5.507  16.577  0.00  0.00    +0.000 C 
BRANCH  22  23
ATOM     23  C   UNL     1       3.824   4.611  17.420  0.00  0.00    +0.000 A 
ATOM     24  C   UNL     1       3.193   3.507  16.867  0.00  0.00    +0.000 A 
ATOM     25  C   UNL     1       2.395   2.728  17.691  0.00  0.00    +0.000 A 
ATOM     26  C   UNL     1       2.254   3.073  19.041  0.00  0.00    +0.000 A 
ATOM     27  C   UNL     1       1.453   2.325  19.916  0.00  0.00    +0.000 A 
ATOM     28  C   UNL     1       1.349   2.711  21.243  0.00  0.00    +0.000 A 
ATOM     29  C   UNL     1       2.054   3.829  21.639  0.00  0.00    +0.000 A 
ATOM     30  N   UNL     1       2.830   4.564  20.813  0.00  0.00    +0.000 NA
ATOM     31  C   UNL     1       2.937   4.204  19.532  0.00  0.00    +0.000 A 
ATOM     32  N   UNL     1       3.703   4.944  18.728  0.00  0.00    +0.000 NA
ENDBRANCH  22  23
ENDBRANCH  21  22
ENDBRANCH  20  21
ENDBRANCH   4  20
TORSDOF 6
ENDMDL
MODEL 7
REMARK VINA RESULT:      -8.6      5.237      7.637
REMARK  Name = 
REMARK  6 active torsions:
REMARK  status: ('A' for Active; 'I' for Inactive)
REMARK    1  A    between atoms: C_5  and  C_6
REMARK    2  A    between atoms: C_9  and  C_10
REMARK    3  A    between atoms: C_13  and  C_14
REMARK    4  A    between atoms: C_14  and  C_15
REMARK    5  A    between atoms: C_15  and  C_16
REMARK    6  A    between atoms: C_16  and  C_17
REMARK                            x       y       z     vdW  Elec       q    Type
REMARK                         _______ _______ _______ _____ _____    ______ ____
ROOT
ATOM      1  C   UNL     1       8.145   8.618  18.167  0.00  0.00    +0.000 A 
ATOM      2  N   UNL     1       8.465   7.502  18.795  0.00  0.00    +0.000 NA
ATOM      3  N   UNL     1       7.714   6.499  18.232  0.00  0.00    +0.000 NA
ATOM      4  C   UNL     1       6.986   7.066  17.296  0.00  0.00    +0.000 A 
ATOM      5  O   UNL     1       7.199   8.417  17.191  0.00  0.00    +0.000 OA
ENDROOT
BRANCH   1   9
ATOM      6  C   UNL     1       9.610  12.598  18.957  0.00  0.00    +0.000 A 
ATOM      7  C   UNL     1       9.909  11.511  19.793  0.00  0.00    +0.000 A 
ATOM      8  C   UNL     1       9.446  10.221  19.508  0.00  0.00    +0.000 A 
ATOM      9  C   UNL     1       8.650   9.967  18.384  0.00  0.00    +0.000 A 
ATOM     10  C   UNL     1       8.363  11.034  17.529  0.00  0.00    +0.000 A 
ATOM     11  C   UNL     1       8.838  12.326  17.811  0.00  0.00    +0.000 A 
BRANCH   6  16
ATOM     12  F   UNL     1      11.332  17.822  20.240  0.00  0.00    +0.000 F 
ATOM     13  C   UNL     1      10.922  16.587  19.918  0.00  0.00    +0.000 A 
ATOM     14  C   UNL     1      11.231  15.536  20.770  0.00  0.00    +0.000 A 
ATOM     15  C   UNL     1      10.815  14.239  20.450  0.00  0.00    +0.000 A 
ATOM     16  C   UNL     1      10.074  13.969  19.281  0.00  0.00    +0.000 A 
ATOM     17  C   UNL     1       9.774  15.060  18.441  0.00  0.00    +0.000 A 
ATOM     18  C   UNL     1      10.200  16.355  18.754  0.00  0.00    +0.000 A 
ATOM     19 CL   UNL     1       9.815  17.650  17.685  0.00  0.00    +0.000 Cl
ENDBRANCH   6  16
ENDBRANCH   1   9
BRANCH   4  20
ATOM     20  C   UNL     1       6.061   6.426  16.331  0.00  0.00    +0.000 C 
BRANCH  20  21
ATOM     21  C   UNL     1       6.496   5.011  15.953  0.00  0.00    +0.000 C 
BRANCH  21  22
ATOM     22  C   UNL     1       5.275   4.097  15.809  0.00  0.00    +0.000 C 
BRANCH  22  23
ATOM     23  C   UNL     1       4.585   3.856  17.126  0.00  0.00    +0.000 A 
ATOM     24  C   UNL     1       5.288   3.922  18.319  0.00  0.00    +0.000 A 
ATOM     25  C   UNL     1       4.602   3.677  19.498  0.00  0.00    +0.000 A 
ATOM     26  C   UNL     1       3.234   3.378  19.450  0.00  0.00    +0.000 A 
ATOM     27  C   UNL     1       2.493   3.114  20.611  0.00  0.00    +0.000 A 
ATOM     28  C   UNL     1       1.142   2.825  20.507  0.00  0.00    +0.000 A 
ATOM     29  C   UNL     1       0.589   2.814  19.242  0.00  0.00    +0.000 A 
ATOM     30  N   UNL     1       1.284   3.064  18.111  0.00  0.00    +0.000 NA
ATOM     31  C   UNL     1       2.586   3.342  18.199  0.00  0.00    +0.000 A 
ATOM     32  N   UNL     1       3.260   3.581  17.072  0.00  0.00    +0.000 NA
ENDBRANCH  22  23
ENDBRANCH  21  22
ENDBRANCH  20  21
ENDBRANCH   4  20
TORSDOF 6
ENDMDL
MODEL 8
REMARK VINA RESULT:      -8.6      5.104      7.559
REMARK  Name = 
REMARK  6 active torsions:
REMARK  status: ('A' for Active; 'I' for Inactive)
REMARK    1  A    between atoms: C_5  and  C_6
REMARK    2  A    between atoms: C_9  and  C_10
REMARK    3  A    between atoms: C_13  and  C_14
REMARK    4  A    between atoms: C_14  and  C_15
REMARK    5  A    between atoms: C_15  and  C_16
REMARK    6  A    between atoms: C_16  and  C_17
REMARK                            x       y       z     vdW  Elec       q    Type
REMARK                         _______ _______ _______ _____ _____    ______ ____
ROOT
ATOM      1  C   UNL     1       8.221   8.230  18.172  0.00  0.00    +0.000 A 
ATOM      2  N   UNL     1       8.343   7.162  18.939  0.00  0.00    +0.000 NA
ATOM      3  N   UNL     1       7.795   6.109  18.245  0.00  0.00    +0.000 NA
ATOM      4  C   UNL     1       7.378   6.601  17.100  0.00  0.00    +0.000 A 
ATOM      5  O   UNL     1       7.609   7.947  16.975  0.00  0.00    +0.000 OA
ENDROOT
BRANCH   1   9
ATOM      6  C   UNL     1       9.476  12.306  18.822  0.00  0.00    +0.000 A 
ATOM      7  C   UNL     1       8.671  11.935  17.733  0.00  0.00    +0.000 A 
ATOM      8  C   UNL     1       8.253  10.612  17.551  0.00  0.00    +0.000 A 
ATOM      9  C   UNL     1       8.635   9.600  18.440  0.00  0.00    +0.000 A 
ATOM     10  C   UNL     1       9.416   9.958  19.543  0.00  0.00    +0.000 A 
ATOM     11  C   UNL     1       9.826  11.288  19.729  0.00  0.00    +0.000 A 
BRANCH   6  16
ATOM     12  F   UNL     1      11.260  17.617  19.533  0.00  0.00    +0.000 F 
ATOM     13  C   UNL     1      10.825  16.362  19.352  0.00  0.00    +0.000 A 
ATOM     14  C   UNL     1      11.666  15.308  19.679  0.00  0.00    +0.000 A 
ATOM     15  C   UNL     1      11.231  13.991  19.494  0.00  0.00    +0.000 A 
ATOM     16  C   UNL     1       9.946  13.702  18.991  0.00  0.00    +0.000 A 
ATOM     17  C   UNL     1       9.117  14.796  18.673  0.00  0.00    +0.000 A 
ATOM     18  C   UNL     1       9.554  16.113  18.847  0.00  0.00    +0.000 A 
ATOM     19 CL   UNL     1       8.503  17.412  18.431  0.00  0.00    +0.000 Cl
ENDBRANCH   6  16
ENDBRANCH   1   9
BRANCH   4  20
ATOM     20  C   UNL     1       6.785   5.882  15.948  0.00  0.00    +0.000 C 
BRANCH  20  21
ATOM     21  C   UNL     1       5.258   5.854  15.999  0.00  0.00    +0.000 C 
BRANCH  21  22
ATOM     22  C   UNL     1       4.752   4.409  16.034  0.00  0.00    +0.000 C 
BRANCH  22  23
ATOM     23  C   UNL     1       4.268   4.009  17.403  0.00  0.00    +0.000 A 
ATOM     24  C   UNL     1       5.166   3.734  18.423  0.00  0.00    +0.000 A 
ATOM     25  C   UNL     1       4.661   3.357  19.658  0.00  0.00    +0.000 A 
ATOM     26  C   UNL     1       3.274   3.270  19.837  0.00  0.00    +0.000 A 
ATOM     27  C   UNL     1       2.710   2.886  21.063  0.00  0.00    +0.000 A 
ATOM     28  C   UNL     1       1.331   2.817  21.186  0.00  0.00    +0.000 A 
ATOM     29  C   UNL     1       0.576   3.137  20.077  0.00  0.00    +0.000 A 
ATOM     30  N   UNL     1       1.098   3.508  18.888  0.00  0.00    +0.000 NA
ATOM     31  C   UNL     1       2.425   3.577  18.756  0.00  0.00    +0.000 A 
ATOM     32  N   UNL     1       2.926   3.939  17.573  0.00  0.00    +0.000 NA
ENDBRANCH  22  23
ENDBRANCH  21  22
ENDBRANCH  20  21
ENDBRANCH   4  20
TORSDOF 6
ENDMDL
MODEL 9
REMARK VINA RESULT:      -8.6      3.606      4.283
REMARK  Name = 
REMARK  6 active torsions:
REMARK  status: ('A' for Active; 'I' for Inactive)
REMARK    1  A    between atoms: C_5  and  C_6
REMARK    2  A    between atoms: C_9  and  C_10
REMARK    3  A    between atoms: C_13  and  C_14
REMARK    4  A    between atoms: C_14  and  C_15
REMARK    5  A    between atoms: C_15  and  C_16
REMARK    6  A    between atoms: C_16  and  C_17
REMARK                            x       y       z     vdW  Elec       q    Type
REMARK                         _______ _______ _______ _____ _____    ______ ____
ROOT
ATOM      1  C   UNL     1       1.313   7.784  20.657  0.00  0.00    +0.000 A 
ATOM      2  N   UNL     1       2.208   7.750  19.686  0.00  0.00    +0.000 NA
ATOM      3  N   UNL     1       2.568   6.434  19.522  0.00  0.00    +0.000 NA
ATOM      4  C   UNL     1       1.869   5.749  20.400  0.00  0.00    +0.000 A 
ATOM      5  O   UNL     1       1.046   6.536  21.166  0.00  0.00    +0.000 OA
ENDROOT
BRANCH   1   9
ATOM      6  C   UNL     1      -0.834  11.094  22.400  0.00  0.00    +0.000 A 
ATOM      7  C   UNL     1      -0.511   9.942  23.134  0.00  0.00    +0.000 A 
ATOM      8  C   UNL     1       0.208   8.888  22.560  0.00  0.00    +0.000 A 
ATOM      9  C   UNL     1       0.620   8.933  21.222  0.00  0.00    +0.000 A 
ATOM     10  C   UNL     1       0.327  10.084  20.485  0.00  0.00    +0.000 A 
ATOM     11  C   UNL     1      -0.386  11.145  21.067  0.00  0.00    +0.000 A 
BRANCH   6  16
ATOM     12  F   UNL     1      -3.814  15.277  24.751  0.00  0.00    +0.000 F 
ATOM     13  C   UNL     1      -3.122  14.276  24.188  0.00  0.00    +0.000 A 
ATOM     14  C   UNL     1      -1.803  14.499  23.820  0.00  0.00    +0.000 A 
ATOM     15  C   UNL     1      -1.065  13.468  23.228  0.00  0.00    +0.000 A 
ATOM     16  C   UNL     1      -1.626  12.194  23.003  0.00  0.00    +0.000 A 
ATOM     17  C   UNL     1      -2.967  12.002  23.392  0.00  0.00    +0.000 A 
ATOM     18  C   UNL     1      -3.709  13.035  23.974  0.00  0.00    +0.000 A 
ATOM     19 CL   UNL     1      -5.347  12.748  24.419  0.00  0.00    +0.000 Cl
ENDBRANCH   6  16
ENDBRANCH   1   9
BRANCH   4  20
ATOM     20  C   UNL     1       1.813   4.282  20.594  0.00  0.00    +0.000 C 
BRANCH  20  21
ATOM     21  C   UNL     1       1.638   3.524  19.279  0.00  0.00    +0.000 C 
BRANCH  21  22
ATOM     22  C   UNL     1       2.818   2.575  19.047  0.00  0.00    +0.000 C 
BRANCH  22  23
ATOM     23  C   UNL     1       4.000   3.276  18.430  0.00  0.00    +0.000 A 
ATOM     24  C   UNL     1       4.975   3.861  19.225  0.00  0.00    +0.000 A 
ATOM     25  C   UNL     1       6.031   4.504  18.599  0.00  0.00    +0.000 A 
ATOM     26  C   UNL     1       6.085   4.539  17.199  0.00  0.00    +0.000 A 
ATOM     27  C   UNL     1       7.126   5.183  16.515  0.00  0.00    +0.000 A 
ATOM     28  C   UNL     1       7.131   5.188  15.129  0.00  0.00    +0.000 A 
ATOM     29  C   UNL     1       6.092   4.546  14.487  0.00  0.00    +0.000 A 
ATOM     30  N   UNL     1       5.079   3.921  15.126  0.00  0.00    +0.000 NA
ATOM     31  C   UNL     1       5.063   3.911  16.460  0.00  0.00    +0.000 A 
ATOM     32  N   UNL     1       4.052   3.295  17.077  0.00  0.00    +0.000 NA
ENDBRANCH  22  23
ENDBRANCH  21  22
ENDBRANCH  20  21
ENDBRANCH   4  20
TORSDOF 6
ENDMDL
