MODEL 1
REMARK VINA RESULT:      -7.4      0.000      0.000
REMARK  Name = 
REMARK  6 active torsions:
REMARK  status: ('A' for Active; 'I' for Inactive)
REMARK    1  A    between atoms: C_1  and  O_2
REMARK    2  A    between atoms: O_2  and  C_3
REMARK    3  A    between atoms: C_8  and  N_9
REMARK    4  A    between atoms: N_9  and  N_10
REMARK    5  A    between atoms: C_11  and  C_12
REMARK    6  A    between atoms: C_19  and  C_20
REMARK                            x       y       z     vdW  Elec       q    Type
REMARK                         _______ _______ _______ _____ _____    ______ ____
ROOT
ATOM      1  C   UNL     1       2.541   4.360  19.872  0.00  0.00    +0.000 A 
ATOM      2  C   UNL     1       3.392   3.254  19.995  0.00  0.00    +0.000 A 
ATOM      3  C   UNL     1       4.611   3.231  19.341  0.00  0.00    +0.000 A 
ATOM      4  C   UNL     1       4.988   4.326  18.570  0.00  0.00    +0.000 A 
ATOM      5  C   UNL     1       4.161   5.472  18.439  0.00  0.00    +0.000 A 
ATOM      6  C   UNL     1       4.531   6.631  17.697  0.00  0.00    +0.000 A 
ATOM      7  C   UNL     1       3.652   7.717  17.653  0.00  0.00    +0.000 A 
ATOM      8  C   UNL     1       2.456   7.651  18.333  0.00  0.00    +0.000 A 
ATOM      9  C   UNL     1       1.482   8.790  18.311  0.00  0.00    +0.000 C 
ATOM     10  N   UNL     1       2.093   6.566  19.045  0.00  0.00    +0.000 NA
ATOM     11  C   UNL     1       2.908   5.489  19.111  0.00  0.00    +0.000 A 
ENDROOT
BRANCH   1  13
ATOM     12  C   UNL     1       1.206   2.955  21.266  0.00  0.00    +0.000 C 
ATOM     13  O   UNL     1       1.388   4.206  20.615  0.00  0.00    +0.000 OA
ENDBRANCH   1  13
BRANCH   6  14
ATOM     14  N   UNL     1       5.736   6.695  16.937  0.00  0.00    +0.000 N 
ATOM     15  H   UNL     1       6.309   7.512  17.115  0.00  0.00    +0.000 HD
BRANCH  14  16
ATOM     16  N   UNL     1       5.683   6.226  15.658  0.00  0.00    +0.000 NA
ATOM     17  C   UNL     1       6.509   5.267  15.385  0.00  0.00    +0.000 C 
BRANCH  17  18
ATOM     18  C   UNL     1       6.590   4.680  14.032  0.00  0.00    +0.000 A 
ATOM     19  C   UNL     1       7.591   5.078  13.142  0.00  0.00    +0.000 A 
ATOM     20  C   UNL     1       7.652   4.516  11.866  0.00  0.00    +0.000 A 
ATOM     21  C   UNL     1       6.715   3.558  11.482  0.00  0.00    +0.000 A 
ATOM     22  C   UNL     1       5.717   3.156  12.372  0.00  0.00    +0.000 A 
ATOM     23  C   UNL     1       5.653   3.716  13.650  0.00  0.00    +0.000 A 
ENDBRANCH  17  18
ENDBRANCH  14  16
ENDBRANCH   6  14
TORSDOF 4
ENDMDL
MODEL 2
REMARK VINA RESULT:      -7.4      0.138      1.040
REMARK  Name = 
REMARK  6 active torsions:
REMARK  status: ('A' for Active; 'I' for Inactive)
REMARK    1  A    between atoms: C_1  and  O_2
REMARK    2  A    between atoms: O_2  and  C_3
REMARK    3  A    between atoms: C_8  and  N_9
REMARK    4  A    between atoms: N_9  and  N_10
REMARK    5  A    between atoms: C_11  and  C_12
REMARK    6  A    between atoms: C_19  and  C_20
REMARK                            x       y       z     vdW  Elec       q    Type
REMARK                         _______ _______ _______ _____ _____    ______ ____
ROOT
ATOM      1  C   UNL     1       2.524   4.232  19.823  0.00  0.00    +0.000 A 
ATOM      2  C   UNL     1       3.366   3.123  19.972  0.00  0.00    +0.000 A 
ATOM      3  C   UNL     1       4.608   3.099  19.362  0.00  0.00    +0.000 A 
ATOM      4  C   UNL     1       5.016   4.196  18.610  0.00  0.00    +0.000 A 
ATOM      5  C   UNL     1       4.199   5.345  18.454  0.00  0.00    +0.000 A 
ATOM      6  C   UNL     1       4.599   6.506  17.731  0.00  0.00    +0.000 A 
ATOM      7  C   UNL     1       3.726   7.595  17.660  0.00  0.00    +0.000 A 
ATOM      8  C   UNL     1       2.506   7.530  18.298  0.00  0.00    +0.000 A 
ATOM      9  C   UNL     1       1.537   8.673  18.247  0.00  0.00    +0.000 C 
ATOM     10  N   UNL     1       2.114   6.444  18.991  0.00  0.00    +0.000 NA
ATOM     11  C   UNL     1       2.922   5.364  19.082  0.00  0.00    +0.000 A 
ENDROOT
BRANCH   1  13
ATOM     12  C   UNL     1       1.291   3.012  21.463  0.00  0.00    +0.000 C 
ATOM     13  O   UNL     1       1.345   4.079  20.524  0.00  0.00    +0.000 OA
ENDBRANCH   1  13
BRANCH   6  14
ATOM     14  N   UNL     1       5.830   6.569  17.015  0.00  0.00    +0.000 N 
ATOM     15  H   UNL     1       6.428   7.349  17.263  0.00  0.00    +0.000 HD
BRANCH  14  16
ATOM     16  N   UNL     1       5.802   6.184  15.707  0.00  0.00    +0.000 NA
ATOM     17  C   UNL     1       6.505   5.133  15.425  0.00  0.00    +0.000 C 
BRANCH  17  18
ATOM     18  C   UNL     1       6.598   4.616  14.045  0.00  0.00    +0.000 A 
ATOM     19  C   UNL     1       5.668   3.686  13.568  0.00  0.00    +0.000 A 
ATOM     20  C   UNL     1       5.772   3.206  12.262  0.00  0.00    +0.000 A 
ATOM     21  C   UNL     1       6.801   3.653  11.435  0.00  0.00    +0.000 A 
ATOM     22  C   UNL     1       7.727   4.584  11.909  0.00  0.00    +0.000 A 
ATOM     23  C   UNL     1       7.627   5.069  13.215  0.00  0.00    +0.000 A 
ENDBRANCH  17  18
ENDBRANCH  14  16
ENDBRANCH   6  14
TORSDOF 4
ENDMDL
MODEL 3
REMARK VINA RESULT:      -7.3      3.133      7.730
REMARK  Name = 
REMARK  6 active torsions:
REMARK  status: ('A' for Active; 'I' for Inactive)
REMARK    1  A    between atoms: C_1  and  O_2
REMARK    2  A    between atoms: O_2  and  C_3
REMARK    3  A    between atoms: C_8  and  N_9
REMARK    4  A    between atoms: N_9  and  N_10
REMARK    5  A    between atoms: C_11  and  C_12
REMARK    6  A    between atoms: C_19  and  C_20
REMARK                            x       y       z     vdW  Elec       q    Type
REMARK                         _______ _______ _______ _____ _____    ______ ____
ROOT
ATOM      1  C   UNL     1       2.409   2.971  18.753  0.00  0.00    +0.000 A 
ATOM      2  C   UNL     1       1.531   2.505  19.740  0.00  0.00    +0.000 A 
ATOM      3  C   UNL     1       1.004   3.378  20.676  0.00  0.00    +0.000 A 
ATOM      4  C   UNL     1       1.346   4.725  20.617  0.00  0.00    +0.000 A 
ATOM      5  C   UNL     1       2.215   5.236  19.618  0.00  0.00    +0.000 A 
ATOM      6  C   UNL     1       2.553   6.615  19.497  0.00  0.00    +0.000 A 
ATOM      7  C   UNL     1       3.400   7.016  18.459  0.00  0.00    +0.000 A 
ATOM      8  C   UNL     1       3.881   6.076  17.573  0.00  0.00    +0.000 A 
ATOM      9  C   UNL     1       4.794   6.461  16.448  0.00  0.00    +0.000 C 
ATOM     10  N   UNL     1       3.567   4.770  17.670  0.00  0.00    +0.000 NA
ATOM     11  C   UNL     1       2.756   4.334  18.660  0.00  0.00    +0.000 A 
ENDROOT
BRANCH   1  13
ATOM     12  C   UNL     1       3.893   1.149  18.329  0.00  0.00    +0.000 C 
ATOM     13  O   UNL     1       2.805   1.960  17.901  0.00  0.00    +0.000 OA
ENDBRANCH   1  13
BRANCH   6  14
ATOM     14  N   UNL     1       2.115   7.591  20.438  0.00  0.00    +0.000 N 
ATOM     15  H   UNL     1       1.989   7.245  21.383  0.00  0.00    +0.000 HD
BRANCH  14  16
ATOM     16  N   UNL     1       1.236   8.530  19.987  0.00  0.00    +0.000 NA
ATOM     17  C   UNL     1       0.744   9.310  20.897  0.00  0.00    +0.000 C 
BRANCH  17  18
ATOM     18  C   UNL     1      -0.245  10.354  20.565  0.00  0.00    +0.000 A 
ATOM     19  C   UNL     1      -0.690  10.522  19.249  0.00  0.00    +0.000 A 
ATOM     20  C   UNL     1      -1.623  11.515  18.952  0.00  0.00    +0.000 A 
ATOM     21  C   UNL     1      -2.112  12.339  19.965  0.00  0.00    +0.000 A 
ATOM     22  C   UNL     1      -1.672  12.169  21.279  0.00  0.00    +0.000 A 
ATOM     23  C   UNL     1      -0.739  11.176  21.583  0.00  0.00    +0.000 A 
ENDBRANCH  17  18
ENDBRANCH  14  16
ENDBRANCH   6  14
TORSDOF 4
ENDMDL
MODEL 4
REMARK VINA RESULT:      -7.3      3.166      7.299
REMARK  Name = 
REMARK  6 active torsions:
REMARK  status: ('A' for Active; 'I' for Inactive)
REMARK    1  A    between atoms: C_1  and  O_2
REMARK    2  A    between atoms: O_2  and  C_3
REMARK    3  A    between atoms: C_8  and  N_9
REMARK    4  A    between atoms: N_9  and  N_10
REMARK    5  A    between atoms: C_11  and  C_12
REMARK    6  A    between atoms: C_19  and  C_20
REMARK                            x       y       z     vdW  Elec       q    Type
REMARK                         _______ _______ _______ _____ _____    ______ ____
ROOT
ATOM      1  C   UNL     1       2.282   3.098  18.669  0.00  0.00    +0.000 A 
ATOM      2  C   UNL     1       1.403   2.617  19.649  0.00  0.00    +0.000 A 
ATOM      3  C   UNL     1       0.911   3.465  20.625  0.00  0.00    +0.000 A 
ATOM      4  C   UNL     1       1.288   4.804  20.615  0.00  0.00    +0.000 A 
ATOM      5  C   UNL     1       2.159   5.331  19.626  0.00  0.00    +0.000 A 
ATOM      6  C   UNL     1       2.532   6.704  19.554  0.00  0.00    +0.000 A 
ATOM      7  C   UNL     1       3.377   7.124  18.522  0.00  0.00    +0.000 A 
ATOM      8  C   UNL     1       3.822   6.208  17.594  0.00  0.00    +0.000 A 
ATOM      9  C   UNL     1       4.731   6.613  16.473  0.00  0.00    +0.000 C 
ATOM     10  N   UNL     1       3.474   4.908  17.643  0.00  0.00    +0.000 NA
ATOM     11  C   UNL     1       2.664   4.455  18.626  0.00  0.00    +0.000 A 
ENDROOT
BRANCH   1  13
ATOM     12  C   UNL     1       3.734   1.279  18.139  0.00  0.00    +0.000 C 
ATOM     13  O   UNL     1       2.641   2.111  17.773  0.00  0.00    +0.000 OA
ENDBRANCH   1  13
BRANCH   6  14
ATOM     14  N   UNL     1       2.131   7.653  20.539  0.00  0.00    +0.000 N 
ATOM     15  H   UNL     1       2.351   7.395  21.494  0.00  0.00    +0.000 HD
BRANCH  14  16
ATOM     16  N   UNL     1       0.959   8.313  20.317  0.00  0.00    +0.000 NA
ATOM     17  C   UNL     1       1.052   9.373  19.578  0.00  0.00    +0.000 C 
BRANCH  17  18
ATOM     18  C   UNL     1      -0.128  10.209  19.277  0.00  0.00    +0.000 A 
ATOM     19  C   UNL     1      -0.631  11.100  20.231  0.00  0.00    +0.000 A 
ATOM     20  C   UNL     1      -1.747  11.881  19.932  0.00  0.00    +0.000 A 
ATOM     21  C   UNL     1      -2.360  11.773  18.684  0.00  0.00    +0.000 A 
ATOM     22  C   UNL     1      -1.855  10.887  17.730  0.00  0.00    +0.000 A 
ATOM     23  C   UNL     1      -0.737  10.104  18.024  0.00  0.00    +0.000 A 
ENDBRANCH  17  18
ENDBRANCH  14  16
ENDBRANCH   6  14
TORSDOF 4
ENDMDL
MODEL 5
REMARK VINA RESULT:      -7.3      3.490      8.094
REMARK  Name = 
REMARK  6 active torsions:
REMARK  status: ('A' for Active; 'I' for Inactive)
REMARK    1  A    between atoms: C_1  and  O_2
REMARK    2  A    between atoms: O_2  and  C_3
REMARK    3  A    between atoms: C_8  and  N_9
REMARK    4  A    between atoms: N_9  and  N_10
REMARK    5  A    between atoms: C_11  and  C_12
REMARK    6  A    between atoms: C_19  and  C_20
REMARK                            x       y       z     vdW  Elec       q    Type
REMARK                         _______ _______ _______ _____ _____    ______ ____
ROOT
ATOM      1  C   UNL     1       2.419   2.956  18.736  0.00  0.00    +0.000 A 
ATOM      2  C   UNL     1       1.651   2.280  19.694  0.00  0.00    +0.000 A 
ATOM      3  C   UNL     1       1.121   2.962  20.775  0.00  0.00    +0.000 A 
ATOM      4  C   UNL     1       1.348   4.330  20.893  0.00  0.00    +0.000 A 
ATOM      5  C   UNL     1       2.103   5.051  19.932  0.00  0.00    +0.000 A 
ATOM      6  C   UNL     1       2.319   6.458  19.993  0.00  0.00    +0.000 A 
ATOM      7  C   UNL     1       3.058   7.075  18.979  0.00  0.00    +0.000 A 
ATOM      8  C   UNL     1       3.550   6.316  17.940  0.00  0.00    +0.000 A 
ATOM      9  C   UNL     1       4.350   6.935  16.833  0.00  0.00    +0.000 C 
ATOM     10  N   UNL     1       3.350   4.987  17.863  0.00  0.00    +0.000 NA
ATOM     11  C   UNL     1       2.647   4.345  18.824  0.00  0.00    +0.000 A 
ENDROOT
BRANCH   1  13
ATOM     12  C   UNL     1       3.816   1.141  18.064  0.00  0.00    +0.000 C 
ATOM     13  O   UNL     1       2.836   2.115  17.726  0.00  0.00    +0.000 OA
ENDBRANCH   1  13
BRANCH   6  14
ATOM     14  N   UNL     1       1.869   7.249  21.090  0.00  0.00    +0.000 N 
ATOM     15  H   UNL     1       1.623   6.724  21.922  0.00  0.00    +0.000 HD
BRANCH  14  16
ATOM     16  N   UNL     1       1.118   8.347  20.791  0.00  0.00    +0.000 NA
ATOM     17  C   UNL     1       0.607   8.962  21.810  0.00  0.00    +0.000 C 
BRANCH  17  18
ATOM     18  C   UNL     1      -0.257  10.148  21.640  0.00  0.00    +0.000 A 
ATOM     19  C   UNL     1      -0.787  10.809  22.753  0.00  0.00    +0.000 A 
ATOM     20  C   UNL     1      -1.602  11.927  22.575  0.00  0.00    +0.000 A 
ATOM     21  C   UNL     1      -1.889  12.383  21.290  0.00  0.00    +0.000 A 
ATOM     22  C   UNL     1      -1.357  11.727  20.178  0.00  0.00    +0.000 A 
ATOM     23  C   UNL     1      -0.538  10.608  20.351  0.00  0.00    +0.000 A 
ENDBRANCH  17  18
ENDBRANCH  14  16
ENDBRANCH   6  14
TORSDOF 4
ENDMDL
MODEL 6
REMARK VINA RESULT:      -7.2      2.851      7.293
REMARK  Name = 
REMARK  6 active torsions:
REMARK  status: ('A' for Active; 'I' for Inactive)
REMARK    1  A    between atoms: C_1  and  O_2
REMARK    2  A    between atoms: O_2  and  C_3
REMARK    3  A    between atoms: C_8  and  N_9
REMARK    4  A    between atoms: N_9  and  N_10
REMARK    5  A    between atoms: C_11  and  C_12
REMARK    6  A    between atoms: C_19  and  C_20
REMARK                            x       y       z     vdW  Elec       q    Type
REMARK                         _______ _______ _______ _____ _____    ______ ____
ROOT
ATOM      1  C   UNL     1       7.107   5.059  14.661  0.00  0.00    +0.000 A 
ATOM      2  C   UNL     1       6.263   4.148  14.014  0.00  0.00    +0.000 A 
ATOM      3  C   UNL     1       5.172   3.612  14.676  0.00  0.00    +0.000 A 
ATOM      4  C   UNL     1       4.915   4.001  15.988  0.00  0.00    +0.000 A 
ATOM      5  C   UNL     1       5.737   4.937  16.667  0.00  0.00    +0.000 A 
ATOM      6  C   UNL     1       5.482   5.394  17.992  0.00  0.00    +0.000 A 
ATOM      7  C   UNL     1       6.341   6.339  18.560  0.00  0.00    +0.000 A 
ATOM      8  C   UNL     1       7.406   6.817  17.827  0.00  0.00    +0.000 A 
ATOM      9  C   UNL     1       8.354   7.828  18.397  0.00  0.00    +0.000 C 
ATOM     10  N   UNL     1       7.658   6.400  16.572  0.00  0.00    +0.000 NA
ATOM     11  C   UNL     1       6.858   5.483  15.983  0.00  0.00    +0.000 A 
ENDROOT
BRANCH   1  13
ATOM     12  C   UNL     1       7.921   5.333  12.433  0.00  0.00    +0.000 C 
ATOM     13  O   UNL     1       8.120   5.498  13.832  0.00  0.00    +0.000 OA
ENDBRANCH   1  13
BRANCH   6  14
ATOM     14  N   UNL     1       4.422   4.868  18.787  0.00  0.00    +0.000 N 
ATOM     15  H   UNL     1       3.985   4.032  18.416  0.00  0.00    +0.000 HD
BRANCH  14  16
ATOM     16  N   UNL     1       3.620   5.772  19.419  0.00  0.00    +0.000 NA
ATOM     17  C   UNL     1       3.032   6.627  18.644  0.00  0.00    +0.000 C 
BRANCH  17  18
ATOM     18  C   UNL     1       2.158   7.686  19.187  0.00  0.00    +0.000 A 
ATOM     19  C   UNL     1       1.738   7.649  20.521  0.00  0.00    +0.000 A 
ATOM     20  C   UNL     1       0.911   8.657  21.018  0.00  0.00    +0.000 A 
ATOM     21  C   UNL     1       0.504   9.698  20.186  0.00  0.00    +0.000 A 
ATOM     22  C   UNL     1       0.926   9.738  18.856  0.00  0.00    +0.000 A 
ATOM     23  C   UNL     1       1.755   8.733  18.353  0.00  0.00    +0.000 A 
ENDBRANCH  17  18
ENDBRANCH  14  16
ENDBRANCH   6  14
TORSDOF 4
ENDMDL
MODEL 7
REMARK VINA RESULT:      -7.1      2.529      7.089
REMARK  Name = 
REMARK  6 active torsions:
REMARK  status: ('A' for Active; 'I' for Inactive)
REMARK    1  A    between atoms: C_1  and  O_2
REMARK    2  A    between atoms: O_2  and  C_3
REMARK    3  A    between atoms: C_8  and  N_9
REMARK    4  A    between atoms: N_9  and  N_10
REMARK    5  A    between atoms: C_11  and  C_12
REMARK    6  A    between atoms: C_19  and  C_20
REMARK                            x       y       z     vdW  Elec       q    Type
REMARK                         _______ _______ _______ _____ _____    ______ ____
ROOT
ATOM      1  C   UNL     1       2.968   3.931  19.486  0.00  0.00    +0.000 A 
ATOM      2  C   UNL     1       2.081   4.140  20.551  0.00  0.00    +0.000 A 
ATOM      3  C   UNL     1       1.581   5.405  20.808  0.00  0.00    +0.000 A 
ATOM      4  C   UNL     1       1.959   6.464  19.988  0.00  0.00    +0.000 A 
ATOM      5  C   UNL     1       2.838   6.286  18.889  0.00  0.00    +0.000 A 
ATOM      6  C   UNL     1       3.213   7.335  18.001  0.00  0.00    +0.000 A 
ATOM      7  C   UNL     1       4.067   7.046  16.932  0.00  0.00    +0.000 A 
ATOM      8  C   UNL     1       4.518   5.757  16.753  0.00  0.00    +0.000 A 
ATOM      9  C   UNL     1       5.437   5.402  15.624  0.00  0.00    +0.000 C 
ATOM     10  N   UNL     1       4.169   4.752  17.580  0.00  0.00    +0.000 NA
ATOM     11  C   UNL     1       3.351   4.985  18.630  0.00  0.00    +0.000 A 
ENDROOT
BRANCH   1  13
ATOM     12  C   UNL     1       4.473   2.190  20.119  0.00  0.00    +0.000 C 
ATOM     13  O   UNL     1       3.334   2.605  19.376  0.00  0.00    +0.000 OA
ENDBRANCH   1  13
BRANCH   6  14
ATOM     14  N   UNL     1       2.805   8.685  18.204  0.00  0.00    +0.000 N 
ATOM     15  H   UNL     1       3.168   9.119  19.045  0.00  0.00    +0.000 HD
BRANCH  14  16
ATOM     16  N   UNL     1       1.535   9.009  17.825  0.00  0.00    +0.000 NA
ATOM     17  C   UNL     1       0.919   9.839  18.606  0.00  0.00    +0.000 C 
BRANCH  17  18
ATOM     18  C   UNL     1      -0.473  10.256  18.343  0.00  0.00    +0.000 A 
ATOM     19  C   UNL     1      -1.217   9.653  17.325  0.00  0.00    +0.000 A 
ATOM     20  C   UNL     1      -2.530  10.061  17.088  0.00  0.00    +0.000 A 
ATOM     21  C   UNL     1      -3.098  11.069  17.866  0.00  0.00    +0.000 A 
ATOM     22  C   UNL     1      -2.357  11.669  18.886  0.00  0.00    +0.000 A 
ATOM     23  C   UNL     1      -1.043  11.263  19.128  0.00  0.00    +0.000 A 
ENDBRANCH  17  18
ENDBRANCH  14  16
ENDBRANCH   6  14
TORSDOF 4
ENDMDL
MODEL 8
REMARK VINA RESULT:      -7.1      2.666      7.117
REMARK  Name = 
REMARK  6 active torsions:
REMARK  status: ('A' for Active; 'I' for Inactive)
REMARK    1  A    between atoms: C_1  and  O_2
REMARK    2  A    between atoms: O_2  and  C_3
REMARK    3  A    between atoms: C_8  and  N_9
REMARK    4  A    between atoms: N_9  and  N_10
REMARK    5  A    between atoms: C_11  and  C_12
REMARK    6  A    between atoms: C_19  and  C_20
REMARK                            x       y       z     vdW  Elec       q    Type
REMARK                         _______ _______ _______ _____ _____    ______ ____
ROOT
ATOM      1  C   UNL     1       3.218   3.913  19.375  0.00  0.00    +0.000 A 
ATOM      2  C   UNL     1       2.339   3.922  20.466  0.00  0.00    +0.000 A 
ATOM      3  C   UNL     1       1.703   5.091  20.844  0.00  0.00    +0.000 A 
ATOM      4  C   UNL     1       1.935   6.255  20.118  0.00  0.00    +0.000 A 
ATOM      5  C   UNL     1       2.802   6.279  18.995  0.00  0.00    +0.000 A 
ATOM      6  C   UNL     1       3.030   7.439  18.199  0.00  0.00    +0.000 A 
ATOM      7  C   UNL     1       3.885   7.348  17.097  0.00  0.00    +0.000 A 
ATOM      8  C   UNL     1       4.479   6.141  16.797  0.00  0.00    +0.000 A 
ATOM      9  C   UNL     1       5.405   5.998  15.627  0.00  0.00    +0.000 C 
ATOM     10  N   UNL     1       4.270   5.034  17.534  0.00  0.00    +0.000 NA
ATOM     11  C   UNL     1       3.456   5.075  18.613  0.00  0.00    +0.000 A 
ENDROOT
BRANCH   1  13
ATOM     12  C   UNL     1       3.004   1.819  18.248  0.00  0.00    +0.000 C 
ATOM     13  O   UNL     1       3.733   2.654  19.141  0.00  0.00    +0.000 OA
ENDBRANCH   1  13
BRANCH   6  14
ATOM     14  N   UNL     1       2.473   8.709  18.529  0.00  0.00    +0.000 N 
ATOM     15  H   UNL     1       2.669   9.029  19.471  0.00  0.00    +0.000 HD
BRANCH  14  16
ATOM     16  N   UNL     1       1.247   8.998  18.006  0.00  0.00    +0.000 NA
ATOM     17  C   UNL     1       0.566   9.890  18.653  0.00  0.00    +0.000 C 
BRANCH  17  18
ATOM     18  C   UNL     1      -0.791  10.283  18.225  0.00  0.00    +0.000 A 
ATOM     19  C   UNL     1      -1.478  11.307  18.885  0.00  0.00    +0.000 A 
ATOM     20  C   UNL     1      -2.761  11.665  18.469  0.00  0.00    +0.000 A 
ATOM     21  C   UNL     1      -3.356  11.002  17.397  0.00  0.00    +0.000 A 
ATOM     22  C   UNL     1      -2.670   9.983  16.734  0.00  0.00    +0.000 A 
ATOM     23  C   UNL     1      -1.385   9.622  17.146  0.00  0.00    +0.000 A 
ENDBRANCH  17  18
ENDBRANCH  14  16
ENDBRANCH   6  14
TORSDOF 4
ENDMDL
MODEL 9
REMARK VINA RESULT:      -7.0      3.066      7.268
REMARK  Name = 
REMARK  6 active torsions:
REMARK  status: ('A' for Active; 'I' for Inactive)
REMARK    1  A    between atoms: C_1  and  O_2
REMARK    2  A    between atoms: O_2  and  C_3
REMARK    3  A    between atoms: C_8  and  N_9
REMARK    4  A    between atoms: N_9  and  N_10
REMARK    5  A    between atoms: C_11  and  C_12
REMARK    6  A    between atoms: C_19  and  C_20
REMARK                            x       y       z     vdW  Elec       q    Type
REMARK                         _______ _______ _______ _____ _____    ______ ____
ROOT
ATOM      1  C   UNL     1       3.624   3.062  19.766  0.00  0.00    +0.000 A 
ATOM      2  C   UNL     1       2.917   2.610  20.888  0.00  0.00    +0.000 A 
ATOM      3  C   UNL     1       2.123   3.481  21.613  0.00  0.00    +0.000 A 
ATOM      4  C   UNL     1       2.024   4.808  21.206  0.00  0.00    +0.000 A 
ATOM      5  C   UNL     1       2.708   5.296  20.062  0.00  0.00    +0.000 A 
ATOM      6  C   UNL     1       2.597   6.635  19.588  0.00  0.00    +0.000 A 
ATOM      7  C   UNL     1       3.295   7.006  18.435  0.00  0.00    +0.000 A 
ATOM      8  C   UNL     1       4.065   6.071  17.777  0.00  0.00    +0.000 A 
ATOM      9  C   UNL     1       4.833   6.425  16.540  0.00  0.00    +0.000 C 
ATOM     10  N   UNL     1       4.177   4.800  18.208  0.00  0.00    +0.000 NA
ATOM     11  C   UNL     1       3.525   4.397  19.322  0.00  0.00    +0.000 A 
ENDROOT
BRANCH   1  13
ATOM     12  C   UNL     1       3.688   1.346  18.108  0.00  0.00    +0.000 C 
ATOM     13  O   UNL     1       4.336   2.044  19.164  0.00  0.00    +0.000 OA
ENDBRANCH   1  13
BRANCH   6  14
ATOM     14  N   UNL     1       1.854   7.630  20.288  0.00  0.00    +0.000 N 
ATOM     15  H   UNL     1       1.142   7.270  20.913  0.00  0.00    +0.000 HD
BRANCH  14  16
ATOM     16  N   UNL     1       1.576   8.781  19.611  0.00  0.00    +0.000 NA
ATOM     17  C   UNL     1       0.605   9.487  20.096  0.00  0.00    +0.000 C 
BRANCH  17  18
ATOM     18  C   UNL     1       0.168  10.742  19.452  0.00  0.00    +0.000 A 
ATOM     19  C   UNL     1      -1.129  10.869  18.945  0.00  0.00    +0.000 A 
ATOM     20  C   UNL     1      -1.525  12.061  18.338  0.00  0.00    +0.000 A 
ATOM     21  C   UNL     1      -0.628  13.123  18.236  0.00  0.00    +0.000 A 
ATOM     22  C   UNL     1       0.666  12.999  18.745  0.00  0.00    +0.000 A 
ATOM     23  C   UNL     1       1.067  11.808  19.355  0.00  0.00    +0.000 A 
ENDBRANCH  17  18
ENDBRANCH  14  16
ENDBRANCH   6  14
TORSDOF 4
ENDMDL
