MODEL 1
REMARK VINA RESULT:      -6.8      0.000      0.000
REMARK  Name = 
REMARK  2 active torsions:
REMARK  status: ('A' for Active; 'I' for Inactive)
REMARK    1  A    between atoms: C_2  and  C_3
REMARK    2  A    between atoms: C_5  and  O_6
REMARK                            x       y       z     vdW  Elec       q    Type
REMARK                         _______ _______ _______ _____ _____    ______ ____
ROOT
ATOM      1  C   UNL     1      -0.244  10.461  19.468  0.00  0.00    +0.000 A 
ATOM      2  C   UNL     1      -1.210  10.099  18.528  0.00  0.00    +0.000 A 
ATOM      3  C   UNL     1      -1.791  11.099  17.791  0.00  0.00    +0.000 A 
ATOM      4  N   UNL     1      -1.416  12.381  17.845  0.00  0.00    +0.000 NA
ATOM      5  C   UNL     1      -0.385  12.714  18.633  0.00  0.00    +0.000 A 
ATOM      6  C   UNL     1       0.036  14.035  18.595  0.00  0.00    +0.000 A 
ATOM      7  C   UNL     1       1.129  14.484  19.335  0.00  0.00    +0.000 A 
ATOM      8  C   UNL     1       1.805  13.589  20.148  0.00  0.00    +0.000 A 
ATOM      9 BR   UNL     1       3.323  14.166  21.113  0.00  0.00    +0.000 Br
ATOM     10  C   UNL     1       1.376  12.265  20.241  0.00  0.00    +0.000 A 
ATOM     11  C   UNL     1       0.267  11.792  19.484  0.00  0.00    +0.000 A 
ENDROOT
BRANCH   1  13
ATOM     12  O   UNL     1      -0.277   9.350  21.518  0.00  0.00    +0.000 OA
ATOM     13  C   UNL     1       0.256   9.411  20.409  0.00  0.00    +0.000 C 
ATOM     14  N   UNL     1       1.272   8.519  20.021  0.00  0.00    +0.000 N 
ATOM     15  C   UNL     1       2.071   8.544  18.793  0.00  0.00    +0.000 C 
ATOM     16  C   UNL     1       2.136   7.189  18.110  0.00  0.00    +0.000 C 
ATOM     17  C   UNL     1       2.532   6.070  19.065  0.00  0.00    +0.000 C 
ATOM     18  C   UNL     1       1.716   6.114  20.356  0.00  0.00    +0.000 C 
ATOM     19  C   UNL     1       1.708   7.504  20.986  0.00  0.00    +0.000 C 
ATOM     20  O   UNL     1       3.937   6.176  19.361  0.00  0.00    +0.000 OA
ATOM     21  C   UNL     1       4.456   4.866  19.121  0.00  0.00    +0.000 C 
ATOM     22  C   UNL     1       3.567   4.329  18.033  0.00  0.00    +0.000 C 
ATOM     23  O   UNL     1       2.281   4.813  18.409  0.00  0.00    +0.000 OA
ENDBRANCH   1  13
BRANCH   3  24
ATOM     24  O   UNL     1      -2.846  10.846  16.966  0.00  0.00    +0.000 OA
ATOM     25  H   UNL     1      -2.981   9.889  16.918  0.00  0.00    +0.000 HD
ENDBRANCH   3  24
TORSDOF 2
ENDMDL
MODEL 2
REMARK VINA RESULT:      -6.7      2.993      3.948
REMARK  Name = 
REMARK  2 active torsions:
REMARK  status: ('A' for Active; 'I' for Inactive)
REMARK    1  A    between atoms: C_2  and  C_3
REMARK    2  A    between atoms: C_5  and  O_6
REMARK                            x       y       z     vdW  Elec       q    Type
REMARK                         _______ _______ _______ _____ _____    ______ ____
ROOT
ATOM      1  C   UNL     1       0.903   9.684  19.189  0.00  0.00    +0.000 A 
ATOM      2  C   UNL     1       1.206   9.630  20.550  0.00  0.00    +0.000 A 
ATOM      3  C   UNL     1       0.364  10.275  21.419  0.00  0.00    +0.000 A 
ATOM      4  N   UNL     1      -0.782  10.860  21.054  0.00  0.00    +0.000 NA
ATOM      5  C   UNL     1      -1.158  10.784  19.770  0.00  0.00    +0.000 A 
ATOM      6  C   UNL     1      -2.395  11.321  19.443  0.00  0.00    +0.000 A 
ATOM      7  C   UNL     1      -2.911  11.255  18.150  0.00  0.00    +0.000 A 
ATOM      8  C   UNL     1      -2.159  10.651  17.155  0.00  0.00    +0.000 A 
ATOM      9 BR   UNL     1      -2.867  10.502  15.410  0.00  0.00    +0.000 Br
ATOM     10  C   UNL     1      -0.892  10.143  17.445  0.00  0.00    +0.000 A 
ATOM     11  C   UNL     1      -0.359  10.196  18.763  0.00  0.00    +0.000 A 
ENDROOT
BRANCH   1  13
ATOM     12  O   UNL     1       2.435   9.966  17.455  0.00  0.00    +0.000 OA
ATOM     13  C   UNL     1       1.910   9.155  18.219  0.00  0.00    +0.000 C 
ATOM     14  N   UNL     1       2.255   7.792  18.207  0.00  0.00    +0.000 N 
ATOM     15  C   UNL     1       1.637   6.700  18.967  0.00  0.00    +0.000 C 
ATOM     16  C   UNL     1       2.661   5.825  19.669  0.00  0.00    +0.000 C 
ATOM     17  C   UNL     1       3.770   5.358  18.736  0.00  0.00    +0.000 C 
ATOM     18  C   UNL     1       4.348   6.514  17.921  0.00  0.00    +0.000 C 
ATOM     19  C   UNL     1       3.259   7.339  17.239  0.00  0.00    +0.000 C 
ATOM     20  O   UNL     1       3.253   4.340  17.858  0.00  0.00    +0.000 OA
ATOM     21  C   UNL     1       4.188   3.264  17.963  0.00  0.00    +0.000 C 
ATOM     22  C   UNL     1       4.709   3.386  19.368  0.00  0.00    +0.000 C 
ATOM     23  O   UNL     1       4.824   4.796  19.541  0.00  0.00    +0.000 OA
ENDBRANCH   1  13
BRANCH   3  24
ATOM     24  O   UNL     1       0.672  10.399  22.741  0.00  0.00    +0.000 OA
ATOM     25  H   UNL     1       0.689  11.339  22.970  0.00  0.00    +0.000 HD
ENDBRANCH   3  24
TORSDOF 2
ENDMDL
MODEL 3
REMARK VINA RESULT:      -6.7      3.468      7.781
REMARK  Name = 
REMARK  2 active torsions:
REMARK  status: ('A' for Active; 'I' for Inactive)
REMARK    1  A    between atoms: C_2  and  C_3
REMARK    2  A    between atoms: C_5  and  O_6
REMARK                            x       y       z     vdW  Elec       q    Type
REMARK                         _______ _______ _______ _____ _____    ______ ____
ROOT
ATOM      1  C   UNL     1       3.105   6.731  18.493  0.00  0.00    +0.000 A 
ATOM      2  C   UNL     1       4.053   7.483  17.798  0.00  0.00    +0.000 A 
ATOM      3  C   UNL     1       4.986   6.806  17.054  0.00  0.00    +0.000 A 
ATOM      4  N   UNL     1       4.977   5.481  16.871  0.00  0.00    +0.000 NA
ATOM      5  C   UNL     1       3.979   4.768  17.410  0.00  0.00    +0.000 A 
ATOM      6  C   UNL     1       3.950   3.410  17.125  0.00  0.00    +0.000 A 
ATOM      7  C   UNL     1       2.932   2.579  17.590  0.00  0.00    +0.000 A 
ATOM      8  C   UNL     1       1.928   3.119  18.377  0.00  0.00    +0.000 A 
ATOM      9 BR   UNL     1       0.511   2.019  18.969  0.00  0.00    +0.000 Br
ATOM     10  C   UNL     1       1.957   4.472  18.718  0.00  0.00    +0.000 A 
ATOM     11  C   UNL     1       2.986   5.332  18.242  0.00  0.00    +0.000 A 
ENDROOT
BRANCH   1  13
ATOM     12  O   UNL     1       2.034   6.913  20.557  0.00  0.00    +0.000 OA
ATOM     13  C   UNL     1       2.209   7.441  19.457  0.00  0.00    +0.000 C 
ATOM     14  N   UNL     1       1.619   8.673  19.122  0.00  0.00    +0.000 N 
ATOM     15  C   UNL     1       1.639   9.358  17.826  0.00  0.00    +0.000 C 
ATOM     16  C   UNL     1       2.022  10.823  17.945  0.00  0.00    +0.000 C 
ATOM     17  C   UNL     1       1.206  11.556  19.002  0.00  0.00    +0.000 C 
ATOM     18  C   UNL     1       1.161  10.783  20.319  0.00  0.00    +0.000 C 
ATOM     19  C   UNL     1       0.760   9.324  20.117  0.00  0.00    +0.000 C 
ATOM     20  O   UNL     1      -0.128  11.771  18.505  0.00  0.00    +0.000 OA
ATOM     21  C   UNL     1      -0.371  13.164  18.715  0.00  0.00    +0.000 C 
ATOM     22  C   UNL     1       0.994  13.782  18.592  0.00  0.00    +0.000 C 
ATOM     23  O   UNL     1       1.831  12.831  19.243  0.00  0.00    +0.000 OA
ENDBRANCH   1  13
BRANCH   3  24
ATOM     24  O   UNL     1       6.033   7.455  16.473  0.00  0.00    +0.000 OA
ATOM     25  H   UNL     1       6.841   6.948  16.632  0.00  0.00    +0.000 HD
ENDBRANCH   3  24
TORSDOF 2
ENDMDL
MODEL 4
REMARK VINA RESULT:      -6.7      2.958      4.190
REMARK  Name = 
REMARK  2 active torsions:
REMARK  status: ('A' for Active; 'I' for Inactive)
REMARK    1  A    between atoms: C_2  and  C_3
REMARK    2  A    between atoms: C_5  and  O_6
REMARK                            x       y       z     vdW  Elec       q    Type
REMARK                         _______ _______ _______ _____ _____    ______ ____
ROOT
ATOM      1  C   UNL     1       1.471   8.742  19.729  0.00  0.00    +0.000 A 
ATOM      2  C   UNL     1       1.923   8.542  21.034  0.00  0.00    +0.000 A 
ATOM      3  C   UNL     1       1.450   9.381  22.010  0.00  0.00    +0.000 A 
ATOM      4  N   UNL     1       0.508  10.307  21.807  0.00  0.00    +0.000 NA
ATOM      5  C   UNL     1      -0.043  10.403  20.589  0.00  0.00    +0.000 A 
ATOM      6  C   UNL     1      -1.081  11.312  20.437  0.00  0.00    +0.000 A 
ATOM      7  C   UNL     1      -1.761  11.462  19.229  0.00  0.00    +0.000 A 
ATOM      8  C   UNL     1      -1.378  10.694  18.141  0.00  0.00    +0.000 A 
ATOM      9 BR   UNL     1      -2.324  10.843  16.513  0.00  0.00    +0.000 Br
ATOM     10  C   UNL     1      -0.307   9.806  18.252  0.00  0.00    +0.000 A 
ATOM     11  C   UNL     1       0.389   9.638  19.482  0.00  0.00    +0.000 A 
ENDROOT
BRANCH   1  13
ATOM     12  O   UNL     1       2.510   8.600  17.646  0.00  0.00    +0.000 OA
ATOM     13  C   UNL     1       2.121   7.966  18.628  0.00  0.00    +0.000 C 
ATOM     14  N   UNL     1       2.302   6.575  18.735  0.00  0.00    +0.000 N 
ATOM     15  C   UNL     1       1.793   5.678  19.777  0.00  0.00    +0.000 C 
ATOM     16  C   UNL     1       2.865   4.753  20.326  0.00  0.00    +0.000 C 
ATOM     17  C   UNL     1       3.630   4.027  19.227  0.00  0.00    +0.000 C 
ATOM     18  C   UNL     1       4.092   4.986  18.131  0.00  0.00    +0.000 C 
ATOM     19  C   UNL     1       2.958   5.874  17.627  0.00  0.00    +0.000 C 
ATOM     20  O   UNL     1       2.792   2.999  18.667  0.00  0.00    +0.000 OA
ATOM     21  C   UNL     1       3.598   1.819  18.696  0.00  0.00    +0.000 C 
ATOM     22  C   UNL     1       4.483   2.028  19.893  0.00  0.00    +0.000 C 
ATOM     23  O   UNL     1       4.792   3.417  19.819  0.00  0.00    +0.000 OA
ENDBRANCH   1  13
BRANCH   3  24
ATOM     24  O   UNL     1       1.956   9.349  23.275  0.00  0.00    +0.000 OA
ATOM     25  H   UNL     1       1.551   8.613  23.754  0.00  0.00    +0.000 HD
ENDBRANCH   3  24
TORSDOF 2
ENDMDL
MODEL 5
REMARK VINA RESULT:      -6.7      3.069      7.400
REMARK  Name = 
REMARK  2 active torsions:
REMARK  status: ('A' for Active; 'I' for Inactive)
REMARK    1  A    between atoms: C_2  and  C_3
REMARK    2  A    between atoms: C_5  and  O_6
REMARK                            x       y       z     vdW  Elec       q    Type
REMARK                         _______ _______ _______ _____ _____    ______ ____
ROOT
ATOM      1  C   UNL     1       2.350   6.373  19.206  0.00  0.00    +0.000 A 
ATOM      2  C   UNL     1       1.452   5.655  19.997  0.00  0.00    +0.000 A 
ATOM      3  C   UNL     1       1.762   4.352  20.295  0.00  0.00    +0.000 A 
ATOM      4  N   UNL     1       2.916   3.764  19.962  0.00  0.00    +0.000 NA
ATOM      5  C   UNL     1       3.848   4.494  19.334  0.00  0.00    +0.000 A 
ATOM      6  C   UNL     1       5.067   3.879  19.085  0.00  0.00    +0.000 A 
ATOM      7  C   UNL     1       6.127   4.556  18.484  0.00  0.00    +0.000 A 
ATOM      8  C   UNL     1       5.954   5.878  18.105  0.00  0.00    +0.000 A 
ATOM      9 BR   UNL     1       7.397   6.827  17.341  0.00  0.00    +0.000 Br
ATOM     10  C   UNL     1       4.724   6.507  18.301  0.00  0.00    +0.000 A 
ATOM     11  C   UNL     1       3.638   5.830  18.923  0.00  0.00    +0.000 A 
ENDROOT
BRANCH   1  13
ATOM     12  O   UNL     1       1.913   7.896  17.496  0.00  0.00    +0.000 OA
ATOM     13  C   UNL     1       1.936   7.724  18.715  0.00  0.00    +0.000 C 
ATOM     14  N   UNL     1       1.564   8.737  19.617  0.00  0.00    +0.000 N 
ATOM     15  C   UNL     1       1.653   8.717  21.080  0.00  0.00    +0.000 C 
ATOM     16  C   UNL     1       0.366   9.167  21.750  0.00  0.00    +0.000 C 
ATOM     17  C   UNL     1      -0.152  10.488  21.195  0.00  0.00    +0.000 C 
ATOM     18  C   UNL     1      -0.174  10.489  19.667  0.00  0.00    +0.000 C 
ATOM     19  C   UNL     1       1.156  10.035  19.071  0.00  0.00    +0.000 C 
ATOM     20  O   UNL     1       0.675  11.562  21.681  0.00  0.00    +0.000 OA
ATOM     21  C   UNL     1      -0.247  12.516  22.213  0.00  0.00    +0.000 C 
ATOM     22  C   UNL     1      -1.394  11.668  22.689  0.00  0.00    +0.000 C 
ATOM     23  O   UNL     1      -1.497  10.676  21.671  0.00  0.00    +0.000 OA
ENDBRANCH   1  13
BRANCH   3  24
ATOM     24  O   UNL     1       0.870   3.541  20.929  0.00  0.00    +0.000 OA
ATOM     25  H   UNL     1       0.620   3.951  21.770  0.00  0.00    +0.000 HD
ENDBRANCH   3  24
TORSDOF 2
ENDMDL
MODEL 6
REMARK VINA RESULT:      -6.3      8.588     10.720
REMARK  Name = 
REMARK  2 active torsions:
REMARK  status: ('A' for Active; 'I' for Inactive)
REMARK    1  A    between atoms: C_2  and  C_3
REMARK    2  A    between atoms: C_5  and  O_6
REMARK                            x       y       z     vdW  Elec       q    Type
REMARK                         _______ _______ _______ _____ _____    ______ ____
ROOT
ATOM      1  C   UNL     1       8.688  15.271  18.433  0.00  0.00    +0.000 A 
ATOM      2  C   UNL     1       9.153  16.449  17.847  0.00  0.00    +0.000 A 
ATOM      3  C   UNL     1      10.378  16.417  17.230  0.00  0.00    +0.000 A 
ATOM      4  N   UNL     1      11.102  15.305  17.066  0.00  0.00    +0.000 NA
ATOM      5  C   UNL     1      10.593  14.141  17.490  0.00  0.00    +0.000 A 
ATOM      6  C   UNL     1      11.330  12.996  17.222  0.00  0.00    +0.000 A 
ATOM      7  C   UNL     1      10.876  11.726  17.573  0.00  0.00    +0.000 A 
ATOM      8  C   UNL     1       9.660  11.602  18.226  0.00  0.00    +0.000 A 
ATOM      9 BR   UNL     1       9.002   9.884  18.657  0.00  0.00    +0.000 Br
ATOM     10  C   UNL     1       8.919  12.739  18.549  0.00  0.00    +0.000 A 
ATOM     11  C   UNL     1       9.368  14.041  18.188  0.00  0.00    +0.000 A 
ENDROOT
BRANCH   1  13
ATOM     12  O   UNL     1       6.375  15.425  18.680  0.00  0.00    +0.000 OA
ATOM     13  C   UNL     1       7.452  15.338  19.271  0.00  0.00    +0.000 C 
ATOM     14  N   UNL     1       7.527  15.274  20.675  0.00  0.00    +0.000 N 
ATOM     15  C   UNL     1       8.730  15.288  21.513  0.00  0.00    +0.000 C 
ATOM     16  C   UNL     1       8.724  14.188  22.561  0.00  0.00    +0.000 C 
ATOM     17  C   UNL     1       7.429  14.151  23.363  0.00  0.00    +0.000 C 
ATOM     18  C   UNL     1       6.201  14.197  22.456  0.00  0.00    +0.000 C 
ATOM     19  C   UNL     1       6.277  15.333  21.439  0.00  0.00    +0.000 C 
ATOM     20  O   UNL     1       7.411  15.259  24.283  0.00  0.00    +0.000 OA
ATOM     21  C   UNL     1       7.098  14.672  25.548  0.00  0.00    +0.000 C 
ATOM     22  C   UNL     1       7.689  13.293  25.452  0.00  0.00    +0.000 C 
ATOM     23  O   UNL     1       7.401  12.919  24.107  0.00  0.00    +0.000 OA
ENDBRANCH   1  13
BRANCH   3  24
ATOM     24  O   UNL     1      10.967  17.556  16.770  0.00  0.00    +0.000 OA
ATOM     25  H   UNL     1      10.920  18.232  17.462  0.00  0.00    +0.000 HD
ENDBRANCH   3  24
TORSDOF 2
ENDMDL
MODEL 7
REMARK VINA RESULT:      -6.3      3.670      7.215
REMARK  Name = 
REMARK  2 active torsions:
REMARK  status: ('A' for Active; 'I' for Inactive)
REMARK    1  A    between atoms: C_2  and  C_3
REMARK    2  A    between atoms: C_5  and  O_6
REMARK                            x       y       z     vdW  Elec       q    Type
REMARK                         _______ _______ _______ _____ _____    ______ ____
ROOT
ATOM      1  C   UNL     1       1.293   9.659  20.121  0.00  0.00    +0.000 A 
ATOM      2  C   UNL     1       1.371  10.724  19.221  0.00  0.00    +0.000 A 
ATOM      3  C   UNL     1       2.062  10.524  18.053  0.00  0.00    +0.000 A 
ATOM      4  N   UNL     1       2.572   9.347  17.679  0.00  0.00    +0.000 NA
ATOM      5  C   UNL     1       2.369   8.282  18.465  0.00  0.00    +0.000 A 
ATOM      6  C   UNL     1       2.832   7.059  18.003  0.00  0.00    +0.000 A 
ATOM      7  C   UNL     1       2.634   5.876  18.714  0.00  0.00    +0.000 A 
ATOM      8  C   UNL     1       1.968   5.924  19.928  0.00  0.00    +0.000 A 
ATOM      9 BR   UNL     1       1.640   4.324  20.877  0.00  0.00    +0.000 Br
ATOM     10  C   UNL     1       1.532   7.146  20.440  0.00  0.00    +0.000 A 
ATOM     11  C   UNL     1       1.721   8.359  19.720  0.00  0.00    +0.000 A 
ENDROOT
BRANCH   1  13
ATOM     12  O   UNL     1       1.368   9.541  22.448  0.00  0.00    +0.000 OA
ATOM     13  C   UNL     1       0.714   9.919  21.474  0.00  0.00    +0.000 C 
ATOM     14  N   UNL     1      -0.513  10.592  21.618  0.00  0.00    +0.000 N 
ATOM     15  C   UNL     1      -1.450  10.991  20.564  0.00  0.00    +0.000 C 
ATOM     16  C   UNL     1      -1.896  12.436  20.696  0.00  0.00    +0.000 C 
ATOM     17  C   UNL     1      -2.388  12.772  22.098  0.00  0.00    +0.000 C 
ATOM     18  C   UNL     1      -1.412  12.288  23.170  0.00  0.00    +0.000 C 
ATOM     19  C   UNL     1      -1.020  10.826  22.974  0.00  0.00    +0.000 C 
ATOM     20  O   UNL     1      -3.683  12.178  22.300  0.00  0.00    +0.000 OA
ATOM     21  C   UNL     1      -4.499  13.246  22.786  0.00  0.00    +0.000 C 
ATOM     22  C   UNL     1      -3.904  14.466  22.140  0.00  0.00    +0.000 C 
ATOM     23  O   UNL     1      -2.504  14.203  22.200  0.00  0.00    +0.000 OA
ENDBRANCH   1  13
BRANCH   3  24
ATOM     24  O   UNL     1       2.314  11.554  17.197  0.00  0.00    +0.000 OA
ATOM     25  H   UNL     1       1.851  12.343  17.514  0.00  0.00    +0.000 HD
ENDBRANCH   3  24
TORSDOF 2
ENDMDL
MODEL 8
REMARK VINA RESULT:      -6.2      4.436      7.963
REMARK  Name = 
REMARK  2 active torsions:
REMARK  status: ('A' for Active; 'I' for Inactive)
REMARK    1  A    between atoms: C_2  and  C_3
REMARK    2  A    between atoms: C_5  and  O_6
REMARK                            x       y       z     vdW  Elec       q    Type
REMARK                         _______ _______ _______ _____ _____    ______ ____
ROOT
ATOM      1  C   UNL     1      -1.227  12.315  20.188  0.00  0.00    +0.000 A 
ATOM      2  C   UNL     1      -0.813  11.282  21.030  0.00  0.00    +0.000 A 
ATOM      3  C   UNL     1       0.515  11.225  21.368  0.00  0.00    +0.000 A 
ATOM      4  N   UNL     1       1.413  12.154  21.025  0.00  0.00    +0.000 NA
ATOM      5  C   UNL     1       0.994  13.230  20.345  0.00  0.00    +0.000 A 
ATOM      6  C   UNL     1       1.933  14.217  20.086  0.00  0.00    +0.000 A 
ATOM      7  C   UNL     1       1.600  15.401  19.430  0.00  0.00    +0.000 A 
ATOM      8  C   UNL     1       0.294  15.592  19.007  0.00  0.00    +0.000 A 
ATOM      9 BR   UNL     1      -0.188  17.214  18.167  0.00  0.00    +0.000 Br
ATOM     10  C   UNL     1      -0.662  14.597  19.213  0.00  0.00    +0.000 A 
ATOM     11  C   UNL     1      -0.335  13.387  19.889  0.00  0.00    +0.000 A 
ENDROOT
BRANCH   1  13
ATOM     12  O   UNL     1      -2.795  11.756  18.556  0.00  0.00    +0.000 OA
ATOM     13  C   UNL     1      -2.625  12.278  19.658  0.00  0.00    +0.000 C 
ATOM     14  N   UNL     1      -3.696  12.797  20.409  0.00  0.00    +0.000 N 
ATOM     15  C   UNL     1      -3.633  13.545  21.668  0.00  0.00    +0.000 C 
ATOM     16  C   UNL     1      -4.596  13.010  22.714  0.00  0.00    +0.000 C 
ATOM     17  C   UNL     1      -6.013  12.850  22.177  0.00  0.00    +0.000 C 
ATOM     18  C   UNL     1      -6.030  12.117  20.837  0.00  0.00    +0.000 C 
ATOM     19  C   UNL     1      -5.044  12.719  19.839  0.00  0.00    +0.000 C 
ATOM     20  O   UNL     1      -6.617  14.149  22.042  0.00  0.00    +0.000 OA
ATOM     21  C   UNL     1      -7.875  14.034  22.711  0.00  0.00    +0.000 C 
ATOM     22  C   UNL     1      -7.610  13.018  23.786  0.00  0.00    +0.000 C 
ATOM     23  O   UNL     1      -6.766  12.076  23.130  0.00  0.00    +0.000 OA
ENDBRANCH   1  13
BRANCH   3  24
ATOM     24  O   UNL     1       1.024  10.166  22.057  0.00  0.00    +0.000 OA
ATOM     25  H   UNL     1       1.812   9.844  21.597  0.00  0.00    +0.000 HD
ENDBRANCH   3  24
TORSDOF 2
ENDMDL
MODEL 9
REMARK VINA RESULT:      -6.2      3.315      7.589
REMARK  Name = 
REMARK  2 active torsions:
REMARK  status: ('A' for Active; 'I' for Inactive)
REMARK    1  A    between atoms: C_2  and  C_3
REMARK    2  A    between atoms: C_5  and  O_6
REMARK                            x       y       z     vdW  Elec       q    Type
REMARK                         _______ _______ _______ _____ _____    ______ ____
ROOT
ATOM      1  C   UNL     1       2.730   6.953  18.957  0.00  0.00    +0.000 A 
ATOM      2  C   UNL     1       3.303   7.521  17.818  0.00  0.00    +0.000 A 
ATOM      3  C   UNL     1       4.260   6.797  17.154  0.00  0.00    +0.000 A 
ATOM      4  N   UNL     1       4.600   5.543  17.469  0.00  0.00    +0.000 NA
ATOM      5  C   UNL     1       3.946   4.934  18.467  0.00  0.00    +0.000 A 
ATOM      6  C   UNL     1       4.260   3.604  18.707  0.00  0.00    +0.000 A 
ATOM      7  C   UNL     1       3.609   2.855  19.687  0.00  0.00    +0.000 A 
ATOM      8  C   UNL     1       2.630   3.462  20.457  0.00  0.00    +0.000 A 
ATOM      9 BR   UNL     1       1.698   2.448  21.750  0.00  0.00    +0.000 Br
ATOM     10  C   UNL     1       2.325   4.810  20.269  0.00  0.00    +0.000 A 
ATOM     11  C   UNL     1       2.977   5.582  19.266  0.00  0.00    +0.000 A 
ENDROOT
BRANCH   1  13
ATOM     12  O   UNL     1       1.501   7.357  20.896  0.00  0.00    +0.000 OA
ATOM     13  C   UNL     1       1.833   7.804  19.797  0.00  0.00    +0.000 C 
ATOM     14  N   UNL     1       1.416   9.072  19.353  0.00  0.00    +0.000 N 
ATOM     15  C   UNL     1       1.632   9.679  18.036  0.00  0.00    +0.000 C 
ATOM     16  C   UNL     1       2.161  11.100  18.129  0.00  0.00    +0.000 C 
ATOM     17  C   UNL     1       1.337  11.972  19.068  0.00  0.00    +0.000 C 
ATOM     18  C   UNL     1       1.086  11.279  20.407  0.00  0.00    +0.000 C 
ATOM     19  C   UNL     1       0.547   9.862  20.230  0.00  0.00    +0.000 C 
ATOM     20  O   UNL     1       0.087  12.300  18.435  0.00  0.00    +0.000 OA
ATOM     21  C   UNL     1      -0.020  13.720  18.559  0.00  0.00    +0.000 C 
ATOM     22  C   UNL     1       1.411  14.182  18.542  0.00  0.00    +0.000 C 
ATOM     23  O   UNL     1       2.074  13.184  19.313  0.00  0.00    +0.000 OA
ENDBRANCH   1  13
BRANCH   3  24
ATOM     24  O   UNL     1       4.973   7.341  16.129  0.00  0.00    +0.000 OA
ATOM     25  H   UNL     1       4.873   6.779  15.347  0.00  0.00    +0.000 HD
ENDBRANCH   3  24
TORSDOF 2
ENDMDL
