MODEL 1
REMARK VINA RESULT:      -7.6      0.000      0.000
REMARK  Name = 
REMARK  9 active torsions:
REMARK  status: ('A' for Active; 'I' for Inactive)
REMARK    1  A    between atoms: C_1  and  C_2
REMARK    2  A    between atoms: N_4  and  C_5
REMARK    3  A    between atoms: C_5  and  C_6
REMARK    4  A    between atoms: C_5  and  C_7
REMARK    5  A    between atoms: C_5  and  C_8
REMARK    6  A    between atoms: N_10  and  C_11
REMARK    7  A    between atoms: C_13  and  C_14
REMARK    8  A    between atoms: C_19  and  C_20
REMARK    9  A    between atoms: N_22  and  C_23
REMARK                            x       y       z     vdW  Elec       q    Type
REMARK                         _______ _______ _______ _____ _____    ______ ____
ROOT
ATOM      1  C   UNL     1       1.125   8.994  18.689  0.00  0.00    +0.000 A 
ATOM      2  C   UNL     1       1.852   8.338  17.727  0.00  0.00    +0.000 A 
ATOM      3  C   UNL     1       2.637   7.379  18.417  0.00  0.00    +0.000 A 
ATOM      4  N   UNL     1       2.446   7.483  19.741  0.00  0.00    +0.000 NA
ATOM      5  N   UNL     1       1.512   8.436  19.879  0.00  0.00    +0.000 N 
ATOM      6  C   UNL     1       0.993   8.717  21.196  0.00  0.00    +0.000 C 
ENDROOT
BRANCH   3   7
ATOM      7  C   UNL     1       3.549   6.400  17.815  0.00  0.00    +0.000 A 
ATOM      8  C   UNL     1       4.804   6.853  17.361  0.00  0.00    +0.000 A 
ATOM      9  C   UNL     1       5.708   5.980  16.757  0.00  0.00    +0.000 A 
ATOM     10  C   UNL     1       5.374   4.640  16.607  0.00  0.00    +0.000 A 
ATOM     11  C   UNL     1       4.134   4.175  17.044  0.00  0.00    +0.000 A 
ATOM     12  C   UNL     1       3.203   5.044  17.642  0.00  0.00    +0.000 A 
ATOM     13  C   UNL     1       1.863   4.486  18.041  0.00  0.00    +0.000 C 
ENDBRANCH   3   7
BRANCH   1  16
ATOM     14  C   UNL     1       0.517  11.409  18.627  0.00  0.00    +0.000 C 
ATOM     15  O   UNL     1       1.688  11.774  18.637  0.00  0.00    +0.000 OA
ATOM     16  N   UNL     1       0.207  10.012  18.514  0.00  0.00    +0.000 N 
ATOM     17  H   UNL     1      -0.747   9.761  18.248  0.00  0.00    +0.000 HD
BRANCH  14  18
ATOM     18  C   UNL     1      -0.686  12.396  18.560  0.00  0.00    +0.000 C 
ATOM     19  C   UNL     1      -0.125  13.821  18.664  0.00  0.00    +0.000 C 
ATOM     20  C   UNL     1      -1.562  12.121  19.798  0.00  0.00    +0.000 C 
BRANCH  18  24
ATOM     21  C   UNL     1      -3.088  11.211  15.790  0.00  0.00    +0.000 C 
ATOM     22  C   UNL     1      -2.341  11.144  17.091  0.00  0.00    +0.000 C 
ATOM     23  O   UNL     1      -2.524  10.253  17.915  0.00  0.00    +0.000 OA
ATOM     24  N   UNL     1      -1.537  12.224  17.350  0.00  0.00    +0.000 N 
ATOM     25  H   UNL     1      -1.375  12.868  16.582  0.00  0.00    +0.000 HD
ENDBRANCH  18  24
ENDBRANCH  14  18
ENDBRANCH   1  16
TORSDOF 4
ENDMDL
MODEL 2
REMARK VINA RESULT:      -7.5      1.083      1.111
REMARK  Name = 
REMARK  9 active torsions:
REMARK  status: ('A' for Active; 'I' for Inactive)
REMARK    1  A    between atoms: C_1  and  C_2
REMARK    2  A    between atoms: N_4  and  C_5
REMARK    3  A    between atoms: C_5  and  C_6
REMARK    4  A    between atoms: C_5  and  C_7
REMARK    5  A    between atoms: C_5  and  C_8
REMARK    6  A    between atoms: N_10  and  C_11
REMARK    7  A    between atoms: C_13  and  C_14
REMARK    8  A    between atoms: C_19  and  C_20
REMARK    9  A    between atoms: N_22  and  C_23
REMARK                            x       y       z     vdW  Elec       q    Type
REMARK                         _______ _______ _______ _____ _____    ______ ____
ROOT
ATOM      1  C   UNL     1       1.372   9.153  18.524  0.00  0.00    +0.000 A 
ATOM      2  C   UNL     1       2.018   8.363  17.605  0.00  0.00    +0.000 A 
ATOM      3  C   UNL     1       2.641   7.329  18.350  0.00  0.00    +0.000 A 
ATOM      4  N   UNL     1       2.438   7.510  19.663  0.00  0.00    +0.000 NA
ATOM      5  N   UNL     1       1.649   8.592  19.742  0.00  0.00    +0.000 N 
ATOM      6  C   UNL     1       1.147   8.996  21.034  0.00  0.00    +0.000 C 
ENDROOT
BRANCH   3   7
ATOM      7  C   UNL     1       3.415   6.207  17.807  0.00  0.00    +0.000 A 
ATOM      8  C   UNL     1       4.700   6.473  17.293  0.00  0.00    +0.000 A 
ATOM      9  C   UNL     1       5.478   5.457  16.741  0.00  0.00    +0.000 A 
ATOM     10  C   UNL     1       4.987   4.159  16.702  0.00  0.00    +0.000 A 
ATOM     11  C   UNL     1       3.715   3.877  17.201  0.00  0.00    +0.000 A 
ATOM     12  C   UNL     1       2.909   4.892  17.748  0.00  0.00    +0.000 A 
ATOM     13  C   UNL     1       1.526   4.527  18.217  0.00  0.00    +0.000 C 
ENDBRANCH   3   7
BRANCH   1  16
ATOM     14  C   UNL     1      -0.774  10.415  18.628  0.00  0.00    +0.000 C 
ATOM     15  O   UNL     1      -1.294   9.601  19.385  0.00  0.00    +0.000 OA
ATOM     16  N   UNL     1       0.614  10.285  18.288  0.00  0.00    +0.000 N 
ATOM     17  H   UNL     1       1.078  11.099  17.880  0.00  0.00    +0.000 HD
BRANCH  14  18
ATOM     18  C   UNL     1      -1.495  11.702  18.132  0.00  0.00    +0.000 C 
ATOM     19  C   UNL     1      -0.506  12.869  18.264  0.00  0.00    +0.000 C 
ATOM     20  C   UNL     1      -2.679  11.951  19.086  0.00  0.00    +0.000 C 
BRANCH  18  24
ATOM     21  C   UNL     1      -3.205  10.679  14.834  0.00  0.00    +0.000 C 
ATOM     22  C   UNL     1      -2.793  10.552  16.273  0.00  0.00    +0.000 C 
ATOM     23  O   UNL     1      -3.200   9.652  17.002  0.00  0.00    +0.000 OA
ATOM     24  N   UNL     1      -2.038  11.592  16.749  0.00  0.00    +0.000 N 
ATOM     25  H   UNL     1      -1.673  12.245  16.062  0.00  0.00    +0.000 HD
ENDBRANCH  18  24
ENDBRANCH  14  18
ENDBRANCH   1  16
TORSDOF 4
ENDMDL
MODEL 3
REMARK VINA RESULT:      -7.3      1.465      2.395
REMARK  Name = 
REMARK  9 active torsions:
REMARK  status: ('A' for Active; 'I' for Inactive)
REMARK    1  A    between atoms: C_1  and  C_2
REMARK    2  A    between atoms: N_4  and  C_5
REMARK    3  A    between atoms: C_5  and  C_6
REMARK    4  A    between atoms: C_5  and  C_7
REMARK    5  A    between atoms: C_5  and  C_8
REMARK    6  A    between atoms: N_10  and  C_11
REMARK    7  A    between atoms: C_13  and  C_14
REMARK    8  A    between atoms: C_19  and  C_20
REMARK    9  A    between atoms: N_22  and  C_23
REMARK                            x       y       z     vdW  Elec       q    Type
REMARK                         _______ _______ _______ _____ _____    ______ ____
ROOT
ATOM      1  C   UNL     1       1.255   8.956  19.008  0.00  0.00    +0.000 A 
ATOM      2  C   UNL     1       1.900   8.359  17.953  0.00  0.00    +0.000 A 
ATOM      3  C   UNL     1       2.636   7.279  18.505  0.00  0.00    +0.000 A 
ATOM      4  N   UNL     1       2.497   7.252  19.839  0.00  0.00    +0.000 NA
ATOM      5  N   UNL     1       1.641   8.247  20.114  0.00  0.00    +0.000 N 
ATOM      6  C   UNL     1       1.188   8.420  21.474  0.00  0.00    +0.000 C 
ENDROOT
BRANCH   3   7
ATOM      7  C   UNL     1       3.454   6.311  17.766  0.00  0.00    +0.000 A 
ATOM      8  C   UNL     1       4.619   6.777  17.125  0.00  0.00    +0.000 A 
ATOM      9  C   UNL     1       5.427   5.914  16.386  0.00  0.00    +0.000 A 
ATOM     10  C   UNL     1       5.087   4.572  16.285  0.00  0.00    +0.000 A 
ATOM     11  C   UNL     1       3.935   4.093  16.907  0.00  0.00    +0.000 A 
ATOM     12  C   UNL     1       3.098   4.952  17.644  0.00  0.00    +0.000 A 
ATOM     13  C   UNL     1       1.841   4.379  18.243  0.00  0.00    +0.000 C 
ENDBRANCH   3   7
BRANCH   1  16
ATOM     14  C   UNL     1       0.847  11.409  18.855  0.00  0.00    +0.000 C 
ATOM     15  O   UNL     1       2.001  11.648  18.512  0.00  0.00    +0.000 OA
ATOM     16  N   UNL     1       0.408  10.047  18.978  0.00  0.00    +0.000 N 
ATOM     17  H   UNL     1      -0.599   9.877  19.007  0.00  0.00    +0.000 HD
BRANCH  14  18
ATOM     18  C   UNL     1      -0.244  12.508  19.010  0.00  0.00    +0.000 C 
ATOM     19  C   UNL     1      -1.285  12.288  17.905  0.00  0.00    +0.000 C 
ATOM     20  C   UNL     1       0.448  13.865  18.771  0.00  0.00    +0.000 C 
BRANCH  18  24
ATOM     21  C   UNL     1      -1.108  12.335  22.761  0.00  0.00    +0.000 C 
ATOM     22  C   UNL     1      -0.245  12.226  21.537  0.00  0.00    +0.000 C 
ATOM     23  O   UNL     1       0.958  11.986  21.593  0.00  0.00    +0.000 OA
ATOM     24  N   UNL     1      -0.871  12.547  20.360  0.00  0.00    +0.000 N 
ATOM     25  H   UNL     1      -1.882  12.645  20.392  0.00  0.00    +0.000 HD
ENDBRANCH  18  24
ENDBRANCH  14  18
ENDBRANCH   1  16
TORSDOF 4
ENDMDL
MODEL 4
REMARK VINA RESULT:      -7.3      3.792      7.989
REMARK  Name = 
REMARK  9 active torsions:
REMARK  status: ('A' for Active; 'I' for Inactive)
REMARK    1  A    between atoms: C_1  and  C_2
REMARK    2  A    between atoms: N_4  and  C_5
REMARK    3  A    between atoms: C_5  and  C_6
REMARK    4  A    between atoms: C_5  and  C_7
REMARK    5  A    between atoms: C_5  and  C_8
REMARK    6  A    between atoms: N_10  and  C_11
REMARK    7  A    between atoms: C_13  and  C_14
REMARK    8  A    between atoms: C_19  and  C_20
REMARK    9  A    between atoms: N_22  and  C_23
REMARK                            x       y       z     vdW  Elec       q    Type
REMARK                         _______ _______ _______ _____ _____    ______ ____
ROOT
ATOM      1  C   UNL     1       3.296   6.363  18.932  0.00  0.00    +0.000 A 
ATOM      2  C   UNL     1       2.803   7.631  19.116  0.00  0.00    +0.000 A 
ATOM      3  C   UNL     1       1.810   7.522  20.123  0.00  0.00    +0.000 A 
ATOM      4  N   UNL     1       1.659   6.241  20.494  0.00  0.00    +0.000 NA
ATOM      5  N   UNL     1       2.581   5.570  19.789  0.00  0.00    +0.000 N 
ATOM      6  C   UNL     1       2.759   4.159  20.040  0.00  0.00    +0.000 C 
ENDROOT
BRANCH   3   7
ATOM      7  C   UNL     1       1.027   8.619  20.700  0.00  0.00    +0.000 A 
ATOM      8  C   UNL     1       0.779   8.602  22.088  0.00  0.00    +0.000 A 
ATOM      9  C   UNL     1       0.022   9.602  22.696  0.00  0.00    +0.000 A 
ATOM     10  C   UNL     1      -0.493  10.638  21.928  0.00  0.00    +0.000 A 
ATOM     11  C   UNL     1      -0.264  10.669  20.552  0.00  0.00    +0.000 A 
ATOM     12  C   UNL     1       0.485   9.660  19.918  0.00  0.00    +0.000 A 
ATOM     13  C   UNL     1       0.646   9.727  18.423  0.00  0.00    +0.000 C 
ENDBRANCH   3   7
BRANCH   1  16
ATOM     14  C   UNL     1       5.638   5.664  18.451  0.00  0.00    +0.000 C 
ATOM     15  O   UNL     1       5.911   5.519  19.638  0.00  0.00    +0.000 OA
ATOM     16  N   UNL     1       4.288   5.955  18.060  0.00  0.00    +0.000 N 
ATOM     17  H   UNL     1       4.039   5.814  17.079  0.00  0.00    +0.000 HD
BRANCH  14  18
ATOM     18  C   UNL     1       6.649   5.382  17.301  0.00  0.00    +0.000 C 
ATOM     19  C   UNL     1       7.795   4.544  17.883  0.00  0.00    +0.000 C 
ATOM     20  C   UNL     1       7.214   6.745  16.855  0.00  0.00    +0.000 C 
BRANCH  18  24
ATOM     21  C   UNL     1       5.744   4.007  13.817  0.00  0.00    +0.000 C 
ATOM     22  C   UNL     1       6.568   4.727  14.845  0.00  0.00    +0.000 C 
ATOM     23  O   UNL     1       7.686   5.174  14.604  0.00  0.00    +0.000 OA
ATOM     24  N   UNL     1       6.038   4.730  16.110  0.00  0.00    +0.000 N 
ATOM     25  H   UNL     1       5.075   4.419  16.202  0.00  0.00    +0.000 HD
ENDBRANCH  18  24
ENDBRANCH  14  18
ENDBRANCH   1  16
TORSDOF 4
ENDMDL
MODEL 5
REMARK VINA RESULT:      -7.2      1.027      2.211
REMARK  Name = 
REMARK  9 active torsions:
REMARK  status: ('A' for Active; 'I' for Inactive)
REMARK    1  A    between atoms: C_1  and  C_2
REMARK    2  A    between atoms: N_4  and  C_5
REMARK    3  A    between atoms: C_5  and  C_6
REMARK    4  A    between atoms: C_5  and  C_7
REMARK    5  A    between atoms: C_5  and  C_8
REMARK    6  A    between atoms: N_10  and  C_11
REMARK    7  A    between atoms: C_13  and  C_14
REMARK    8  A    between atoms: C_19  and  C_20
REMARK    9  A    between atoms: N_22  and  C_23
REMARK                            x       y       z     vdW  Elec       q    Type
REMARK                         _______ _______ _______ _____ _____    ______ ____
ROOT
ATOM      1  C   UNL     1       1.064   9.354  18.496  0.00  0.00    +0.000 A 
ATOM      2  C   UNL     1       1.784   8.616  17.588  0.00  0.00    +0.000 A 
ATOM      3  C   UNL     1       2.472   7.632  18.344  0.00  0.00    +0.000 A 
ATOM      4  N   UNL     1       2.234   7.796  19.653  0.00  0.00    +0.000 NA
ATOM      5  N   UNL     1       1.363   8.814  19.719  0.00  0.00    +0.000 N 
ATOM      6  C   UNL     1       0.811   9.177  21.002  0.00  0.00    +0.000 C 
ENDROOT
BRANCH   3   7
ATOM      7  C   UNL     1       3.339   6.574  17.814  0.00  0.00    +0.000 A 
ATOM      8  C   UNL     1       4.573   6.948  17.245  0.00  0.00    +0.000 A 
ATOM      9  C   UNL     1       5.433   5.994  16.703  0.00  0.00    +0.000 A 
ATOM     10  C   UNL     1       5.076   4.652  16.728  0.00  0.00    +0.000 A 
ATOM     11  C   UNL     1       3.856   4.263  17.281  0.00  0.00    +0.000 A 
ATOM     12  C   UNL     1       2.968   5.213  17.820  0.00  0.00    +0.000 A 
ATOM     13  C   UNL     1       1.645   4.729  18.351  0.00  0.00    +0.000 C 
ENDBRANCH   3   7
BRANCH   1  16
ATOM     14  C   UNL     1      -1.206  10.334  18.187  0.00  0.00    +0.000 C 
ATOM     15  O   UNL     1      -1.771   9.330  18.610  0.00  0.00    +0.000 OA
ATOM     16  N   UNL     1       0.226  10.424  18.247  0.00  0.00    +0.000 N 
ATOM     17  H   UNL     1       0.645  11.349  18.137  0.00  0.00    +0.000 HD
BRANCH  14  18
ATOM     18  C   UNL     1      -1.964  11.614  17.730  0.00  0.00    +0.000 C 
ATOM     19  C   UNL     1      -3.213  11.754  18.610  0.00  0.00    +0.000 C 
ATOM     20  C   UNL     1      -2.412  11.375  16.275  0.00  0.00    +0.000 C 
BRANCH  18  24
ATOM     21  C   UNL     1       0.187  14.681  18.630  0.00  0.00    +0.000 C 
ATOM     22  C   UNL     1      -0.609  13.432  18.880  0.00  0.00    +0.000 C 
ATOM     23  O   UNL     1      -0.688  12.907  19.986  0.00  0.00    +0.000 OA
ATOM     24  N   UNL     1      -1.130  12.848  17.754  0.00  0.00    +0.000 N 
ATOM     25  H   UNL     1      -1.095  13.392  16.898  0.00  0.00    +0.000 HD
ENDBRANCH  18  24
ENDBRANCH  14  18
ENDBRANCH   1  16
TORSDOF 4
ENDMDL
MODEL 6
REMARK VINA RESULT:      -7.2      2.217      3.633
REMARK  Name = 
REMARK  9 active torsions:
REMARK  status: ('A' for Active; 'I' for Inactive)
REMARK    1  A    between atoms: C_1  and  C_2
REMARK    2  A    between atoms: N_4  and  C_5
REMARK    3  A    between atoms: C_5  and  C_6
REMARK    4  A    between atoms: C_5  and  C_7
REMARK    5  A    between atoms: C_5  and  C_8
REMARK    6  A    between atoms: N_10  and  C_11
REMARK    7  A    between atoms: C_13  and  C_14
REMARK    8  A    between atoms: C_19  and  C_20
REMARK    9  A    between atoms: N_22  and  C_23
REMARK                            x       y       z     vdW  Elec       q    Type
REMARK                         _______ _______ _______ _____ _____    ______ ____
ROOT
ATOM      1  C   UNL     1       2.583   7.030  19.173  0.00  0.00    +0.000 A 
ATOM      2  C   UNL     1       3.564   7.046  18.212  0.00  0.00    +0.000 A 
ATOM      3  C   UNL     1       4.083   5.727  18.162  0.00  0.00    +0.000 A 
ATOM      4  N   UNL     1       3.493   4.956  19.087  0.00  0.00    +0.000 NA
ATOM      5  N   UNL     1       2.576   5.749  19.660  0.00  0.00    +0.000 N 
ATOM      6  C   UNL     1       1.678   5.183  20.638  0.00  0.00    +0.000 C 
ENDROOT
BRANCH   3   7
ATOM      7  C   UNL     1       5.123   5.232  17.254  0.00  0.00    +0.000 A 
ATOM      8  C   UNL     1       4.730   4.767  15.983  0.00  0.00    +0.000 A 
ATOM      9  C   UNL     1       5.666   4.261  15.081  0.00  0.00    +0.000 A 
ATOM     10  C   UNL     1       7.008   4.221  15.433  0.00  0.00    +0.000 A 
ATOM     11  C   UNL     1       7.416   4.672  16.689  0.00  0.00    +0.000 A 
ATOM     12  C   UNL     1       6.485   5.171  17.618  0.00  0.00    +0.000 A 
ATOM     13  C   UNL     1       6.987   5.588  18.974  0.00  0.00    +0.000 C 
ENDBRANCH   3   7
BRANCH   1  16
ATOM     14  C   UNL     1       1.445   9.209  18.769  0.00  0.00    +0.000 C 
ATOM     15  O   UNL     1       1.660   9.174  17.561  0.00  0.00    +0.000 OA
ATOM     16  N   UNL     1       1.778   8.075  19.584  0.00  0.00    +0.000 N 
ATOM     17  H   UNL     1       1.360   8.025  20.515  0.00  0.00    +0.000 HD
BRANCH  14  18
ATOM     18  C   UNL     1       0.664  10.361  19.466  0.00  0.00    +0.000 C 
ATOM     19  C   UNL     1      -0.769  10.350  18.918  0.00  0.00    +0.000 C 
ATOM     20  C   UNL     1       1.341  11.681  19.045  0.00  0.00    +0.000 C 
BRANCH  18  24
ATOM     21  C   UNL     1       0.188   9.534  23.199  0.00  0.00    +0.000 C 
ATOM     22  C   UNL     1       0.002   9.381  21.716  0.00  0.00    +0.000 C 
ATOM     23  O   UNL     1      -0.616   8.444  21.219  0.00  0.00    +0.000 OA
ATOM     24  N   UNL     1       0.688  10.290  20.953  0.00  0.00    +0.000 N 
ATOM     25  H   UNL     1       1.099  11.080  21.442  0.00  0.00    +0.000 HD
ENDBRANCH  18  24
ENDBRANCH  14  18
ENDBRANCH   1  16
TORSDOF 4
ENDMDL
MODEL 7
REMARK VINA RESULT:      -7.2      1.038      1.785
REMARK  Name = 
REMARK  9 active torsions:
REMARK  status: ('A' for Active; 'I' for Inactive)
REMARK    1  A    between atoms: C_1  and  C_2
REMARK    2  A    between atoms: N_4  and  C_5
REMARK    3  A    between atoms: C_5  and  C_6
REMARK    4  A    between atoms: C_5  and  C_7
REMARK    5  A    between atoms: C_5  and  C_8
REMARK    6  A    between atoms: N_10  and  C_11
REMARK    7  A    between atoms: C_13  and  C_14
REMARK    8  A    between atoms: C_19  and  C_20
REMARK    9  A    between atoms: N_22  and  C_23
REMARK                            x       y       z     vdW  Elec       q    Type
REMARK                         _______ _______ _______ _____ _____    ______ ____
ROOT
ATOM      1  C   UNL     1       1.384   9.024  18.721  0.00  0.00    +0.000 A 
ATOM      2  C   UNL     1       1.818   8.117  17.786  0.00  0.00    +0.000 A 
ATOM      3  C   UNL     1       2.392   7.046  18.519  0.00  0.00    +0.000 A 
ATOM      4  N   UNL     1       2.366   7.312  19.834  0.00  0.00    +0.000 NA
ATOM      5  N   UNL     1       1.729   8.488  19.933  0.00  0.00    +0.000 N 
ATOM      6  C   UNL     1       1.433   9.011  21.246  0.00  0.00    +0.000 C 
ENDROOT
BRANCH   3   7
ATOM      7  C   UNL     1       2.956   5.811  17.963  0.00  0.00    +0.000 A 
ATOM      8  C   UNL     1       2.179   4.637  18.030  0.00  0.00    +0.000 A 
ATOM      9  C   UNL     1       2.665   3.425  17.542  0.00  0.00    +0.000 A 
ATOM     10  C   UNL     1       3.931   3.370  16.973  0.00  0.00    +0.000 A 
ATOM     11  C   UNL     1       4.717   4.520  16.904  0.00  0.00    +0.000 A 
ATOM     12  C   UNL     1       4.250   5.750  17.405  0.00  0.00    +0.000 A 
ATOM     13  C   UNL     1       5.172   6.938  17.348  0.00  0.00    +0.000 C 
ENDBRANCH   3   7
BRANCH   1  16
ATOM     14  C   UNL     1      -0.605  10.515  18.888  0.00  0.00    +0.000 C 
ATOM     15  O   UNL     1      -1.185   9.767  19.670  0.00  0.00    +0.000 OA
ATOM     16  N   UNL     1       0.748  10.232  18.502  0.00  0.00    +0.000 N 
ATOM     17  H   UNL     1       1.284  10.988  18.072  0.00  0.00    +0.000 HD
BRANCH  14  18
ATOM     18  C   UNL     1      -1.196  11.872  18.406  0.00  0.00    +0.000 C 
ATOM     19  C   UNL     1      -0.070  12.913  18.452  0.00  0.00    +0.000 C 
ATOM     20  C   UNL     1      -2.281  12.277  19.424  0.00  0.00    +0.000 C 
BRANCH  18  24
ATOM     21  C   UNL     1      -3.200  10.998  15.234  0.00  0.00    +0.000 C 
ATOM     22  C   UNL     1      -2.713  10.841  16.645  0.00  0.00    +0.000 C 
ATOM     23  O   UNL     1      -3.156   9.987  17.408  0.00  0.00    +0.000 OA
ATOM     24  N   UNL     1      -1.833  11.807  17.062  0.00  0.00    +0.000 N 
ATOM     25  H   UNL     1      -1.453  12.418  16.346  0.00  0.00    +0.000 HD
ENDBRANCH  18  24
ENDBRANCH  14  18
ENDBRANCH   1  16
TORSDOF 4
ENDMDL
MODEL 8
REMARK VINA RESULT:      -7.2      2.758      4.062
REMARK  Name = 
REMARK  9 active torsions:
REMARK  status: ('A' for Active; 'I' for Inactive)
REMARK    1  A    between atoms: C_1  and  C_2
REMARK    2  A    between atoms: N_4  and  C_5
REMARK    3  A    between atoms: C_5  and  C_6
REMARK    4  A    between atoms: C_5  and  C_7
REMARK    5  A    between atoms: C_5  and  C_8
REMARK    6  A    between atoms: N_10  and  C_11
REMARK    7  A    between atoms: C_13  and  C_14
REMARK    8  A    between atoms: C_19  and  C_20
REMARK    9  A    between atoms: N_22  and  C_23
REMARK                            x       y       z     vdW  Elec       q    Type
REMARK                         _______ _______ _______ _____ _____    ______ ____
ROOT
ATOM      1  C   UNL     1       2.461   6.046  20.003  0.00  0.00    +0.000 A 
ATOM      2  C   UNL     1       3.531   6.308  19.183  0.00  0.00    +0.000 A 
ATOM      3  C   UNL     1       3.915   5.059  18.631  0.00  0.00    +0.000 A 
ATOM      4  N   UNL     1       3.157   4.072  19.133  0.00  0.00    +0.000 NA
ATOM      5  N   UNL     1       2.272   4.691  19.929  0.00  0.00    +0.000 N 
ATOM      6  C   UNL     1       1.226   3.912  20.546  0.00  0.00    +0.000 C 
ENDROOT
BRANCH   3   7
ATOM      7  C   UNL     1       4.986   4.827  17.656  0.00  0.00    +0.000 A 
ATOM      8  C   UNL     1       4.629   4.370  16.372  0.00  0.00    +0.000 A 
ATOM      9  C   UNL     1       5.600   4.107  15.406  0.00  0.00    +0.000 A 
ATOM     10  C   UNL     1       6.941   4.306  15.708  0.00  0.00    +0.000 A 
ATOM     11  C   UNL     1       7.314   4.751  16.975  0.00  0.00    +0.000 A 
ATOM     12  C   UNL     1       6.350   5.007  17.968  0.00  0.00    +0.000 A 
ATOM     13  C   UNL     1       6.827   5.433  19.331  0.00  0.00    +0.000 C 
ENDBRANCH   3   7
BRANCH   1  16
ATOM     14  C   UNL     1       1.446   8.293  20.362  0.00  0.00    +0.000 C 
ATOM     15  O   UNL     1       1.630   8.637  19.199  0.00  0.00    +0.000 OA
ATOM     16  N   UNL     1       1.730   6.943  20.759  0.00  0.00    +0.000 N 
ATOM     17  H   UNL     1       1.331   6.616  21.641  0.00  0.00    +0.000 HD
BRANCH  14  18
ATOM     18  C   UNL     1       0.752   9.198  21.422  0.00  0.00    +0.000 C 
ATOM     19  C   UNL     1       1.636   9.207  22.676  0.00  0.00    +0.000 C 
ATOM     20  C   UNL     1      -0.592   8.529  21.772  0.00  0.00    +0.000 C 
BRANCH  18  24
ATOM     21  C   UNL     1      -0.324  12.867  20.945  0.00  0.00    +0.000 C 
ATOM     22  C   UNL     1      -0.137  11.566  21.673  0.00  0.00    +0.000 C 
ATOM     23  O   UNL     1      -0.390  11.433  22.867  0.00  0.00    +0.000 OA
ATOM     24  N   UNL     1       0.464  10.577  20.939  0.00  0.00    +0.000 N 
ATOM     25  H   UNL     1       0.557  10.740  19.941  0.00  0.00    +0.000 HD
ENDBRANCH  18  24
ENDBRANCH  14  18
ENDBRANCH   1  16
TORSDOF 4
ENDMDL
MODEL 9
REMARK VINA RESULT:      -7.1      2.968      7.997
REMARK  Name = 
REMARK  9 active torsions:
REMARK  status: ('A' for Active; 'I' for Inactive)
REMARK    1  A    between atoms: C_1  and  C_2
REMARK    2  A    between atoms: N_4  and  C_5
REMARK    3  A    between atoms: C_5  and  C_6
REMARK    4  A    between atoms: C_5  and  C_7
REMARK    5  A    between atoms: C_5  and  C_8
REMARK    6  A    between atoms: N_10  and  C_11
REMARK    7  A    between atoms: C_13  and  C_14
REMARK    8  A    between atoms: C_19  and  C_20
REMARK    9  A    between atoms: N_22  and  C_23
REMARK                            x       y       z     vdW  Elec       q    Type
REMARK                         _______ _______ _______ _____ _____    ______ ____
ROOT
ATOM      1  C   UNL     1       2.514   6.844  19.415  0.00  0.00    +0.000 A 
ATOM      2  C   UNL     1       1.805   7.220  20.528  0.00  0.00    +0.000 A 
ATOM      3  C   UNL     1       1.343   8.537  20.270  0.00  0.00    +0.000 A 
ATOM      4  N   UNL     1       1.797   8.968  19.084  0.00  0.00    +0.000 NA
ATOM      5  N   UNL     1       2.471   7.925  18.575  0.00  0.00    +0.000 N 
ATOM      6  C   UNL     1       3.000   8.024  17.236  0.00  0.00    +0.000 C 
ENDROOT
BRANCH   3   7
ATOM      7  C   UNL     1       0.498   9.353  21.147  0.00  0.00    +0.000 A 
ATOM      8  C   UNL     1       0.515   9.080  22.530  0.00  0.00    +0.000 A 
ATOM      9  C   UNL     1      -0.282   9.803  23.416  0.00  0.00    +0.000 A 
ATOM     10  C   UNL     1      -1.103  10.814  22.934  0.00  0.00    +0.000 A 
ATOM     11  C   UNL     1      -1.139  11.095  21.569  0.00  0.00    +0.000 A 
ATOM     12  C   UNL     1      -0.353  10.366  20.657  0.00  0.00    +0.000 A 
ATOM     13  C   UNL     1      -0.482  10.685  19.192  0.00  0.00    +0.000 C 
ENDBRANCH   3   7
BRANCH   1  16
ATOM     14  C   UNL     1       2.610   4.574  18.390  0.00  0.00    +0.000 C 
ATOM     15  O   UNL     1       1.642   4.786  17.666  0.00  0.00    +0.000 OA
ATOM     16  N   UNL     1       3.155   5.641  19.181  0.00  0.00    +0.000 N 
ATOM     17  H   UNL     1       4.094   5.514  19.563  0.00  0.00    +0.000 HD
BRANCH  14  18
ATOM     18  C   UNL     1       3.407   3.237  18.383  0.00  0.00    +0.000 C 
ATOM     19  C   UNL     1       2.391   2.089  18.431  0.00  0.00    +0.000 C 
ATOM     20  C   UNL     1       4.245   3.207  19.677  0.00  0.00    +0.000 C 
BRANCH  18  24
ATOM     21  C   UNL     1       5.991   3.699  15.562  0.00  0.00    +0.000 C 
ATOM     22  C   UNL     1       5.152   4.093  16.743  0.00  0.00    +0.000 C 
ATOM     23  O   UNL     1       5.269   5.178  17.307  0.00  0.00    +0.000 OA
ATOM     24  N   UNL     1       4.341   3.101  17.231  0.00  0.00    +0.000 N 
ATOM     25  H   UNL     1       4.239   2.270  16.656  0.00  0.00    +0.000 HD
ENDBRANCH  18  24
ENDBRANCH  14  18
ENDBRANCH   1  16
TORSDOF 4
ENDMDL
