MODEL 1
REMARK VINA RESULT:      -6.6      0.000      0.000
REMARK  Name = 
REMARK  5 active torsions:
REMARK  status: ('A' for Active; 'I' for Inactive)
REMARK    1  A    between atoms: C_1  and  C_2
REMARK    2  A    between atoms: C_2  and  C_3
REMARK    3  A    between atoms: C_3  and  C_4
REMARK    4  A    between atoms: C_4  and  N_5
REMARK    5  A    between atoms: C_8  and  C_9
REMARK                            x       y       z     vdW  Elec       q    Type
REMARK                         _______ _______ _______ _____ _____    ______ ____
ROOT
ATOM      1  N   UNL     1       6.651   5.557  17.324  0.00  0.00    +0.000 NA
ATOM      2  C   UNL     1       6.456   5.493  18.783  0.00  0.00    +0.000 C 
ATOM      3  C   UNL     1       5.195   4.834  19.258  0.00  0.00    +0.000 C 
ATOM      4  C   UNL     1       4.248   4.367  18.430  0.00  0.00    +0.000 C 
ATOM      5  C   UNL     1       4.422   4.461  16.945  0.00  0.00    +0.000 C 
ATOM      6  C   UNL     1       5.377   5.609  16.583  0.00  0.00    +0.000 C 
ENDROOT
BRANCH   4   7
ATOM      7  C   UNL     1       2.992   3.848  18.969  0.00  0.00    +0.000 A 
ATOM      8  C   UNL     1       2.198   2.995  18.190  0.00  0.00    +0.000 A 
ATOM      9  C   UNL     1       0.971   2.536  18.674  0.00  0.00    +0.000 A 
ATOM     10  C   UNL     1       0.533   2.926  19.938  0.00  0.00    +0.000 A 
ATOM     11  C   UNL     1       1.319   3.774  20.719  0.00  0.00    +0.000 A 
ATOM     12  C   UNL     1       2.545   4.235  20.235  0.00  0.00    +0.000 A 
ENDBRANCH   4   7
BRANCH   1  13
ATOM     13  C   UNL     1       7.483   6.717  16.951  0.00  0.00    +0.000 C 
BRANCH  13  14
ATOM     14  C   UNL     1       8.025   7.532  18.134  0.00  0.00    +0.000 C 
BRANCH  14  16
ATOM     15  C   UNL     1       8.970   9.748  18.846  0.00  0.00    +0.000 C 
ATOM     16  C   UNL     1       8.063   9.033  17.857  0.00  0.00    +0.000 C 
ENDBRANCH  14  16
ENDBRANCH  13  14
ENDBRANCH   1  13
TORSDOF 4
ENDMDL
MODEL 2
REMARK VINA RESULT:      -6.6      2.652      6.682
REMARK  Name = 
REMARK  5 active torsions:
REMARK  status: ('A' for Active; 'I' for Inactive)
REMARK    1  A    between atoms: C_1  and  C_2
REMARK    2  A    between atoms: C_2  and  C_3
REMARK    3  A    between atoms: C_3  and  C_4
REMARK    4  A    between atoms: C_4  and  N_5
REMARK    5  A    between atoms: C_8  and  C_9
REMARK                            x       y       z     vdW  Elec       q    Type
REMARK                         _______ _______ _______ _____ _____    ______ ____
ROOT
ATOM      1  N   UNL     1       4.105   5.168  18.422  0.00  0.00    +0.000 NA
ATOM      2  C   UNL     1       4.175   3.815  17.844  0.00  0.00    +0.000 C 
ATOM      3  C   UNL     1       4.927   3.680  16.552  0.00  0.00    +0.000 C 
ATOM      4  C   UNL     1       5.471   4.721  15.902  0.00  0.00    +0.000 C 
ATOM      5  C   UNL     1       5.372   6.106  16.465  0.00  0.00    +0.000 C 
ATOM      6  C   UNL     1       4.156   6.227  17.396  0.00  0.00    +0.000 C 
ENDROOT
BRANCH   4   7
ATOM      7  C   UNL     1       6.082   4.527  14.587  0.00  0.00    +0.000 A 
ATOM      8  C   UNL     1       7.235   5.244  14.242  0.00  0.00    +0.000 A 
ATOM      9  C   UNL     1       7.797   5.107  12.971  0.00  0.00    +0.000 A 
ATOM     10  C   UNL     1       7.209   4.253  12.040  0.00  0.00    +0.000 A 
ATOM     11  C   UNL     1       6.061   3.535  12.379  0.00  0.00    +0.000 A 
ATOM     12  C   UNL     1       5.498   3.673  13.649  0.00  0.00    +0.000 A 
ENDBRANCH   4   7
BRANCH   1  13
ATOM     13  C   UNL     1       2.887   5.334  19.237  0.00  0.00    +0.000 C 
BRANCH  13  14
ATOM     14  C   UNL     1       1.807   4.266  19.011  0.00  0.00    +0.000 C 
BRANCH  14  16
ATOM     15  C   UNL     1       1.760   3.221  21.296  0.00  0.00    +0.000 C 
ATOM     16  C   UNL     1       0.965   3.996  20.257  0.00  0.00    +0.000 C 
ENDBRANCH  14  16
ENDBRANCH  13  14
ENDBRANCH   1  13
TORSDOF 4
ENDMDL
MODEL 3
REMARK VINA RESULT:      -6.4      2.515      4.172
REMARK  Name = 
REMARK  5 active torsions:
REMARK  status: ('A' for Active; 'I' for Inactive)
REMARK    1  A    between atoms: C_1  and  C_2
REMARK    2  A    between atoms: C_2  and  C_3
REMARK    3  A    between atoms: C_3  and  C_4
REMARK    4  A    between atoms: C_4  and  N_5
REMARK    5  A    between atoms: C_8  and  C_9
REMARK                            x       y       z     vdW  Elec       q    Type
REMARK                         _______ _______ _______ _____ _____    ______ ____
ROOT
ATOM      1  N   UNL     1       6.182   4.880  15.655  0.00  0.00    +0.000 NA
ATOM      2  C   UNL     1       5.315   6.042  15.917  0.00  0.00    +0.000 C 
ATOM      3  C   UNL     1       4.320   5.893  17.030  0.00  0.00    +0.000 C 
ATOM      4  C   UNL     1       4.162   4.761  17.733  0.00  0.00    +0.000 C 
ATOM      5  C   UNL     1       5.015   3.562  17.447  0.00  0.00    +0.000 C 
ATOM      6  C   UNL     1       5.536   3.600  16.003  0.00  0.00    +0.000 C 
ENDROOT
BRANCH   4   7
ATOM      7  C   UNL     1       3.088   4.653  18.720  0.00  0.00    +0.000 A 
ATOM      8  C   UNL     1       2.222   3.552  18.691  0.00  0.00    +0.000 A 
ATOM      9  C   UNL     1       1.161   3.465  19.595  0.00  0.00    +0.000 A 
ATOM     10  C   UNL     1       0.962   4.477  20.531  0.00  0.00    +0.000 A 
ATOM     11  C   UNL     1       1.822   5.576  20.566  0.00  0.00    +0.000 A 
ATOM     12  C   UNL     1       2.881   5.664  19.662  0.00  0.00    +0.000 A 
ENDBRANCH   4   7
BRANCH   1  13
ATOM     13  C   UNL     1       6.609   4.846  14.243  0.00  0.00    +0.000 C 
BRANCH  13  14
ATOM     14  C   UNL     1       5.743   3.969  13.326  0.00  0.00    +0.000 C 
BRANCH  14  16
ATOM     15  C   UNL     1       5.779   2.211  11.532  0.00  0.00    +0.000 C 
ATOM     16  C   UNL     1       6.524   3.381  12.152  0.00  0.00    +0.000 C 
ENDBRANCH  14  16
ENDBRANCH  13  14
ENDBRANCH   1  13
TORSDOF 4
ENDMDL
MODEL 4
REMARK VINA RESULT:      -6.3      2.393      3.726
REMARK  Name = 
REMARK  5 active torsions:
REMARK  status: ('A' for Active; 'I' for Inactive)
REMARK    1  A    between atoms: C_1  and  C_2
REMARK    2  A    between atoms: C_2  and  C_3
REMARK    3  A    between atoms: C_3  and  C_4
REMARK    4  A    between atoms: C_4  and  N_5
REMARK    5  A    between atoms: C_8  and  C_9
REMARK                            x       y       z     vdW  Elec       q    Type
REMARK                         _______ _______ _______ _____ _____    ______ ____
ROOT
ATOM      1  N   UNL     1       6.033   5.249  16.691  0.00  0.00    +0.000 NA
ATOM      2  C   UNL     1       4.637   4.989  16.299  0.00  0.00    +0.000 C 
ATOM      3  C   UNL     1       3.698   4.595  17.401  0.00  0.00    +0.000 C 
ATOM      4  C   UNL     1       4.085   4.427  18.675  0.00  0.00    +0.000 C 
ATOM      5  C   UNL     1       5.511   4.654  19.075  0.00  0.00    +0.000 C 
ATOM      6  C   UNL     1       6.447   4.468  17.871  0.00  0.00    +0.000 C 
ENDROOT
BRANCH   4   7
ATOM      7  C   UNL     1       3.137   3.924  19.669  0.00  0.00    +0.000 A 
ATOM      8  C   UNL     1       3.548   2.960  20.600  0.00  0.00    +0.000 A 
ATOM      9  C   UNL     1       2.638   2.434  21.519  0.00  0.00    +0.000 A 
ATOM     10  C   UNL     1       1.314   2.868  21.513  0.00  0.00    +0.000 A 
ATOM     11  C   UNL     1       0.899   3.829  20.590  0.00  0.00    +0.000 A 
ATOM     12  C   UNL     1       1.808   4.354  19.669  0.00  0.00    +0.000 A 
ENDBRANCH   4   7
BRANCH   1  13
ATOM     13  C   UNL     1       6.957   4.975  15.573  0.00  0.00    +0.000 C 
BRANCH  13  14
ATOM     14  C   UNL     1       6.418   4.006  14.511  0.00  0.00    +0.000 C 
BRANCH  14  16
ATOM     15  C   UNL     1       6.373   3.339  12.090  0.00  0.00    +0.000 C 
ATOM     16  C   UNL     1       6.843   4.380  13.092  0.00  0.00    +0.000 C 
ENDBRANCH  14  16
ENDBRANCH  13  14
ENDBRANCH   1  13
TORSDOF 4
ENDMDL
MODEL 5
REMARK VINA RESULT:      -6.3      2.365      3.550
REMARK  Name = 
REMARK  5 active torsions:
REMARK  status: ('A' for Active; 'I' for Inactive)
REMARK    1  A    between atoms: C_1  and  C_2
REMARK    2  A    between atoms: C_2  and  C_3
REMARK    3  A    between atoms: C_3  and  C_4
REMARK    4  A    between atoms: C_4  and  N_5
REMARK    5  A    between atoms: C_8  and  C_9
REMARK                            x       y       z     vdW  Elec       q    Type
REMARK                         _______ _______ _______ _____ _____    ______ ____
ROOT
ATOM      1  N   UNL     1       6.336   4.112  16.584  0.00  0.00    +0.000 NA
ATOM      2  C   UNL     1       6.499   4.694  17.928  0.00  0.00    +0.000 C 
ATOM      3  C   UNL     1       5.415   4.393  18.921  0.00  0.00    +0.000 C 
ATOM      4  C   UNL     1       4.316   3.683  18.622  0.00  0.00    +0.000 C 
ATOM      5  C   UNL     1       4.125   3.120  17.247  0.00  0.00    +0.000 C 
ATOM      6  C   UNL     1       4.920   3.931  16.213  0.00  0.00    +0.000 C 
ENDROOT
BRANCH   4   7
ATOM      7  C   UNL     1       3.246   3.535  19.608  0.00  0.00    +0.000 A 
ATOM      8  C   UNL     1       3.422   2.680  20.704  0.00  0.00    +0.000 A 
ATOM      9  C   UNL     1       2.389   2.490  21.624  0.00  0.00    +0.000 A 
ATOM     10  C   UNL     1       1.176   3.155  21.452  0.00  0.00    +0.000 A 
ATOM     11  C   UNL     1       0.995   4.009  20.364  0.00  0.00    +0.000 A 
ATOM     12  C   UNL     1       2.027   4.197  19.443  0.00  0.00    +0.000 A 
ENDBRANCH   4   7
BRANCH   1  13
ATOM     13  C   UNL     1       7.008   4.939  15.564  0.00  0.00    +0.000 C 
BRANCH  13  14
ATOM     14  C   UNL     1       6.262   5.052  14.228  0.00  0.00    +0.000 C 
BRANCH  14  16
ATOM     15  C   UNL     1       5.902   3.334  12.431  0.00  0.00    +0.000 C 
ATOM     16  C   UNL     1       6.914   4.242  13.109  0.00  0.00    +0.000 C 
ENDBRANCH  14  16
ENDBRANCH  13  14
ENDBRANCH   1  13
TORSDOF 4
ENDMDL
MODEL 6
REMARK VINA RESULT:      -6.3      0.978      1.580
REMARK  Name = 
REMARK  5 active torsions:
REMARK  status: ('A' for Active; 'I' for Inactive)
REMARK    1  A    between atoms: C_1  and  C_2
REMARK    2  A    between atoms: C_2  and  C_3
REMARK    3  A    between atoms: C_3  and  C_4
REMARK    4  A    between atoms: C_4  and  N_5
REMARK    5  A    between atoms: C_8  and  C_9
REMARK                            x       y       z     vdW  Elec       q    Type
REMARK                         _______ _______ _______ _____ _____    ______ ____
ROOT
ATOM      1  N   UNL     1       6.275   6.212  16.981  0.00  0.00    +0.000 NA
ATOM      2  C   UNL     1       6.345   4.792  17.370  0.00  0.00    +0.000 C 
ATOM      3  C   UNL     1       5.066   4.168  17.845  0.00  0.00    +0.000 C 
ATOM      4  C   UNL     1       3.916   4.847  17.973  0.00  0.00    +0.000 C 
ATOM      5  C   UNL     1       3.846   6.300  17.616  0.00  0.00    +0.000 C 
ATOM      6  C   UNL     1       5.233   6.951  17.719  0.00  0.00    +0.000 C 
ENDROOT
BRANCH   4   7
ATOM      7  C   UNL     1       2.742   4.199  18.558  0.00  0.00    +0.000 A 
ATOM      8  C   UNL     1       2.147   4.738  19.707  0.00  0.00    +0.000 A 
ATOM      9  C   UNL     1       1.059   4.099  20.304  0.00  0.00    +0.000 A 
ATOM     10  C   UNL     1       0.560   2.919  19.756  0.00  0.00    +0.000 A 
ATOM     11  C   UNL     1       1.147   2.378  18.612  0.00  0.00    +0.000 A 
ATOM     12  C   UNL     1       2.236   3.015  18.015  0.00  0.00    +0.000 A 
ENDBRANCH   4   7
BRANCH   1  13
ATOM     13  C   UNL     1       7.577   6.878  17.173  0.00  0.00    +0.000 C 
BRANCH  13  14
ATOM     14  C   UNL     1       7.495   8.357  17.576  0.00  0.00    +0.000 C 
BRANCH  14  16
ATOM     15  C   UNL     1       8.911  10.282  18.352  0.00  0.00    +0.000 C 
ATOM     16  C   UNL     1       8.640   8.792  18.488  0.00  0.00    +0.000 C 
ENDBRANCH  14  16
ENDBRANCH  13  14
ENDBRANCH   1  13
TORSDOF 4
ENDMDL
MODEL 7
REMARK VINA RESULT:      -6.3      1.727      6.388
REMARK  Name = 
REMARK  5 active torsions:
REMARK  status: ('A' for Active; 'I' for Inactive)
REMARK    1  A    between atoms: C_1  and  C_2
REMARK    2  A    between atoms: C_2  and  C_3
REMARK    3  A    between atoms: C_3  and  C_4
REMARK    4  A    between atoms: C_4  and  N_5
REMARK    5  A    between atoms: C_8  and  C_9
REMARK                            x       y       z     vdW  Elec       q    Type
REMARK                         _______ _______ _______ _____ _____    ______ ____
ROOT
ATOM      1  N   UNL     1       2.648   2.759  18.017  0.00  0.00    +0.000 NA
ATOM      2  C   UNL     1       2.376   4.178  17.725  0.00  0.00    +0.000 C 
ATOM      3  C   UNL     1       3.564   5.095  17.711  0.00  0.00    +0.000 C 
ATOM      4  C   UNL     1       4.811   4.691  17.997  0.00  0.00    +0.000 C 
ATOM      5  C   UNL     1       5.090   3.258  18.331  0.00  0.00    +0.000 C 
ATOM      6  C   UNL     1       3.829   2.574  18.880  0.00  0.00    +0.000 C 
ENDROOT
BRANCH   4   7
ATOM      7  C   UNL     1       5.897   5.668  18.081  0.00  0.00    +0.000 A 
ATOM      8  C   UNL     1       5.866   6.816  17.279  0.00  0.00    +0.000 A 
ATOM      9  C   UNL     1       6.922   7.729  17.313  0.00  0.00    +0.000 A 
ATOM     10  C   UNL     1       8.013   7.498  18.148  0.00  0.00    +0.000 A 
ATOM     11  C   UNL     1       8.050   6.357  18.951  0.00  0.00    +0.000 A 
ATOM     12  C   UNL     1       6.995   5.443  18.916  0.00  0.00    +0.000 A 
ENDBRANCH   4   7
BRANCH   1  13
ATOM     13  C   UNL     1       1.478   2.114  18.642  0.00  0.00    +0.000 C 
BRANCH  13  14
ATOM     14  C   UNL     1       0.709   2.992  19.638  0.00  0.00    +0.000 C 
BRANCH  14  16
ATOM     15  C   UNL     1       2.093   4.027  21.462  0.00  0.00    +0.000 C 
ATOM     16  C   UNL     1       1.215   2.849  21.073  0.00  0.00    +0.000 C 
ENDBRANCH  14  16
ENDBRANCH  13  14
ENDBRANCH   1  13
TORSDOF 4
ENDMDL
MODEL 8
REMARK VINA RESULT:      -6.3      3.579      5.100
REMARK  Name = 
REMARK  5 active torsions:
REMARK  status: ('A' for Active; 'I' for Inactive)
REMARK    1  A    between atoms: C_1  and  C_2
REMARK    2  A    between atoms: C_2  and  C_3
REMARK    3  A    between atoms: C_3  and  C_4
REMARK    4  A    between atoms: C_4  and  N_5
REMARK    5  A    between atoms: C_8  and  C_9
REMARK                            x       y       z     vdW  Elec       q    Type
REMARK                         _______ _______ _______ _____ _____    ______ ____
ROOT
ATOM      1  N   UNL     1       5.022   4.691  17.012  0.00  0.00    +0.000 NA
ATOM      2  C   UNL     1       5.247   6.106  16.670  0.00  0.00    +0.000 C 
ATOM      3  C   UNL     1       4.340   7.103  17.331  0.00  0.00    +0.000 C 
ATOM      4  C   UNL     1       3.335   6.758  18.150  0.00  0.00    +0.000 C 
ATOM      5  C   UNL     1       3.077   5.317  18.473  0.00  0.00    +0.000 C 
ATOM      6  C   UNL     1       3.617   4.407  17.361  0.00  0.00    +0.000 C 
ENDROOT
BRANCH   4   7
ATOM      7  C   UNL     1       2.418   7.778  18.658  0.00  0.00    +0.000 A 
ATOM      8  C   UNL     1       1.972   7.716  19.985  0.00  0.00    +0.000 A 
ATOM      9  C   UNL     1       1.057   8.654  20.466  0.00  0.00    +0.000 A 
ATOM     10  C   UNL     1       0.583   9.658  19.624  0.00  0.00    +0.000 A 
ATOM     11  C   UNL     1       1.024   9.725  18.301  0.00  0.00    +0.000 A 
ATOM     12  C   UNL     1       1.938   8.787  17.819  0.00  0.00    +0.000 A 
ENDBRANCH   4   7
BRANCH   1  13
ATOM     13  C   UNL     1       5.442   3.807  15.908  0.00  0.00    +0.000 C 
BRANCH  13  14
ATOM     14  C   UNL     1       5.338   4.426  14.508  0.00  0.00    +0.000 C 
BRANCH  14  16
ATOM     15  C   UNL     1       5.854   3.330  12.307  0.00  0.00    +0.000 C 
ATOM     16  C   UNL     1       6.441   3.953  13.563  0.00  0.00    +0.000 C 
ENDBRANCH  14  16
ENDBRANCH  13  14
ENDBRANCH   1  13
TORSDOF 4
ENDMDL
MODEL 9
REMARK VINA RESULT:      -6.3      2.241      3.484
REMARK  Name = 
REMARK  5 active torsions:
REMARK  status: ('A' for Active; 'I' for Inactive)
REMARK    1  A    between atoms: C_1  and  C_2
REMARK    2  A    between atoms: C_2  and  C_3
REMARK    3  A    between atoms: C_3  and  C_4
REMARK    4  A    between atoms: C_4  and  N_5
REMARK    5  A    between atoms: C_8  and  C_9
REMARK                            x       y       z     vdW  Elec       q    Type
REMARK                         _______ _______ _______ _____ _____    ______ ____
ROOT
ATOM      1  N   UNL     1       6.093   5.707  16.928  0.00  0.00    +0.000 NA
ATOM      2  C   UNL     1       4.660   5.948  16.684  0.00  0.00    +0.000 C 
ATOM      3  C   UNL     1       3.707   5.384  17.698  0.00  0.00    +0.000 C 
ATOM      4  C   UNL     1       4.099   4.649  18.750  0.00  0.00    +0.000 C 
ATOM      5  C   UNL     1       5.552   4.368  18.984  0.00  0.00    +0.000 C 
ATOM      6  C   UNL     1       6.340   4.455  17.668  0.00  0.00    +0.000 C 
ENDROOT
BRANCH   4   7
ATOM      7  C   UNL     1       3.103   4.032  19.626  0.00  0.00    +0.000 A 
ATOM      8  C   UNL     1       1.770   4.460  19.576  0.00  0.00    +0.000 A 
ATOM      9  C   UNL     1       0.821   3.915  20.443  0.00  0.00    +0.000 A 
ATOM     10  C   UNL     1       1.200   2.940  21.364  0.00  0.00    +0.000 A 
ATOM     11  C   UNL     1       2.527   2.509  21.418  0.00  0.00    +0.000 A 
ATOM     12  C   UNL     1       3.476   3.055  20.552  0.00  0.00    +0.000 A 
ENDBRANCH   4   7
BRANCH   1  13
ATOM     13  C   UNL     1       6.849   5.685  15.661  0.00  0.00    +0.000 C 
BRANCH  13  14
ATOM     14  C   UNL     1       6.873   4.327  14.946  0.00  0.00    +0.000 C 
BRANCH  14  16
ATOM     15  C   UNL     1       6.204   3.567  12.647  0.00  0.00    +0.000 C 
ATOM     16  C   UNL     1       5.716   4.149  13.964  0.00  0.00    +0.000 C 
ENDBRANCH  14  16
ENDBRANCH  13  14
ENDBRANCH   1  13
TORSDOF 4
ENDMDL
