MODEL 1
REMARK VINA RESULT:      -8.5      0.000      0.000
REMARK  Name = 
REMARK  5 active torsions:
REMARK  status: ('A' for Active; 'I' for Inactive)
REMARK    1  A    between atoms: C_1  and  C_2
REMARK    2  A    between atoms: C_5  and  C_6
REMARK    3  A    between atoms: C_8  and  C_9
REMARK    4  A    between atoms: N_11  and  C_12
REMARK    5  A    between atoms: C_12  and  C_13
REMARK                            x       y       z     vdW  Elec       q    Type
REMARK                         _______ _______ _______ _____ _____    ______ ____
ROOT
ATOM      1  C   UNL     1       2.445   6.941  19.419  0.00  0.00    +0.000 A 
ATOM      2  C   UNL     1       3.725   6.653  18.981  0.00  0.00    +0.000 A 
ATOM      3  C   UNL     1       4.256   5.373  19.196  0.00  0.00    +0.000 A 
ATOM      4  C   UNL     1       3.463   4.376  19.839  0.00  0.00    +0.000 A 
ATOM      5  C   UNL     1       3.807   3.009  20.071  0.00  0.00    +0.000 A 
ATOM      6  C   UNL     1       2.950   2.145  20.762  0.00  0.00    +0.000 A 
ATOM      7  C   UNL     1       1.715   2.594  21.195  0.00  0.00    +0.000 A 
ATOM      8  C   UNL     1       1.342   3.909  20.924  0.00  0.00    +0.000 A 
ATOM      9  C   UNL     1       2.185   4.792  20.270  0.00  0.00    +0.000 A 
ATOM     10  N   UNL     1       1.696   6.025  20.066  0.00  0.00    +0.000 NA
ENDROOT
BRANCH   1  15
ATOM     11  C   UNL     1      -0.295  11.467  20.156  0.00  0.00    +0.000 C 
ATOM     12  C   UNL     1       0.496  10.353  19.563  0.00  0.00    +0.000 A 
ATOM     13  C   UNL     1       0.957  10.220  18.273  0.00  0.00    +0.000 A 
ATOM     14  C   UNL     1       1.697   9.015  18.093  0.00  0.00    +0.000 A 
ATOM     15  C   UNL     1       1.774   8.241  19.239  0.00  0.00    +0.000 A 
ATOM     16  S   UNL     1       0.944   9.022  20.530  0.00  0.00    +0.000 S 
ENDBRANCH   1  15
BRANCH   3  17
ATOM     17  C   UNL     1       5.654   5.202  18.676  0.00  0.00    +0.000 C 
ATOM     18  O   UNL     1       6.569   4.981  19.463  0.00  0.00    +0.000 OA
ATOM     19  N   UNL     1       5.846   5.230  17.313  0.00  0.00    +0.000 N 
ATOM     20  H   UNL     1       5.043   5.104  16.714  0.00  0.00    +0.000 HD
BRANCH  19  21
ATOM     21  C   UNL     1       7.147   4.962  16.722  0.00  0.00    +0.000 C 
BRANCH  21  22
ATOM     22  C   UNL     1       6.968   4.667  15.279  0.00  0.00    +0.000 A 
ATOM     23  C   UNL     1       6.098   3.847  14.589  0.00  0.00    +0.000 A 
ATOM     24  C   UNL     1       6.381   4.027  13.215  0.00  0.00    +0.000 A 
ATOM     25  C   UNL     1       7.420   4.926  13.153  0.00  0.00    +0.000 A 
ATOM     26  O   UNL     1       7.785   5.320  14.402  0.00  0.00    +0.000 OA
ENDBRANCH  21  22
ENDBRANCH  19  21
ENDBRANCH   3  17
TORSDOF 4
ENDMDL
MODEL 2
REMARK VINA RESULT:      -8.3      1.159      1.338
REMARK  Name = 
REMARK  5 active torsions:
REMARK  status: ('A' for Active; 'I' for Inactive)
REMARK    1  A    between atoms: C_1  and  C_2
REMARK    2  A    between atoms: C_5  and  C_6
REMARK    3  A    between atoms: C_8  and  C_9
REMARK    4  A    between atoms: N_11  and  C_12
REMARK    5  A    between atoms: C_12  and  C_13
REMARK                            x       y       z     vdW  Elec       q    Type
REMARK                         _______ _______ _______ _____ _____    ______ ____
ROOT
ATOM      1  C   UNL     1       2.452   6.545  19.443  0.00  0.00    +0.000 A 
ATOM      2  C   UNL     1       3.730   6.385  18.938  0.00  0.00    +0.000 A 
ATOM      3  C   UNL     1       4.186   5.101  18.606  0.00  0.00    +0.000 A 
ATOM      4  C   UNL     1       3.319   3.978  18.768  0.00  0.00    +0.000 A 
ATOM      5  C   UNL     1       3.583   2.620  18.414  0.00  0.00    +0.000 A 
ATOM      6  C   UNL     1       2.659   1.602  18.674  0.00  0.00    +0.000 A 
ATOM      7  C   UNL     1       1.434   1.907  19.244  0.00  0.00    +0.000 A 
ATOM      8  C   UNL     1       1.141   3.236  19.540  0.00  0.00    +0.000 A 
ATOM      9  C   UNL     1       2.051   4.257  19.321  0.00  0.00    +0.000 A 
ATOM     10  N   UNL     1       1.634   5.492  19.643  0.00  0.00    +0.000 NA
ENDROOT
BRANCH   1  15
ATOM     11  C   UNL     1       0.502  11.517  19.393  0.00  0.00    +0.000 C 
ATOM     12  C   UNL     1       0.949  10.159  19.810  0.00  0.00    +0.000 A 
ATOM     13  C   UNL     1       0.887   9.581  21.058  0.00  0.00    +0.000 A 
ATOM     14  C   UNL     1       1.398   8.250  21.056  0.00  0.00    +0.000 A 
ATOM     15  C   UNL     1       1.857   7.840  19.814  0.00  0.00    +0.000 A 
ATOM     16  S   UNL     1       1.634   9.101  18.662  0.00  0.00    +0.000 S 
ENDBRANCH   1  15
BRANCH   3  17
ATOM     17  C   UNL     1       5.590   5.074  18.075  0.00  0.00    +0.000 C 
ATOM     18  O   UNL     1       6.476   4.544  18.737  0.00  0.00    +0.000 OA
ATOM     19  N   UNL     1       5.817   5.590  16.820  0.00  0.00    +0.000 N 
ATOM     20  H   UNL     1       5.026   5.725  16.207  0.00  0.00    +0.000 HD
BRANCH  19  21
ATOM     21  C   UNL     1       7.124   5.503  16.186  0.00  0.00    +0.000 C 
BRANCH  21  22
ATOM     22  C   UNL     1       6.964   4.910  14.835  0.00  0.00    +0.000 A 
ATOM     23  C   UNL     1       6.123   3.940  14.328  0.00  0.00    +0.000 A 
ATOM     24  C   UNL     1       6.413   3.840  12.948  0.00  0.00    +0.000 A 
ATOM     25  C   UNL     1       7.427   4.736  12.702  0.00  0.00    +0.000 A 
ATOM     26  O   UNL     1       7.771   5.391  13.844  0.00  0.00    +0.000 OA
ENDBRANCH  21  22
ENDBRANCH  19  21
ENDBRANCH   3  17
TORSDOF 4
ENDMDL
MODEL 3
REMARK VINA RESULT:      -8.3      1.356      1.412
REMARK  Name = 
REMARK  5 active torsions:
REMARK  status: ('A' for Active; 'I' for Inactive)
REMARK    1  A    between atoms: C_1  and  C_2
REMARK    2  A    between atoms: C_5  and  C_6
REMARK    3  A    between atoms: C_8  and  C_9
REMARK    4  A    between atoms: N_11  and  C_12
REMARK    5  A    between atoms: C_12  and  C_13
REMARK                            x       y       z     vdW  Elec       q    Type
REMARK                         _______ _______ _______ _____ _____    ______ ____
ROOT
ATOM      1  C   UNL     1       2.590   6.703  18.559  0.00  0.00    +0.000 A 
ATOM      2  C   UNL     1       3.819   6.455  17.974  0.00  0.00    +0.000 A 
ATOM      3  C   UNL     1       4.246   5.131  17.800  0.00  0.00    +0.000 A 
ATOM      4  C   UNL     1       3.399   4.055  18.204  0.00  0.00    +0.000 A 
ATOM      5  C   UNL     1       3.633   2.656  18.036  0.00  0.00    +0.000 A 
ATOM      6  C   UNL     1       2.737   1.699  18.526  0.00  0.00    +0.000 A 
ATOM      7  C   UNL     1       1.566   2.099  19.147  0.00  0.00    +0.000 A 
ATOM      8  C   UNL     1       1.298   3.461  19.264  0.00  0.00    +0.000 A 
ATOM      9  C   UNL     1       2.183   4.427  18.816  0.00  0.00    +0.000 A 
ATOM     10  N   UNL     1       1.794   5.701  18.985  0.00  0.00    +0.000 NA
ENDROOT
BRANCH   1  15
ATOM     11  C   UNL     1       0.316  11.048  20.677  0.00  0.00    +0.000 C 
ATOM     12  C   UNL     1       0.965  10.079  19.749  0.00  0.00    +0.000 A 
ATOM     13  C   UNL     1       1.330  10.262  18.435  0.00  0.00    +0.000 A 
ATOM     14  C   UNL     1       1.947   9.101  17.885  0.00  0.00    +0.000 A 
ATOM     15  C   UNL     1       2.027   8.046  18.780  0.00  0.00    +0.000 A 
ATOM     16  S   UNL     1       1.354   8.512  20.295  0.00  0.00    +0.000 S 
ENDBRANCH   1  15
BRANCH   3  17
ATOM     17  C   UNL     1       5.598   5.009  17.160  0.00  0.00    +0.000 C 
ATOM     18  O   UNL     1       6.493   4.410  17.747  0.00  0.00    +0.000 OA
ATOM     19  N   UNL     1       5.762   5.519  15.892  0.00  0.00    +0.000 N 
ATOM     20  H   UNL     1       4.937   5.715  15.345  0.00  0.00    +0.000 HD
BRANCH  19  21
ATOM     21  C   UNL     1       7.005   5.345  15.156  0.00  0.00    +0.000 C 
BRANCH  21  22
ATOM     22  C   UNL     1       6.727   4.579  13.917  0.00  0.00    +0.000 A 
ATOM     23  C   UNL     1       5.764   3.646  13.585  0.00  0.00    +0.000 A 
ATOM     24  C   UNL     1       5.985   3.308  12.230  0.00  0.00    +0.000 A 
ATOM     25  C   UNL     1       7.080   4.035  11.826  0.00  0.00    +0.000 A 
ATOM     26  O   UNL     1       7.540   4.810  12.845  0.00  0.00    +0.000 OA
ENDBRANCH  21  22
ENDBRANCH  19  21
ENDBRANCH   3  17
TORSDOF 4
ENDMDL
MODEL 4
REMARK VINA RESULT:      -8.3      1.608      1.827
REMARK  Name = 
REMARK  5 active torsions:
REMARK  status: ('A' for Active; 'I' for Inactive)
REMARK    1  A    between atoms: C_1  and  C_2
REMARK    2  A    between atoms: C_5  and  C_6
REMARK    3  A    between atoms: C_8  and  C_9
REMARK    4  A    between atoms: N_11  and  C_12
REMARK    5  A    between atoms: C_12  and  C_13
REMARK                            x       y       z     vdW  Elec       q    Type
REMARK                         _______ _______ _______ _____ _____    ______ ____
ROOT
ATOM      1  C   UNL     1       2.442   6.920  18.829  0.00  0.00    +0.000 A 
ATOM      2  C   UNL     1       3.440   6.954  17.871  0.00  0.00    +0.000 A 
ATOM      3  C   UNL     1       3.971   5.751  17.385  0.00  0.00    +0.000 A 
ATOM      4  C   UNL     1       3.460   4.507  17.863  0.00  0.00    +0.000 A 
ATOM      5  C   UNL     1       3.824   3.195  17.431  0.00  0.00    +0.000 A 
ATOM      6  C   UNL     1       3.277   2.050  18.022  0.00  0.00    +0.000 A 
ATOM      7  C   UNL     1       2.324   2.173  19.019  0.00  0.00    +0.000 A 
ATOM      8  C   UNL     1       1.918   3.447  19.409  0.00  0.00    +0.000 A 
ATOM      9  C   UNL     1       2.466   4.595  18.861  0.00  0.00    +0.000 A 
ATOM     10  N   UNL     1       1.976   5.756  19.323  0.00  0.00    +0.000 NA
ENDROOT
BRANCH   1  15
ATOM     11  C   UNL     1       0.099  10.436  22.097  0.00  0.00    +0.000 C 
ATOM     12  C   UNL     1       0.699   9.763  20.911  0.00  0.00    +0.000 A 
ATOM     13  C   UNL     1       0.860  10.255  19.635  0.00  0.00    +0.000 A 
ATOM     14  C   UNL     1       1.498   9.313  18.777  0.00  0.00    +0.000 A 
ATOM     15  C   UNL     1       1.796   8.113  19.403  0.00  0.00    +0.000 A 
ATOM     16  S   UNL     1       1.299   8.174  21.051  0.00  0.00    +0.000 S 
ENDBRANCH   1  15
BRANCH   3  17
ATOM     17  C   UNL     1       5.049   5.935  16.357  0.00  0.00    +0.000 C 
ATOM     18  O   UNL     1       5.065   6.954  15.673  0.00  0.00    +0.000 OA
ATOM     19  N   UNL     1       6.031   4.975  16.270  0.00  0.00    +0.000 N 
ATOM     20  H   UNL     1       6.146   4.336  17.042  0.00  0.00    +0.000 HD
BRANCH  19  21
ATOM     21  C   UNL     1       7.172   5.131  15.380  0.00  0.00    +0.000 C 
BRANCH  21  22
ATOM     22  C   UNL     1       6.846   4.517  14.069  0.00  0.00    +0.000 A 
ATOM     23  C   UNL     1       5.872   3.627  13.665  0.00  0.00    +0.000 A 
ATOM     24  C   UNL     1       6.040   3.453  12.272  0.00  0.00    +0.000 A 
ATOM     25  C   UNL     1       7.120   4.229  11.916  0.00  0.00    +0.000 A 
ATOM     26  O   UNL     1       7.618   4.878  13.002  0.00  0.00    +0.000 OA
ENDBRANCH  21  22
ENDBRANCH  19  21
ENDBRANCH   3  17
TORSDOF 4
ENDMDL
MODEL 5
REMARK VINA RESULT:      -8.3      1.431      1.677
REMARK  Name = 
REMARK  5 active torsions:
REMARK  status: ('A' for Active; 'I' for Inactive)
REMARK    1  A    between atoms: C_1  and  C_2
REMARK    2  A    between atoms: C_5  and  C_6
REMARK    3  A    between atoms: C_8  and  C_9
REMARK    4  A    between atoms: N_11  and  C_12
REMARK    5  A    between atoms: C_12  and  C_13
REMARK                            x       y       z     vdW  Elec       q    Type
REMARK                         _______ _______ _______ _____ _____    ______ ____
ROOT
ATOM      1  C   UNL     1       1.922   7.193  20.118  0.00  0.00    +0.000 A 
ATOM      2  C   UNL     1       2.974   7.207  19.218  0.00  0.00    +0.000 A 
ATOM      3  C   UNL     1       3.488   5.993  18.740  0.00  0.00    +0.000 A 
ATOM      4  C   UNL     1       2.907   4.761  19.164  0.00  0.00    +0.000 A 
ATOM      5  C   UNL     1       3.247   3.444  18.727  0.00  0.00    +0.000 A 
ATOM      6  C   UNL     1       2.627   2.310  19.265  0.00  0.00    +0.000 A 
ATOM      7  C   UNL     1       1.623   2.451  20.208  0.00  0.00    +0.000 A 
ATOM      8  C   UNL     1       1.242   3.732  20.600  0.00  0.00    +0.000 A 
ATOM      9  C   UNL     1       1.861   4.868  20.106  0.00  0.00    +0.000 A 
ATOM     10  N   UNL     1       1.387   6.038  20.563  0.00  0.00    +0.000 NA
ENDROOT
BRANCH   1  15
ATOM     11  C   UNL     1      -0.422  11.948  20.768  0.00  0.00    +0.000 C 
ATOM     12  C   UNL     1       0.199  10.614  21.001  0.00  0.00    +0.000 A 
ATOM     13  C   UNL     1       0.390   9.953  22.193  0.00  0.00    +0.000 A 
ATOM     14  C   UNL     1       1.003   8.681  22.005  0.00  0.00    +0.000 A 
ATOM     15  C   UNL     1       1.288   8.399  20.678  0.00  0.00    +0.000 A 
ATOM     16  S   UNL     1       0.776   9.704  19.679  0.00  0.00    +0.000 S 
ENDBRANCH   1  15
BRANCH   3  17
ATOM     17  C   UNL     1       4.629   6.155  17.778  0.00  0.00    +0.000 C 
ATOM     18  O   UNL     1       4.521   6.937  16.838  0.00  0.00    +0.000 OA
ATOM     19  N   UNL     1       5.792   5.465  18.031  0.00  0.00    +0.000 N 
ATOM     20  H   UNL     1       5.936   5.092  18.958  0.00  0.00    +0.000 HD
BRANCH  19  21
ATOM     21  C   UNL     1       6.982   5.651  17.214  0.00  0.00    +0.000 C 
BRANCH  21  22
ATOM     22  C   UNL     1       6.774   4.985  15.905  0.00  0.00    +0.000 A 
ATOM     23  C   UNL     1       5.975   3.934  15.501  0.00  0.00    +0.000 A 
ATOM     24  C   UNL     1       6.175   3.789  14.109  0.00  0.00    +0.000 A 
ATOM     25  C   UNL     1       7.100   4.744  13.753  0.00  0.00    +0.000 A 
ATOM     26  O   UNL     1       7.471   5.475  14.838  0.00  0.00    +0.000 OA
ENDBRANCH  21  22
ENDBRANCH  19  21
ENDBRANCH   3  17
TORSDOF 4
ENDMDL
MODEL 6
REMARK VINA RESULT:      -8.1      1.693      2.053
REMARK  Name = 
REMARK  5 active torsions:
REMARK  status: ('A' for Active; 'I' for Inactive)
REMARK    1  A    between atoms: C_1  and  C_2
REMARK    2  A    between atoms: C_5  and  C_6
REMARK    3  A    between atoms: C_8  and  C_9
REMARK    4  A    between atoms: N_11  and  C_12
REMARK    5  A    between atoms: C_12  and  C_13
REMARK                            x       y       z     vdW  Elec       q    Type
REMARK                         _______ _______ _______ _____ _____    ______ ____
ROOT
ATOM      1  C   UNL     1       2.483   6.819  18.810  0.00  0.00    +0.000 A 
ATOM      2  C   UNL     1       3.514   6.865  17.889  0.00  0.00    +0.000 A 
ATOM      3  C   UNL     1       4.056   5.668  17.399  0.00  0.00    +0.000 A 
ATOM      4  C   UNL     1       3.522   4.418  17.834  0.00  0.00    +0.000 A 
ATOM      5  C   UNL     1       3.893   3.113  17.389  0.00  0.00    +0.000 A 
ATOM      6  C   UNL     1       3.320   1.960  17.938  0.00  0.00    +0.000 A 
ATOM      7  C   UNL     1       2.332   2.070  18.902  0.00  0.00    +0.000 A 
ATOM      8  C   UNL     1       1.919   3.338  19.303  0.00  0.00    +0.000 A 
ATOM      9  C   UNL     1       2.493   4.493  18.798  0.00  0.00    +0.000 A 
ATOM     10  N   UNL     1       1.992   5.648  19.264  0.00  0.00    +0.000 NA
ENDROOT
BRANCH   1  15
ATOM     11  C   UNL     1       0.150  11.570  19.532  0.00  0.00    +0.000 C 
ATOM     12  C   UNL     1       0.738  10.217  19.740  0.00  0.00    +0.000 A 
ATOM     13  C   UNL     1       0.835   9.494  20.908  0.00  0.00    +0.000 A 
ATOM     14  C   UNL     1       1.446   8.224  20.700  0.00  0.00    +0.000 A 
ATOM     15  C   UNL     1       1.823   8.004  19.384  0.00  0.00    +0.000 A 
ATOM     16  S   UNL     1       1.398   9.365  18.419  0.00  0.00    +0.000 S 
ENDBRANCH   1  15
BRANCH   3  17
ATOM     17  C   UNL     1       5.171   5.866  16.414  0.00  0.00    +0.000 C 
ATOM     18  O   UNL     1       5.227   6.904  15.763  0.00  0.00    +0.000 OA
ATOM     19  N   UNL     1       6.141   4.892  16.330  0.00  0.00    +0.000 N 
ATOM     20  H   UNL     1       6.218   4.228  17.085  0.00  0.00    +0.000 HD
BRANCH  19  21
ATOM     21  C   UNL     1       7.313   5.056  15.484  0.00  0.00    +0.000 C 
BRANCH  21  22
ATOM     22  C   UNL     1       6.988   4.587  14.115  0.00  0.00    +0.000 A 
ATOM     23  C   UNL     1       7.528   4.862  12.874  0.00  0.00    +0.000 A 
ATOM     24  C   UNL     1       6.819   4.067  11.944  0.00  0.00    +0.000 A 
ATOM     25  C   UNL     1       5.878   3.374  12.669  0.00  0.00    +0.000 A 
ATOM     26  O   UNL     1       5.971   3.684  13.990  0.00  0.00    +0.000 OA
ENDBRANCH  21  22
ENDBRANCH  19  21
ENDBRANCH   3  17
TORSDOF 4
ENDMDL
MODEL 7
REMARK VINA RESULT:      -7.8      1.899      2.298
REMARK  Name = 
REMARK  5 active torsions:
REMARK  status: ('A' for Active; 'I' for Inactive)
REMARK    1  A    between atoms: C_1  and  C_2
REMARK    2  A    between atoms: C_5  and  C_6
REMARK    3  A    between atoms: C_8  and  C_9
REMARK    4  A    between atoms: N_11  and  C_12
REMARK    5  A    between atoms: C_12  and  C_13
REMARK                            x       y       z     vdW  Elec       q    Type
REMARK                         _______ _______ _______ _____ _____    ______ ____
ROOT
ATOM      1  C   UNL     1       2.655   6.708  18.570  0.00  0.00    +0.000 A 
ATOM      2  C   UNL     1       3.663   6.641  17.624  0.00  0.00    +0.000 A 
ATOM      3  C   UNL     1       4.179   5.391  17.254  0.00  0.00    +0.000 A 
ATOM      4  C   UNL     1       3.644   4.203  17.836  0.00  0.00    +0.000 A 
ATOM      5  C   UNL     1       3.990   2.852  17.527  0.00  0.00    +0.000 A 
ATOM      6  C   UNL     1       3.420   1.773  18.214  0.00  0.00    +0.000 A 
ATOM      7  C   UNL     1       2.459   2.000  19.185  0.00  0.00    +0.000 A 
ATOM      8  C   UNL     1       2.070   3.310  19.455  0.00  0.00    +0.000 A 
ATOM      9  C   UNL     1       2.642   4.395  18.812  0.00  0.00    +0.000 A 
ATOM     10  N   UNL     1       2.166   5.600  19.162  0.00  0.00    +0.000 NA
ENDROOT
BRANCH   1  15
ATOM     11  C   UNL     1       0.595  11.627  18.868  0.00  0.00    +0.000 C 
ATOM     12  C   UNL     1       1.063  10.250  19.187  0.00  0.00    +0.000 A 
ATOM     13  C   UNL     1       0.989   9.573  20.383  0.00  0.00    +0.000 A 
ATOM     14  C   UNL     1       1.529   8.258  20.288  0.00  0.00    +0.000 A 
ATOM     15  C   UNL     1       2.023   7.958  19.028  0.00  0.00    +0.000 A 
ATOM     16  S   UNL     1       1.796   9.301  17.975  0.00  0.00    +0.000 S 
ENDBRANCH   1  15
BRANCH   3  17
ATOM     17  C   UNL     1       5.269   5.465  16.225  0.00  0.00    +0.000 C 
ATOM     18  O   UNL     1       6.202   6.246  16.387  0.00  0.00    +0.000 OA
ATOM     19  N   UNL     1       5.216   4.594  15.161  0.00  0.00    +0.000 N 
ATOM     20  H   UNL     1       4.618   3.784  15.235  0.00  0.00    +0.000 HD
BRANCH  19  21
ATOM     21  C   UNL     1       6.288   4.523  14.180  0.00  0.00    +0.000 C 
BRANCH  21  22
ATOM     22  C   UNL     1       5.828   3.717  13.023  0.00  0.00    +0.000 A 
ATOM     23  C   UNL     1       4.641   3.675  12.319  0.00  0.00    +0.000 A 
ATOM     24  C   UNL     1       4.823   2.732  11.281  0.00  0.00    +0.000 A 
ATOM     25  C   UNL     1       6.099   2.240  11.429  0.00  0.00    +0.000 A 
ATOM     26  O   UNL     1       6.718   2.831  12.486  0.00  0.00    +0.000 OA
ENDBRANCH  21  22
ENDBRANCH  19  21
ENDBRANCH   3  17
TORSDOF 4
ENDMDL
MODEL 8
REMARK VINA RESULT:      -7.8      3.226      7.629
REMARK  Name = 
REMARK  5 active torsions:
REMARK  status: ('A' for Active; 'I' for Inactive)
REMARK    1  A    between atoms: C_1  and  C_2
REMARK    2  A    between atoms: C_5  and  C_6
REMARK    3  A    between atoms: C_8  and  C_9
REMARK    4  A    between atoms: N_11  and  C_12
REMARK    5  A    between atoms: C_12  and  C_13
REMARK                            x       y       z     vdW  Elec       q    Type
REMARK                         _______ _______ _______ _____ _____    ______ ____
ROOT
ATOM      1  C   UNL     1       4.543   5.300  17.080  0.00  0.00    +0.000 A 
ATOM      2  C   UNL     1       3.877   6.499  17.267  0.00  0.00    +0.000 A 
ATOM      3  C   UNL     1       2.988   6.633  18.344  0.00  0.00    +0.000 A 
ATOM      4  C   UNL     1       2.800   5.545  19.247  0.00  0.00    +0.000 A 
ATOM      5  C   UNL     1       2.001   5.527  20.431  0.00  0.00    +0.000 A 
ATOM      6  C   UNL     1       1.864   4.370  21.206  0.00  0.00    +0.000 A 
ATOM      7  C   UNL     1       2.550   3.218  20.859  0.00  0.00    +0.000 A 
ATOM      8  C   UNL     1       3.379   3.239  19.740  0.00  0.00    +0.000 A 
ATOM      9  C   UNL     1       3.507   4.362  18.939  0.00  0.00    +0.000 A 
ATOM     10  N   UNL     1       4.346   4.247  17.898  0.00  0.00    +0.000 NA
ENDROOT
BRANCH   1  15
ATOM     11  C   UNL     1       6.882   3.845  12.503  0.00  0.00    +0.000 C 
ATOM     12  C   UNL     1       6.617   4.367  13.873  0.00  0.00    +0.000 A 
ATOM     13  C   UNL     1       7.503   4.935  14.761  0.00  0.00    +0.000 A 
ATOM     14  C   UNL     1       6.865   5.331  15.972  0.00  0.00    +0.000 A 
ATOM     15  C   UNL     1       5.509   5.043  15.998  0.00  0.00    +0.000 A 
ATOM     16  S   UNL     1       5.040   4.303  14.516  0.00  0.00    +0.000 S 
ENDBRANCH   1  15
BRANCH   3  17
ATOM     17  C   UNL     1       2.332   7.981  18.423  0.00  0.00    +0.000 C 
ATOM     18  O   UNL     1       2.252   8.675  17.414  0.00  0.00    +0.000 OA
ATOM     19  N   UNL     1       1.777   8.361  19.624  0.00  0.00    +0.000 N 
ATOM     20  H   UNL     1       1.598   7.647  20.315  0.00  0.00    +0.000 HD
BRANCH  19  21
ATOM     21  C   UNL     1       1.026   9.600  19.758  0.00  0.00    +0.000 C 
BRANCH  21  22
ATOM     22  C   UNL     1       0.484   9.687  21.136  0.00  0.00    +0.000 A 
ATOM     23  C   UNL     1       0.754   8.991  22.297  0.00  0.00    +0.000 A 
ATOM     24  C   UNL     1      -0.053   9.566  23.306  0.00  0.00    +0.000 A 
ATOM     25  C   UNL     1      -0.782  10.560  22.694  0.00  0.00    +0.000 A 
ATOM     26  O   UNL     1      -0.463  10.641  21.374  0.00  0.00    +0.000 OA
ENDBRANCH  21  22
ENDBRANCH  19  21
ENDBRANCH   3  17
TORSDOF 4
ENDMDL
MODEL 9
REMARK VINA RESULT:      -7.8      3.072      7.050
REMARK  Name = 
REMARK  5 active torsions:
REMARK  status: ('A' for Active; 'I' for Inactive)
REMARK    1  A    between atoms: C_1  and  C_2
REMARK    2  A    between atoms: C_5  and  C_6
REMARK    3  A    between atoms: C_8  and  C_9
REMARK    4  A    between atoms: N_11  and  C_12
REMARK    5  A    between atoms: C_12  and  C_13
REMARK                            x       y       z     vdW  Elec       q    Type
REMARK                         _______ _______ _______ _____ _____    ______ ____
ROOT
ATOM      1  C   UNL     1       4.281   4.956  17.054  0.00  0.00    +0.000 A 
ATOM      2  C   UNL     1       3.776   6.160  17.512  0.00  0.00    +0.000 A 
ATOM      3  C   UNL     1       2.797   6.160  18.517  0.00  0.00    +0.000 A 
ATOM      4  C   UNL     1       2.352   4.923  19.072  0.00  0.00    +0.000 A 
ATOM      5  C   UNL     1       1.427   4.735  20.144  0.00  0.00    +0.000 A 
ATOM      6  C   UNL     1       1.038   3.457  20.561  0.00  0.00    +0.000 A 
ATOM      7  C   UNL     1       1.588   2.336  19.964  0.00  0.00    +0.000 A 
ATOM      8  C   UNL     1       2.536   2.505  18.957  0.00  0.00    +0.000 A 
ATOM      9  C   UNL     1       2.914   3.758  18.506  0.00  0.00    +0.000 A 
ATOM     10  N   UNL     1       3.843   3.776  17.537  0.00  0.00    +0.000 NA
ENDROOT
BRANCH   1  15
ATOM     11  C   UNL     1       6.956   3.938  12.544  0.00  0.00    +0.000 C 
ATOM     12  C   UNL     1       6.584   4.356  13.925  0.00  0.00    +0.000 A 
ATOM     13  C   UNL     1       7.380   4.922  14.894  0.00  0.00    +0.000 A 
ATOM     14  C   UNL     1       6.653   5.201  16.087  0.00  0.00    +0.000 A 
ATOM     15  C   UNL     1       5.320   4.827  16.017  0.00  0.00    +0.000 A 
ATOM     16  S   UNL     1       4.981   4.153  14.470  0.00  0.00    +0.000 S 
ENDBRANCH   1  15
BRANCH   3  17
ATOM     17  C   UNL     1       2.335   7.532  18.913  0.00  0.00    +0.000 C 
ATOM     18  O   UNL     1       2.185   7.801  20.100  0.00  0.00    +0.000 OA
ATOM     19  N   UNL     1       2.164   8.469  17.919  0.00  0.00    +0.000 N 
ATOM     20  H   UNL     1       2.590   8.296  17.020  0.00  0.00    +0.000 HD
BRANCH  19  21
ATOM     21  C   UNL     1       1.827   9.851  18.225  0.00  0.00    +0.000 C 
BRANCH  21  22
ATOM     22  C   UNL     1       0.353   9.975  18.328  0.00  0.00    +0.000 A 
ATOM     23  C   UNL     1      -0.486  10.387  19.344  0.00  0.00    +0.000 A 
ATOM     24  C   UNL     1      -1.801  10.334  18.824  0.00  0.00    +0.000 A 
ATOM     25  C   UNL     1      -1.685   9.872  17.533  0.00  0.00    +0.000 A 
ATOM     26  O   UNL     1      -0.379   9.649  17.222  0.00  0.00    +0.000 OA
ENDBRANCH  21  22
ENDBRANCH  19  21
ENDBRANCH   3  17
TORSDOF 4
ENDMDL
