MODEL 1
REMARK VINA RESULT:      -7.5      0.000      0.000
REMARK  Name = 
REMARK  6 active torsions:
REMARK  status: ('A' for Active; 'I' for Inactive)
REMARK    1  A    between atoms: C_1  and  N_2
REMARK    2  A    between atoms: N_2  and  C_3
REMARK    3  A    between atoms: N_2  and  C_4
REMARK    4  A    between atoms: C_4  and  C_5
REMARK    5  A    between atoms: C_5  and  C_6
REMARK    6  A    between atoms: C_6  and  N_7
REMARK                            x       y       z     vdW  Elec       q    Type
REMARK                         _______ _______ _______ _____ _____    ______ ____
ROOT
ATOM      1  N   UNL     1       3.382   5.240  19.984  0.00  0.00    +0.000 N 
ATOM      2  C   UNL     1       2.874   6.435  19.477  0.00  0.00    +0.000 A 
ATOM      3  C   UNL     1       3.294   6.910  18.286  0.00  0.00    +0.000 A 
ATOM      4  C   UNL     1       4.256   6.201  17.469  0.00  0.00    +0.000 A 
ATOM      5  N   UNL     1       4.532   6.660  16.227  0.00  0.00    +0.000 NA
ATOM      6  C   UNL     1       5.465   5.995  15.509  0.00  0.00    +0.000 A 
ATOM      7  C   UNL     1       6.172   4.906  15.990  0.00  0.00    +0.000 A 
ATOM      8  C   UNL     1       5.861   4.434  17.261  0.00  0.00    +0.000 A 
ATOM      9  C   UNL     1       4.858   5.071  17.995  0.00  0.00    +0.000 A 
ATOM     10  C   UNL     1       4.388   4.527  19.284  0.00  0.00    +0.000 A 
ATOM     11  O   UNL     1       4.875   3.465  19.671  0.00  0.00    +0.000 OA
ATOM     12  C   UNL     1       2.659   8.210  18.019  0.00  0.00    +0.000 C 
ATOM     13  O   UNL     1       2.819   8.970  17.087  0.00  0.00    +0.000 OA
ATOM     14  C   UNL     1       1.774   8.457  19.142  0.00  0.00    +0.000 A 
ATOM     15  C   UNL     1       0.954   9.564  19.320  0.00  0.00    +0.000 A 
ATOM     16  C   UNL     1       0.170   9.598  20.463  0.00  0.00    +0.000 A 
ATOM     17  C   UNL     1       0.236   8.542  21.378  0.00  0.00    +0.000 A 
ATOM     18  C   UNL     1       1.090   7.442  21.165  0.00  0.00    +0.000 A 
ATOM     19  C   UNL     1       1.884   7.383  20.028  0.00  0.00    +0.000 A 
ENDROOT
BRANCH   1  20
ATOM     20  C   UNL     1       2.907   4.588  21.203  0.00  0.00    +0.000 C 
BRANCH  20  21
ATOM     21  C   UNL     1       1.948   3.410  20.979  0.00  0.00    +0.000 C 
BRANCH  21  22
ATOM     22  C   UNL     1       0.804   3.686  20.000  0.00  0.00    +0.000 C 
BRANCH  22  24
ATOM     23  C   UNL     1       1.293   3.803  17.615  0.00  0.00    +0.000 C 
ATOM     24  N   UNL     1       0.900   2.946  18.733  0.00  0.00    +0.000 NA
ATOM     25  C   UNL     1       1.852   1.841  18.874  0.00  0.00    +0.000 C 
ENDBRANCH  22  24
ENDBRANCH  21  22
ENDBRANCH  20  21
ENDBRANCH   1  20
TORSDOF 4
ENDMDL
MODEL 2
REMARK VINA RESULT:      -7.0      1.950      6.220
REMARK  Name = 
REMARK  6 active torsions:
REMARK  status: ('A' for Active; 'I' for Inactive)
REMARK    1  A    between atoms: C_1  and  N_2
REMARK    2  A    between atoms: N_2  and  C_3
REMARK    3  A    between atoms: N_2  and  C_4
REMARK    4  A    between atoms: C_4  and  C_5
REMARK    5  A    between atoms: C_5  and  C_6
REMARK    6  A    between atoms: C_6  and  N_7
REMARK                            x       y       z     vdW  Elec       q    Type
REMARK                         _______ _______ _______ _____ _____    ______ ____
ROOT
ATOM      1  N   UNL     1       3.189   6.422  18.579  0.00  0.00    +0.000 N 
ATOM      2  C   UNL     1       3.761   5.391  17.836  0.00  0.00    +0.000 A 
ATOM      3  C   UNL     1       3.553   4.102  18.178  0.00  0.00    +0.000 A 
ATOM      4  C   UNL     1       2.715   3.726  19.296  0.00  0.00    +0.000 A 
ATOM      5  N   UNL     1       2.437   2.418  19.501  0.00  0.00    +0.000 NA
ATOM      6  C   UNL     1       1.683   2.101  20.578  0.00  0.00    +0.000 A 
ATOM      7  C   UNL     1       1.220   3.033  21.491  0.00  0.00    +0.000 A 
ATOM      8  C   UNL     1       1.497   4.375  21.254  0.00  0.00    +0.000 A 
ATOM      9  C   UNL     1       2.224   4.728  20.114  0.00  0.00    +0.000 A 
ATOM     10  C   UNL     1       2.421   6.141  19.738  0.00  0.00    +0.000 A 
ATOM     11  O   UNL     1       1.883   7.001  20.433  0.00  0.00    +0.000 OA
ATOM     12  C   UNL     1       4.321   3.223  17.282  0.00  0.00    +0.000 C 
ATOM     13  O   UNL     1       4.437   2.015  17.299  0.00  0.00    +0.000 OA
ATOM     14  C   UNL     1       4.978   4.101  16.331  0.00  0.00    +0.000 A 
ATOM     15  C   UNL     1       5.804   3.714  15.284  0.00  0.00    +0.000 A 
ATOM     16  C   UNL     1       6.321   4.717  14.478  0.00  0.00    +0.000 A 
ATOM     17  C   UNL     1       6.003   6.053  14.747  0.00  0.00    +0.000 A 
ATOM     18  C   UNL     1       5.169   6.403  15.827  0.00  0.00    +0.000 A 
ATOM     19  C   UNL     1       4.638   5.418  16.647  0.00  0.00    +0.000 A 
ENDROOT
BRANCH   1  20
ATOM     20  C   UNL     1       3.259   7.838  18.222  0.00  0.00    +0.000 C 
BRANCH  20  21
ATOM     21  C   UNL     1       1.994   8.406  17.563  0.00  0.00    +0.000 C 
BRANCH  21  22
ATOM     22  C   UNL     1       1.582   9.797  18.049  0.00  0.00    +0.000 C 
BRANCH  22  24
ATOM     23  C   UNL     1       0.772  10.531  20.228  0.00  0.00    +0.000 C 
ATOM     24  N   UNL     1       0.462   9.798  19.002  0.00  0.00    +0.000 NA
ATOM     25  C   UNL     1      -0.729  10.371  18.366  0.00  0.00    +0.000 C 
ENDBRANCH  22  24
ENDBRANCH  21  22
ENDBRANCH  20  21
ENDBRANCH   1  20
TORSDOF 4
ENDMDL
MODEL 3
REMARK VINA RESULT:      -6.9      2.077      4.768
REMARK  Name = 
REMARK  6 active torsions:
REMARK  status: ('A' for Active; 'I' for Inactive)
REMARK    1  A    between atoms: C_1  and  N_2
REMARK    2  A    between atoms: N_2  and  C_3
REMARK    3  A    between atoms: N_2  and  C_4
REMARK    4  A    between atoms: C_4  and  C_5
REMARK    5  A    between atoms: C_5  and  C_6
REMARK    6  A    between atoms: C_6  and  N_7
REMARK                            x       y       z     vdW  Elec       q    Type
REMARK                         _______ _______ _______ _____ _____    ______ ____
ROOT
ATOM      1  N   UNL     1       3.652   5.813  17.892  0.00  0.00    +0.000 N 
ATOM      2  C   UNL     1       2.846   6.608  18.705  0.00  0.00    +0.000 A 
ATOM      3  C   UNL     1       2.315   6.112  19.841  0.00  0.00    +0.000 A 
ATOM      4  C   UNL     1       2.573   4.759  20.287  0.00  0.00    +0.000 A 
ATOM      5  N   UNL     1       2.123   4.367  21.501  0.00  0.00    +0.000 NA
ATOM      6  C   UNL     1       2.349   3.085  21.866  0.00  0.00    +0.000 A 
ATOM      7  C   UNL     1       2.975   2.154  21.054  0.00  0.00    +0.000 A 
ATOM      8  C   UNL     1       3.449   2.579  19.818  0.00  0.00    +0.000 A 
ATOM      9  C   UNL     1       3.278   3.915  19.447  0.00  0.00    +0.000 A 
ATOM     10  C   UNL     1       3.888   4.452  18.215  0.00  0.00    +0.000 A 
ATOM     11  O   UNL     1       4.593   3.698  17.547  0.00  0.00    +0.000 OA
ATOM     12  C   UNL     1       1.454   7.127  20.470  0.00  0.00    +0.000 C 
ATOM     13  O   UNL     1       0.767   7.045  21.466  0.00  0.00    +0.000 OA
ATOM     14  C   UNL     1       1.553   8.306  19.630  0.00  0.00    +0.000 A 
ATOM     15  C   UNL     1       0.919   9.523  19.838  0.00  0.00    +0.000 A 
ATOM     16  C   UNL     1       1.161  10.533  18.919  0.00  0.00    +0.000 A 
ATOM     17  C   UNL     1       2.013  10.291  17.836  0.00  0.00    +0.000 A 
ATOM     18  C   UNL     1       2.629   9.037  17.656  0.00  0.00    +0.000 A 
ATOM     19  C   UNL     1       2.404   8.011  18.563  0.00  0.00    +0.000 A 
ENDROOT
BRANCH   1  20
ATOM     20  C   UNL     1       4.365   6.292  16.709  0.00  0.00    +0.000 C 
BRANCH  20  21
ATOM     21  C   UNL     1       5.673   7.042  16.997  0.00  0.00    +0.000 C 
BRANCH  21  22
ATOM     22  C   UNL     1       6.942   6.194  16.885  0.00  0.00    +0.000 C 
BRANCH  22  24
ATOM     23  C   UNL     1       8.117   7.928  18.132  0.00  0.00    +0.000 C 
ATOM     24  N   UNL     1       7.962   6.492  17.901  0.00  0.00    +0.000 NA
ATOM     25  C   UNL     1       7.621   5.819  19.158  0.00  0.00    +0.000 C 
ENDBRANCH  22  24
ENDBRANCH  21  22
ENDBRANCH  20  21
ENDBRANCH   1  20
TORSDOF 4
ENDMDL
MODEL 4
REMARK VINA RESULT:      -6.6      2.023      4.960
REMARK  Name = 
REMARK  6 active torsions:
REMARK  status: ('A' for Active; 'I' for Inactive)
REMARK    1  A    between atoms: C_1  and  N_2
REMARK    2  A    between atoms: N_2  and  C_3
REMARK    3  A    between atoms: N_2  and  C_4
REMARK    4  A    between atoms: C_4  and  C_5
REMARK    5  A    between atoms: C_5  and  C_6
REMARK    6  A    between atoms: C_6  and  N_7
REMARK                            x       y       z     vdW  Elec       q    Type
REMARK                         _______ _______ _______ _____ _____    ______ ____
ROOT
ATOM      1  N   UNL     1       3.643   6.348  17.847  0.00  0.00    +0.000 N 
ATOM      2  C   UNL     1       3.418   5.013  18.179  0.00  0.00    +0.000 A 
ATOM      3  C   UNL     1       4.024   4.023  17.491  0.00  0.00    +0.000 A 
ATOM      4  C   UNL     1       4.949   4.289  16.411  0.00  0.00    +0.000 A 
ATOM      5  N   UNL     1       5.626   3.259  15.854  0.00  0.00    +0.000 NA
ATOM      6  C   UNL     1       6.452   3.541  14.821  0.00  0.00    +0.000 A 
ATOM      7  C   UNL     1       6.607   4.809  14.285  0.00  0.00    +0.000 A 
ATOM      8  C   UNL     1       5.919   5.859  14.883  0.00  0.00    +0.000 A 
ATOM      9  C   UNL     1       5.107   5.598  15.989  0.00  0.00    +0.000 A 
ATOM     10  C   UNL     1       4.472   6.692  16.749  0.00  0.00    +0.000 A 
ATOM     11  O   UNL     1       4.718   7.847  16.406  0.00  0.00    +0.000 OA
ATOM     12  C   UNL     1       3.564   2.719  17.993  0.00  0.00    +0.000 C 
ATOM     13  O   UNL     1       3.835   1.603  17.602  0.00  0.00    +0.000 OA
ATOM     14  C   UNL     1       2.655   3.012  19.085  0.00  0.00    +0.000 A 
ATOM     15  C   UNL     1       1.983   2.085  19.872  0.00  0.00    +0.000 A 
ATOM     16  C   UNL     1       1.168   2.578  20.880  0.00  0.00    +0.000 A 
ATOM     17  C   UNL     1       1.052   3.961  21.061  0.00  0.00    +0.000 A 
ATOM     18  C   UNL     1       1.744   4.867  20.234  0.00  0.00    +0.000 A 
ATOM     19  C   UNL     1       2.566   4.399  19.219  0.00  0.00    +0.000 A 
ENDROOT
BRANCH   1  20
ATOM     20  C   UNL     1       3.128   7.489  18.603  0.00  0.00    +0.000 C 
BRANCH  20  21
ATOM     21  C   UNL     1       1.834   8.103  18.051  0.00  0.00    +0.000 C 
BRANCH  21  22
ATOM     22  C   UNL     1       1.837   9.630  17.946  0.00  0.00    +0.000 C 
BRANCH  22  24
ATOM     23  C   UNL     1      -0.544  10.141  18.062  0.00  0.00    +0.000 C 
ATOM     24  N   UNL     1       0.763  10.292  18.701  0.00  0.00    +0.000 NA
ATOM     25  C   UNL     1       0.715   9.759  20.066  0.00  0.00    +0.000 C 
ENDBRANCH  22  24
ENDBRANCH  21  22
ENDBRANCH  20  21
ENDBRANCH   1  20
TORSDOF 4
ENDMDL
MODEL 5
REMARK VINA RESULT:      -6.5      1.870      4.648
REMARK  Name = 
REMARK  6 active torsions:
REMARK  status: ('A' for Active; 'I' for Inactive)
REMARK    1  A    between atoms: C_1  and  N_2
REMARK    2  A    between atoms: N_2  and  C_3
REMARK    3  A    between atoms: N_2  and  C_4
REMARK    4  A    between atoms: C_4  and  C_5
REMARK    5  A    between atoms: C_5  and  C_6
REMARK    6  A    between atoms: C_6  and  N_7
REMARK                            x       y       z     vdW  Elec       q    Type
REMARK                         _______ _______ _______ _____ _____    ______ ____
ROOT
ATOM      1  N   UNL     1       3.604   5.747  18.009  0.00  0.00    +0.000 N 
ATOM      2  C   UNL     1       2.800   6.571  18.796  0.00  0.00    +0.000 A 
ATOM      3  C   UNL     1       2.234   6.100  19.927  0.00  0.00    +0.000 A 
ATOM      4  C   UNL     1       2.452   4.747  20.393  0.00  0.00    +0.000 A 
ATOM      5  N   UNL     1       1.968   4.381  21.602  0.00  0.00    +0.000 NA
ATOM      6  C   UNL     1       2.156   3.098  21.987  0.00  0.00    +0.000 A 
ATOM      7  C   UNL     1       2.776   2.143  21.198  0.00  0.00    +0.000 A 
ATOM      8  C   UNL     1       3.285   2.542  19.967  0.00  0.00    +0.000 A 
ATOM      9  C   UNL     1       3.154   3.877  19.578  0.00  0.00    +0.000 A 
ATOM     10  C   UNL     1       3.801   4.385  18.353  0.00  0.00    +0.000 A 
ATOM     11  O   UNL     1       4.501   3.607  17.708  0.00  0.00    +0.000 OA
ATOM     12  C   UNL     1       1.385   7.142  20.526  0.00  0.00    +0.000 C 
ATOM     13  O   UNL     1       0.676   7.088  21.509  0.00  0.00    +0.000 OA
ATOM     14  C   UNL     1       1.528   8.308  19.675  0.00  0.00    +0.000 A 
ATOM     15  C   UNL     1       0.919   9.543  19.856  0.00  0.00    +0.000 A 
ATOM     16  C   UNL     1       1.203  10.535  18.930  0.00  0.00    +0.000 A 
ATOM     17  C   UNL     1       2.072  10.261  17.868  0.00  0.00    +0.000 A 
ATOM     18  C   UNL     1       2.662   8.991  17.715  0.00  0.00    +0.000 A 
ATOM     19  C   UNL     1       2.394   7.981  18.628  0.00  0.00    +0.000 A 
ENDROOT
BRANCH   1  20
ATOM     20  C   UNL     1       4.352   6.195  16.836  0.00  0.00    +0.000 C 
BRANCH  20  21
ATOM     21  C   UNL     1       5.783   6.671  17.119  0.00  0.00    +0.000 C 
BRANCH  21  22
ATOM     22  C   UNL     1       6.798   6.358  16.018  0.00  0.00    +0.000 C 
BRANCH  22  24
ATOM     23  C   UNL     1       7.577   4.663  17.588  0.00  0.00    +0.000 C 
ATOM     24  N   UNL     1       7.501   5.078  16.187  0.00  0.00    +0.000 NA
ATOM     25  C   UNL     1       6.837   4.038  15.395  0.00  0.00    +0.000 C 
ENDBRANCH  22  24
ENDBRANCH  21  22
ENDBRANCH  20  21
ENDBRANCH   1  20
TORSDOF 4
ENDMDL
MODEL 6
REMARK VINA RESULT:      -6.4      1.457      4.781
REMARK  Name = 
REMARK  6 active torsions:
REMARK  status: ('A' for Active; 'I' for Inactive)
REMARK    1  A    between atoms: C_1  and  N_2
REMARK    2  A    between atoms: N_2  and  C_3
REMARK    3  A    between atoms: N_2  and  C_4
REMARK    4  A    between atoms: C_4  and  C_5
REMARK    5  A    between atoms: C_5  and  C_6
REMARK    6  A    between atoms: C_6  and  N_7
REMARK                            x       y       z     vdW  Elec       q    Type
REMARK                         _______ _______ _______ _____ _____    ______ ____
ROOT
ATOM      1  N   UNL     1       3.530   4.566  19.652  0.00  0.00    +0.000 N 
ATOM      2  C   UNL     1       3.875   5.354  18.555  0.00  0.00    +0.000 A 
ATOM      3  C   UNL     1       3.355   6.589  18.406  0.00  0.00    +0.000 A 
ATOM      4  C   UNL     1       2.450   7.167  19.376  0.00  0.00    +0.000 A 
ATOM      5  N   UNL     1       2.073   8.459  19.238  0.00  0.00    +0.000 NA
ATOM      6  C   UNL     1       1.196   8.953  20.142  0.00  0.00    +0.000 A 
ATOM      7  C   UNL     1       0.641   8.201  21.164  0.00  0.00    +0.000 A 
ATOM      8  C   UNL     1       1.056   6.881  21.303  0.00  0.00    +0.000 A 
ATOM      9  C   UNL     1       2.006   6.370  20.416  0.00  0.00    +0.000 A 
ATOM     10  C   UNL     1       2.587   5.027  20.606  0.00  0.00    +0.000 A 
ATOM     11  O   UNL     1       2.244   4.387  21.599  0.00  0.00    +0.000 OA
ATOM     12  C   UNL     1       3.822   7.174  17.139  0.00  0.00    +0.000 C 
ATOM     13  O   UNL     1       3.538   8.237  16.628  0.00  0.00    +0.000 OA
ATOM     14  C   UNL     1       4.716   6.192  16.555  0.00  0.00    +0.000 A 
ATOM     15  C   UNL     1       5.408   6.313  15.357  0.00  0.00    +0.000 A 
ATOM     16  C   UNL     1       6.228   5.258  14.985  0.00  0.00    +0.000 A 
ATOM     17  C   UNL     1       6.322   4.132  15.810  0.00  0.00    +0.000 A 
ATOM     18  C   UNL     1       5.595   4.045  17.013  0.00  0.00    +0.000 A 
ATOM     19  C   UNL     1       4.769   5.087  17.408  0.00  0.00    +0.000 A 
ENDROOT
BRANCH   1  20
ATOM     20  C   UNL     1       4.127   3.268  19.961  0.00  0.00    +0.000 C 
BRANCH  20  21
ATOM     21  C   UNL     1       3.315   2.051  19.496  0.00  0.00    +0.000 C 
BRANCH  21  22
ATOM     22  C   UNL     1       2.790   2.135  18.062  0.00  0.00    +0.000 C 
BRANCH  22  24
ATOM     23  C   UNL     1       0.656   2.280  19.232  0.00  0.00    +0.000 C 
ATOM     24  N   UNL     1       1.356   2.443  17.958  0.00  0.00    +0.000 NA
ATOM     25  C   UNL     1       1.177   3.811  17.462  0.00  0.00    +0.000 C 
ENDBRANCH  22  24
ENDBRANCH  21  22
ENDBRANCH  20  21
ENDBRANCH   1  20
TORSDOF 4
ENDMDL
MODEL 7
REMARK VINA RESULT:      -6.2      5.120      8.647
REMARK  Name = 
REMARK  6 active torsions:
REMARK  status: ('A' for Active; 'I' for Inactive)
REMARK    1  A    between atoms: C_1  and  N_2
REMARK    2  A    between atoms: N_2  and  C_3
REMARK    3  A    between atoms: N_2  and  C_4
REMARK    4  A    between atoms: C_4  and  C_5
REMARK    5  A    between atoms: C_5  and  C_6
REMARK    6  A    between atoms: C_6  and  N_7
REMARK                            x       y       z     vdW  Elec       q    Type
REMARK                         _______ _______ _______ _____ _____    ______ ____
ROOT
ATOM      1  N   UNL     1      -0.478  11.670  19.725  0.00  0.00    +0.000 N 
ATOM      2  C   UNL     1      -1.772  11.751  19.215  0.00  0.00    +0.000 A 
ATOM      3  C   UNL     1      -2.757  12.332  19.931  0.00  0.00    +0.000 A 
ATOM      4  C   UNL     1      -2.520  12.921  21.232  0.00  0.00    +0.000 A 
ATOM      5  N   UNL     1      -3.517  13.607  21.836  0.00  0.00    +0.000 NA
ATOM      6  C   UNL     1      -3.272  14.109  23.068  0.00  0.00    +0.000 A 
ATOM      7  C   UNL     1      -2.081  13.924  23.749  0.00  0.00    +0.000 A 
ATOM      8  C   UNL     1      -1.060  13.233  23.105  0.00  0.00    +0.000 A 
ATOM      9  C   UNL     1      -1.273  12.759  21.809  0.00  0.00    +0.000 A 
ATOM     10  C   UNL     1      -0.180  12.150  21.027  0.00  0.00    +0.000 A 
ATOM     11  O   UNL     1       0.940  12.115  21.534  0.00  0.00    +0.000 OA
ATOM     12  C   UNL     1      -4.030  12.223  19.201  0.00  0.00    +0.000 C 
ATOM     13  O   UNL     1      -5.143  12.573  19.535  0.00  0.00    +0.000 OA
ATOM     14  C   UNL     1      -3.714  11.561  17.950  0.00  0.00    +0.000 A 
ATOM     15  C   UNL     1      -4.606  11.254  16.930  0.00  0.00    +0.000 A 
ATOM     16  C   UNL     1      -4.093  10.630  15.803  0.00  0.00    +0.000 A 
ATOM     17  C   UNL     1      -2.726  10.335  15.737  0.00  0.00    +0.000 A 
ATOM     18  C   UNL     1      -1.858  10.655  16.799  0.00  0.00    +0.000 A 
ATOM     19  C   UNL     1      -2.346  11.280  17.938  0.00  0.00    +0.000 A 
ENDROOT
BRANCH   1  20
ATOM     20  C   UNL     1       0.676  11.167  18.982  0.00  0.00    +0.000 C 
BRANCH  20  21
ATOM     21  C   UNL     1       0.851   9.642  19.006  0.00  0.00    +0.000 C 
BRANCH  21  22
ATOM     22  C   UNL     1       1.999   9.110  18.146  0.00  0.00    +0.000 C 
BRANCH  22  24
ATOM     23  C   UNL     1       3.516   7.259  17.682  0.00  0.00    +0.000 C 
ATOM     24  N   UNL     1       2.258   7.671  18.303  0.00  0.00    +0.000 NA
ATOM     25  C   UNL     1       2.267   7.322  19.727  0.00  0.00    +0.000 C 
ENDBRANCH  22  24
ENDBRANCH  21  22
ENDBRANCH  20  21
ENDBRANCH   1  20
TORSDOF 4
ENDMDL
MODEL 8
REMARK VINA RESULT:      -6.0      5.526      9.235
REMARK  Name = 
REMARK  6 active torsions:
REMARK  status: ('A' for Active; 'I' for Inactive)
REMARK    1  A    between atoms: C_1  and  N_2
REMARK    2  A    between atoms: N_2  and  C_3
REMARK    3  A    between atoms: N_2  and  C_4
REMARK    4  A    between atoms: C_4  and  C_5
REMARK    5  A    between atoms: C_5  and  C_6
REMARK    6  A    between atoms: C_6  and  N_7
REMARK                            x       y       z     vdW  Elec       q    Type
REMARK                         _______ _______ _______ _____ _____    ______ ____
ROOT
ATOM      1  N   UNL     1      -0.947  12.083  20.114  0.00  0.00    +0.000 N 
ATOM      2  C   UNL     1      -2.195  12.038  19.494  0.00  0.00    +0.000 A 
ATOM      3  C   UNL     1      -3.295  12.489  20.131  0.00  0.00    +0.000 A 
ATOM      4  C   UNL     1      -3.236  13.063  21.458  0.00  0.00    +0.000 A 
ATOM      5  N   UNL     1      -4.351  13.621  21.985  0.00  0.00    +0.000 NA
ATOM      6  C   UNL     1      -4.268  14.112  23.243  0.00  0.00    +0.000 A 
ATOM      7  C   UNL     1      -3.126  14.037  24.022  0.00  0.00    +0.000 A 
ATOM      8  C   UNL     1      -1.984  13.479  23.458  0.00  0.00    +0.000 A 
ATOM      9  C   UNL     1      -2.033  13.020  22.139  0.00  0.00    +0.000 A 
ATOM     10  C   UNL     1      -0.817  12.555  21.445  0.00  0.00    +0.000 A 
ATOM     11  O   UNL     1       0.253  12.627  22.048  0.00  0.00    +0.000 OA
ATOM     12  C   UNL     1      -4.481  12.264  19.290  0.00  0.00    +0.000 C 
ATOM     13  O   UNL     1      -5.650  12.483  19.531  0.00  0.00    +0.000 OA
ATOM     14  C   UNL     1      -3.989  11.675  18.059  0.00  0.00    +0.000 A 
ATOM     15  C   UNL     1      -4.751  11.303  16.959  0.00  0.00    +0.000 A 
ATOM     16  C   UNL     1      -4.078  10.769  15.870  0.00  0.00    +0.000 A 
ATOM     17  C   UNL     1      -2.687  10.625  15.920  0.00  0.00    +0.000 A 
ATOM     18  C   UNL     1      -1.953  11.007  17.060  0.00  0.00    +0.000 A 
ATOM     19  C   UNL     1      -2.602  11.544  18.162  0.00  0.00    +0.000 A 
ENDROOT
BRANCH   1  20
ATOM     20  C   UNL     1       0.314  11.728  19.466  0.00  0.00    +0.000 C 
BRANCH  20  21
ATOM     21  C   UNL     1       0.635  10.227  19.445  0.00  0.00    +0.000 C 
BRANCH  21  22
ATOM     22  C   UNL     1      -0.132   9.388  20.469  0.00  0.00    +0.000 C 
BRANCH  22  24
ATOM     23  C   UNL     1       1.733   7.818  20.439  0.00  0.00    +0.000 C 
ATOM     24  N   UNL     1       0.708   8.470  21.253  0.00  0.00    +0.000 NA
ATOM     25  C   UNL     1       1.337   9.198  22.359  0.00  0.00    +0.000 C 
ENDBRANCH  22  24
ENDBRANCH  21  22
ENDBRANCH  20  21
ENDBRANCH   1  20
TORSDOF 4
ENDMDL
MODEL 9
REMARK VINA RESULT:      -6.0      6.497     10.371
REMARK  Name = 
REMARK  6 active torsions:
REMARK  status: ('A' for Active; 'I' for Inactive)
REMARK    1  A    between atoms: C_1  and  N_2
REMARK    2  A    between atoms: N_2  and  C_3
REMARK    3  A    between atoms: N_2  and  C_4
REMARK    4  A    between atoms: C_4  and  C_5
REMARK    5  A    between atoms: C_5  and  C_6
REMARK    6  A    between atoms: C_6  and  N_7
REMARK                            x       y       z     vdW  Elec       q    Type
REMARK                         _______ _______ _______ _____ _____    ______ ____
ROOT
ATOM      1  N   UNL     1      -2.569  12.480  20.856  0.00  0.00    +0.000 N 
ATOM      2  C   UNL     1      -3.491  12.251  19.836  0.00  0.00    +0.000 A 
ATOM      3  C   UNL     1      -4.809  12.446  20.046  0.00  0.00    +0.000 A 
ATOM      4  C   UNL     1      -5.327  12.926  21.309  0.00  0.00    +0.000 A 
ATOM      5  N   UNL     1      -6.641  13.231  21.411  0.00  0.00    +0.000 NA
ATOM      6  C   UNL     1      -7.095  13.639  22.617  0.00  0.00    +0.000 A 
ATOM      7  C   UNL     1      -6.302  13.720  23.749  0.00  0.00    +0.000 A 
ATOM      8  C   UNL     1      -4.950  13.423  23.622  0.00  0.00    +0.000 A 
ATOM      9  C   UNL     1      -4.449  13.057  22.370  0.00  0.00    +0.000 A 
ATOM     10  C   UNL     1      -3.001  12.873  22.149  0.00  0.00    +0.000 A 
ATOM     11  O   UNL     1      -2.243  13.098  23.090  0.00  0.00    +0.000 OA
ATOM     12  C   UNL     1      -5.564  12.066  18.840  0.00  0.00    +0.000 C 
ATOM     13  O   UNL     1      -6.762  12.049  18.654  0.00  0.00    +0.000 OA
ATOM     14  C   UNL     1      -4.571  11.667  17.861  0.00  0.00    +0.000 A 
ATOM     15  C   UNL     1      -4.817  11.239  16.563  0.00  0.00    +0.000 A 
ATOM     16  C   UNL     1      -3.719  10.916  15.780  0.00  0.00    +0.000 A 
ATOM     17  C   UNL     1      -2.431  11.027  16.316  0.00  0.00    +0.000 A 
ATOM     18  C   UNL     1      -2.226  11.456  17.642  0.00  0.00    +0.000 A 
ATOM     19  C   UNL     1      -3.308  11.785  18.446  0.00  0.00    +0.000 A 
ENDROOT
BRANCH   1  20
ATOM     20  C   UNL     1      -1.118  12.410  20.693  0.00  0.00    +0.000 C 
BRANCH  20  21
ATOM     21  C   UNL     1      -0.534  10.990  20.675  0.00  0.00    +0.000 C 
BRANCH  21  22
ATOM     22  C   UNL     1       0.865  10.860  21.283  0.00  0.00    +0.000 C 
BRANCH  22  24
ATOM     23  C   UNL     1      -0.230   9.718  23.138  0.00  0.00    +0.000 C 
ATOM     24  N   UNL     1       0.979   9.827  22.323  0.00  0.00    +0.000 NA
ATOM     25  C   UNL     1       1.284   8.533  21.706  0.00  0.00    +0.000 C 
ENDBRANCH  22  24
ENDBRANCH  21  22
ENDBRANCH  20  21
ENDBRANCH   1  20
TORSDOF 4
ENDMDL
