MODEL 1
REMARK VINA RESULT:      -6.5      0.000      0.000
REMARK  Name = 
REMARK  2 active torsions:
REMARK  status: ('A' for Active; 'I' for Inactive)
REMARK    1  A    between atoms: N_1  and  N_2
REMARK    2  A    between atoms: C_6  and  O_7
REMARK                            x       y       z     vdW  Elec       q    Type
REMARK                         _______ _______ _______ _____ _____    ______ ____
ROOT
ATOM      1  N   UNL     1       5.805   3.733  18.778  0.00  0.00    +0.000 N 
ATOM      2  C   UNL     1       4.724   4.618  18.875  0.00  0.00    +0.000 C 
ATOM      3  N   UNL     1       4.783   5.808  18.371  0.00  0.00    +0.000 NA
ATOM      4  C   UNL     1       3.617   6.693  18.300  0.00  0.00    +0.000 C 
ATOM      5  C   UNL     1       2.399   6.339  19.161  0.00  0.00    +0.000 C 
ATOM      6  C   UNL     1       2.421   4.975  19.783  0.00  0.00    +0.000 A 
ATOM      7  C   UNL     1       1.342   4.554  20.583  0.00  0.00    +0.000 A 
ATOM      8  C   UNL     1       1.364   3.313  21.219  0.00  0.00    +0.000 A 
ATOM      9  C   UNL     1       2.456   2.472  21.055  0.00  0.00    +0.000 A 
ATOM     10  C   UNL     1       3.529   2.876  20.264  0.00  0.00    +0.000 A 
ATOM     11  C   UNL     1       3.518   4.128  19.622  0.00  0.00    +0.000 A 
ATOM     12  H   UNL     1       5.517   2.790  18.514  0.00  0.00    +0.000 HD
ENDROOT
BRANCH   1  13
ATOM     13  N   UNL     1       6.955   4.190  18.091  0.00  0.00    +0.000 NA
ATOM     14  H   UNL     1       7.767   3.622  18.336  0.00  0.00    +0.000 HD
ATOM     15  H   UNL     1       7.163   5.140  18.418  0.00  0.00    +0.000 HD
ENDBRANCH   1  13
BRANCH   5  16
ATOM     16  O   UNL     1       2.257   7.304  20.211  0.00  0.00    +0.000 OA
ATOM     17  H   UNL     1       1.973   8.131  19.779  0.00  0.00    +0.000 HD
ENDBRANCH   5  16
TORSDOF 2
ENDMDL
MODEL 2
REMARK VINA RESULT:      -6.4      3.002      4.688
REMARK  Name = 
REMARK  2 active torsions:
REMARK  status: ('A' for Active; 'I' for Inactive)
REMARK    1  A    between atoms: N_1  and  N_2
REMARK    2  A    between atoms: C_6  and  O_7
REMARK                            x       y       z     vdW  Elec       q    Type
REMARK                         _______ _______ _______ _____ _____    ______ ____
ROOT
ATOM      1  N   UNL     1       7.861   5.305  19.181  0.00  0.00    +0.000 N 
ATOM      2  C   UNL     1       6.541   5.010  18.815  0.00  0.00    +0.000 C 
ATOM      3  N   UNL     1       5.620   4.838  19.707  0.00  0.00    +0.000 NA
ATOM      4  C   UNL     1       4.203   4.703  19.360  0.00  0.00    +0.000 C 
ATOM      5  C   UNL     1       3.851   4.401  17.898  0.00  0.00    +0.000 C 
ATOM      6  C   UNL     1       4.979   4.542  16.920  0.00  0.00    +0.000 A 
ATOM      7  C   UNL     1       4.752   4.295  15.552  0.00  0.00    +0.000 A 
ATOM      8  C   UNL     1       5.795   4.365  14.630  0.00  0.00    +0.000 A 
ATOM      9  C   UNL     1       7.075   4.692  15.058  0.00  0.00    +0.000 A 
ATOM     10  C   UNL     1       7.311   4.941  16.408  0.00  0.00    +0.000 A 
ATOM     11  C   UNL     1       6.265   4.869  17.347  0.00  0.00    +0.000 A 
ATOM     12  H   UNL     1       8.266   6.052  18.616  0.00  0.00    +0.000 HD
ENDROOT
BRANCH   1  13
ATOM     13  N   UNL     1       8.137   5.423  20.564  0.00  0.00    +0.000 NA
ATOM     14  H   UNL     1       9.138   5.325  20.738  0.00  0.00    +0.000 HD
ATOM     15  H   UNL     1       7.686   4.638  21.045  0.00  0.00    +0.000 HD
ENDBRANCH   1  13
BRANCH   5  16
ATOM     16  O   UNL     1       3.337   3.067  17.794  0.00  0.00    +0.000 OA
ATOM     17  H   UNL     1       4.109   2.494  17.630  0.00  0.00    +0.000 HD
ENDBRANCH   5  16
TORSDOF 2
ENDMDL
MODEL 3
REMARK VINA RESULT:      -6.3      2.584      3.717
REMARK  Name = 
REMARK  2 active torsions:
REMARK  status: ('A' for Active; 'I' for Inactive)
REMARK    1  A    between atoms: N_1  and  N_2
REMARK    2  A    between atoms: C_6  and  O_7
REMARK                            x       y       z     vdW  Elec       q    Type
REMARK                         _______ _______ _______ _____ _____    ______ ____
ROOT
ATOM      1  N   UNL     1       5.209   1.809  20.516  0.00  0.00    +0.000 N 
ATOM      2  C   UNL     1       3.949   2.420  20.559  0.00  0.00    +0.000 C 
ATOM      3  N   UNL     1       3.186   2.311  21.599  0.00  0.00    +0.000 NA
ATOM      4  C   UNL     1       1.944   3.075  21.747  0.00  0.00    +0.000 C 
ATOM      5  C   UNL     1       1.361   3.741  20.495  0.00  0.00    +0.000 C 
ATOM      6  C   UNL     1       2.263   3.768  19.298  0.00  0.00    +0.000 A 
ATOM      7  C   UNL     1       1.820   4.367  18.103  0.00  0.00    +0.000 A 
ATOM      8  C   UNL     1       2.617   4.356  16.959  0.00  0.00    +0.000 A 
ATOM      9  C   UNL     1       3.870   3.759  16.996  0.00  0.00    +0.000 A 
ATOM     10  C   UNL     1       4.320   3.165  18.173  0.00  0.00    +0.000 A 
ATOM     11  C   UNL     1       3.521   3.167  19.331  0.00  0.00    +0.000 A 
ATOM     12  H   UNL     1       5.931   2.427  20.143  0.00  0.00    +0.000 HD
ENDROOT
BRANCH   1  13
ATOM     13  N   UNL     1       5.616   1.086  21.663  0.00  0.00    +0.000 NA
ATOM     14  H   UNL     1       5.415   0.092  21.548  0.00  0.00    +0.000 HD
ATOM     15  H   UNL     1       5.047   1.402  22.455  0.00  0.00    +0.000 HD
ENDBRANCH   1  13
BRANCH   5  16
ATOM     16  O   UNL     1       0.147   3.078  20.122  0.00  0.00    +0.000 OA
ATOM     17  H   UNL     1      -0.469   3.204  20.868  0.00  0.00    +0.000 HD
ENDBRANCH   5  16
TORSDOF 2
ENDMDL
MODEL 4
REMARK VINA RESULT:      -6.3      2.675      4.755
REMARK  Name = 
REMARK  2 active torsions:
REMARK  status: ('A' for Active; 'I' for Inactive)
REMARK    1  A    between atoms: N_1  and  N_2
REMARK    2  A    between atoms: C_6  and  O_7
REMARK                            x       y       z     vdW  Elec       q    Type
REMARK                         _______ _______ _______ _____ _____    ______ ____
ROOT
ATOM      1  N   UNL     1       2.520   7.082  19.841  0.00  0.00    +0.000 N 
ATOM      2  C   UNL     1       2.971   5.786  19.558  0.00  0.00    +0.000 C 
ATOM      3  N   UNL     1       2.747   4.805  20.372  0.00  0.00    +0.000 NA
ATOM      4  C   UNL     1       3.049   3.412  20.029  0.00  0.00    +0.000 C 
ATOM      5  C   UNL     1       3.973   3.156  18.833  0.00  0.00    +0.000 C 
ATOM      6  C   UNL     1       4.258   4.347  17.968  0.00  0.00    +0.000 A 
ATOM      7  C   UNL     1       5.088   4.208  16.840  0.00  0.00    +0.000 A 
ATOM      8  C   UNL     1       5.415   5.312  16.052  0.00  0.00    +0.000 A 
ATOM      9  C   UNL     1       4.907   6.564  16.373  0.00  0.00    +0.000 A 
ATOM     10  C   UNL     1       4.083   6.713  17.486  0.00  0.00    +0.000 A 
ATOM     11  C   UNL     1       3.752   5.606  18.290  0.00  0.00    +0.000 A 
ATOM     12  H   UNL     1       2.092   7.533  19.031  0.00  0.00    +0.000 HD
ENDROOT
BRANCH   1  13
ATOM     13  N   UNL     1       1.797   7.266  21.043  0.00  0.00    +0.000 NA
ATOM     14  H   UNL     1       2.174   6.671  21.781  0.00  0.00    +0.000 HD
ATOM     15  H   UNL     1       0.834   6.951  20.886  0.00  0.00    +0.000 HD
ENDBRANCH   1  13
BRANCH   5  16
ATOM     16  O   UNL     1       5.224   2.633  19.297  0.00  0.00    +0.000 OA
ATOM     17  H   UNL     1       5.903   2.985  18.691  0.00  0.00    +0.000 HD
ENDBRANCH   5  16
TORSDOF 2
ENDMDL
MODEL 5
REMARK VINA RESULT:      -6.2      3.003      3.952
REMARK  Name = 
REMARK  2 active torsions:
REMARK  status: ('A' for Active; 'I' for Inactive)
REMARK    1  A    between atoms: N_1  and  N_2
REMARK    2  A    between atoms: C_6  and  O_7
REMARK                            x       y       z     vdW  Elec       q    Type
REMARK                         _______ _______ _______ _____ _____    ______ ____
ROOT
ATOM      1  N   UNL     1       6.614   4.926  14.802  0.00  0.00    +0.000 N 
ATOM      2  C   UNL     1       6.650   5.288  16.155  0.00  0.00    +0.000 C 
ATOM      3  N   UNL     1       7.570   6.074  16.615  0.00  0.00    +0.000 NA
ATOM      4  C   UNL     1       7.538   6.610  17.978  0.00  0.00    +0.000 C 
ATOM      5  C   UNL     1       6.593   5.944  18.986  0.00  0.00    +0.000 C 
ATOM      6  C   UNL     1       5.600   4.985  18.404  0.00  0.00    +0.000 A 
ATOM      7  C   UNL     1       4.683   4.331  19.248  0.00  0.00    +0.000 A 
ATOM      8  C   UNL     1       3.786   3.391  18.740  0.00  0.00    +0.000 A 
ATOM      9  C   UNL     1       3.784   3.102  17.382  0.00  0.00    +0.000 A 
ATOM     10  C   UNL     1       4.685   3.745  16.536  0.00  0.00    +0.000 A 
ATOM     11  C   UNL     1       5.597   4.691  17.040  0.00  0.00    +0.000 A 
ATOM     12  H   UNL     1       5.674   4.977  14.409  0.00  0.00    +0.000 HD
ENDROOT
BRANCH   1  13
ATOM     13  N   UNL     1       7.614   5.470  13.961  0.00  0.00    +0.000 NA
ATOM     14  H   UNL     1       8.219   4.731  13.602  0.00  0.00    +0.000 HD
ATOM     15  H   UNL     1       8.213   6.077  14.531  0.00  0.00    +0.000 HD
ENDBRANCH   1  13
BRANCH   5  16
ATOM     16  O   UNL     1       7.361   5.244  19.973  0.00  0.00    +0.000 OA
ATOM     17  H   UNL     1       7.771   4.490  19.509  0.00  0.00    +0.000 HD
ENDBRANCH   5  16
TORSDOF 2
ENDMDL
MODEL 6
REMARK VINA RESULT:      -6.2      1.958      2.037
REMARK  Name = 
REMARK  2 active torsions:
REMARK  status: ('A' for Active; 'I' for Inactive)
REMARK    1  A    between atoms: N_1  and  N_2
REMARK    2  A    between atoms: C_6  and  O_7
REMARK                            x       y       z     vdW  Elec       q    Type
REMARK                         _______ _______ _______ _____ _____    ______ ____
ROOT
ATOM      1  N   UNL     1       6.266   3.965  16.882  0.00  0.00    +0.000 N 
ATOM      2  C   UNL     1       5.194   4.800  17.223  0.00  0.00    +0.000 C 
ATOM      3  N   UNL     1       5.340   6.084  17.295  0.00  0.00    +0.000 NA
ATOM      4  C   UNL     1       4.209   6.997  17.476  0.00  0.00    +0.000 C 
ATOM      5  C   UNL     1       2.877   6.400  17.947  0.00  0.00    +0.000 C 
ATOM      6  C   UNL     1       2.793   4.903  17.916  0.00  0.00    +0.000 A 
ATOM      7  C   UNL     1       1.607   4.262  18.320  0.00  0.00    +0.000 A 
ATOM      8  C   UNL     1       1.522   2.870  18.354  0.00  0.00    +0.000 A 
ATOM      9  C   UNL     1       2.615   2.102  17.973  0.00  0.00    +0.000 A 
ATOM     10  C   UNL     1       3.793   2.725  17.569  0.00  0.00    +0.000 A 
ATOM     11  C   UNL     1       3.890   4.129  17.536  0.00  0.00    +0.000 A 
ATOM     12  H   UNL     1       6.003   3.249  16.204  0.00  0.00    +0.000 HD
ENDROOT
BRANCH   1  13
ATOM     13  N   UNL     1       7.506   4.586  16.603  0.00  0.00    +0.000 NA
ATOM     14  H   UNL     1       7.954   4.144  15.800  0.00  0.00    +0.000 HD
ATOM     15  H   UNL     1       8.129   4.424  17.401  0.00  0.00    +0.000 HD
ENDBRANCH   1  13
BRANCH   5  16
ATOM     16  O   UNL     1       2.605   6.832  19.286  0.00  0.00    +0.000 OA
ATOM     17  H   UNL     1       1.783   7.355  19.238  0.00  0.00    +0.000 HD
ENDBRANCH   5  16
TORSDOF 2
ENDMDL
MODEL 7
REMARK VINA RESULT:      -6.1      1.561      1.561
REMARK  Name = 
REMARK  2 active torsions:
REMARK  status: ('A' for Active; 'I' for Inactive)
REMARK    1  A    between atoms: N_1  and  N_2
REMARK    2  A    between atoms: C_6  and  O_7
REMARK                            x       y       z     vdW  Elec       q    Type
REMARK                         _______ _______ _______ _____ _____    ______ ____
ROOT
ATOM      1  N   UNL     1       5.095   3.330  16.741  0.00  0.00    +0.000 N 
ATOM      2  C   UNL     1       4.300   4.290  17.380  0.00  0.00    +0.000 C 
ATOM      3  N   UNL     1       4.616   5.545  17.358  0.00  0.00    +0.000 NA
ATOM      4  C   UNL     1       3.723   6.592  17.862  0.00  0.00    +0.000 C 
ATOM      5  C   UNL     1       2.554   6.162  18.756  0.00  0.00    +0.000 C 
ATOM      6  C   UNL     1       2.283   4.688  18.803  0.00  0.00    +0.000 A 
ATOM      7  C   UNL     1       1.223   4.198  19.589  0.00  0.00    +0.000 A 
ATOM      8  C   UNL     1       0.985   2.828  19.695  0.00  0.00    +0.000 A 
ATOM      9  C   UNL     1       1.795   1.931  19.009  0.00  0.00    +0.000 A 
ATOM     10  C   UNL     1       2.845   2.405  18.227  0.00  0.00    +0.000 A 
ATOM     11  C   UNL     1       3.095   3.786  18.117  0.00  0.00    +0.000 A 
ATOM     12  H   UNL     1       4.542   2.657  16.208  0.00  0.00    +0.000 HD
ENDROOT
BRANCH   1  13
ATOM     13  N   UNL     1       6.244   3.792  16.058  0.00  0.00    +0.000 NA
ATOM     14  H   UNL     1       5.977   4.332  15.234  0.00  0.00    +0.000 HD
ATOM     15  H   UNL     1       6.756   2.975  15.709  0.00  0.00    +0.000 HD
ENDBRANCH   1  13
BRANCH   5  16
ATOM     16  O   UNL     1       2.783   6.615  20.096  0.00  0.00    +0.000 OA
ATOM     17  H   UNL     1       2.832   7.588  20.046  0.00  0.00    +0.000 HD
ENDBRANCH   5  16
TORSDOF 2
ENDMDL
MODEL 8
REMARK VINA RESULT:      -6.1      2.258      4.041
REMARK  Name = 
REMARK  2 active torsions:
REMARK  status: ('A' for Active; 'I' for Inactive)
REMARK    1  A    between atoms: N_1  and  N_2
REMARK    2  A    between atoms: C_6  and  O_7
REMARK                            x       y       z     vdW  Elec       q    Type
REMARK                         _______ _______ _______ _____ _____    ______ ____
ROOT
ATOM      1  N   UNL     1       4.252   1.952  17.759  0.00  0.00    +0.000 N 
ATOM      2  C   UNL     1       3.977   3.220  18.288  0.00  0.00    +0.000 C 
ATOM      3  N   UNL     1       3.313   3.358  19.390  0.00  0.00    +0.000 NA
ATOM      4  C   UNL     1       3.159   4.652  20.061  0.00  0.00    +0.000 C 
ATOM      5  C   UNL     1       3.485   5.916  19.256  0.00  0.00    +0.000 C 
ATOM      6  C   UNL     1       4.187   5.689  17.951  0.00  0.00    +0.000 A 
ATOM      7  C   UNL     1       4.537   6.789  17.145  0.00  0.00    +0.000 A 
ATOM      8  C   UNL     1       5.139   6.602  15.901  0.00  0.00    +0.000 A 
ATOM      9  C   UNL     1       5.410   5.316  15.451  0.00  0.00    +0.000 A 
ATOM     10  C   UNL     1       5.070   4.220  16.240  0.00  0.00    +0.000 A 
ATOM     11  C   UNL     1       4.458   4.399  17.495  0.00  0.00    +0.000 A 
ATOM     12  H   UNL     1       5.217   1.862  17.439  0.00  0.00    +0.000 HD
ENDROOT
BRANCH   1  13
ATOM     13  N   UNL     1       3.787   0.833  18.490  0.00  0.00    +0.000 NA
ATOM     14  H   UNL     1       2.767   0.829  18.527  0.00  0.00    +0.000 HD
ATOM     15  H   UNL     1       4.107   0.932  19.459  0.00  0.00    +0.000 HD
ENDBRANCH   1  13
BRANCH   5  16
ATOM     16  O   UNL     1       2.277   6.640  18.991  0.00  0.00    +0.000 OA
ATOM     17  H   UNL     1       2.108   6.541  18.036  0.00  0.00    +0.000 HD
ENDBRANCH   5  16
TORSDOF 2
ENDMDL
MODEL 9
REMARK VINA RESULT:      -6.1      2.261      3.709
REMARK  Name = 
REMARK  2 active torsions:
REMARK  status: ('A' for Active; 'I' for Inactive)
REMARK    1  A    between atoms: N_1  and  N_2
REMARK    2  A    between atoms: C_6  and  O_7
REMARK                            x       y       z     vdW  Elec       q    Type
REMARK                         _______ _______ _______ _____ _____    ______ ____
ROOT
ATOM      1  N   UNL     1       5.211   2.455  19.744  0.00  0.00    +0.000 N 
ATOM      2  C   UNL     1       3.973   2.991  19.366  0.00  0.00    +0.000 C 
ATOM      3  N   UNL     1       2.883   2.302  19.472  0.00  0.00    +0.000 NA
ATOM      4  C   UNL     1       1.557   2.886  19.252  0.00  0.00    +0.000 C 
ATOM      5  C   UNL     1       1.483   4.240  18.536  0.00  0.00    +0.000 C 
ATOM      6  C   UNL     1       2.789   4.957  18.373  0.00  0.00    +0.000 A 
ATOM      7  C   UNL     1       2.822   6.213  17.737  0.00  0.00    +0.000 A 
ATOM      8  C   UNL     1       4.030   6.875  17.522  0.00  0.00    +0.000 A 
ATOM      9  C   UNL     1       5.219   6.299  17.951  0.00  0.00    +0.000 A 
ATOM     10  C   UNL     1       5.199   5.058  18.584  0.00  0.00    +0.000 A 
ATOM     11  C   UNL     1       3.985   4.381  18.801  0.00  0.00    +0.000 A 
ATOM     12  H   UNL     1       5.772   3.112  20.288  0.00  0.00    +0.000 HD
ENDROOT
BRANCH   1  13
ATOM     13  N   UNL     1       5.214   1.139  20.262  0.00  0.00    +0.000 NA
ATOM     14  H   UNL     1       4.996   0.465  19.527  0.00  0.00    +0.000 HD
ATOM     15  H   UNL     1       4.455   1.066  20.948  0.00  0.00    +0.000 HD
ENDBRANCH   1  13
BRANCH   5  16
ATOM     16  O   UNL     1       0.908   4.063  17.235  0.00  0.00    +0.000 OA
ATOM     17  H   UNL     1       1.230   3.200  16.914  0.00  0.00    +0.000 HD
ENDBRANCH   5  16
TORSDOF 2
ENDMDL
