MODEL 1
REMARK VINA RESULT:      -7.8      0.000      0.000
REMARK  Name = 
REMARK  8 active torsions:
REMARK  status: ('A' for Active; 'I' for Inactive)
REMARK    1  A    between atoms: C_1  and  O_2
REMARK    2  A    between atoms: O_2  and  C_3
REMARK    3  A    between atoms: C_4  and  C_5
REMARK    4  A    between atoms: C_5  and  O_6
REMARK    5  A    between atoms: O_6  and  C_7
REMARK    6  A    between atoms: C_14  and  C_15
REMARK    7  A    between atoms: C_16  and  O_17
REMARK    8  A    between atoms: O_17  and  C_18
REMARK                            x       y       z     vdW  Elec       q    Type
REMARK                         _______ _______ _______ _____ _____    ______ ____
ROOT
ATOM      1  C   UNL     1       2.250   4.750  18.756  0.00  0.00    +0.000 C 
ATOM      2  C   UNL     1       2.375   6.304  18.971  0.00  0.00    +0.000 C 
ATOM      3  C   UNL     1       3.874   6.417  18.626  0.00  0.00    +0.000 C 
ATOM      4  C   UNL     1       4.463   5.373  19.206  0.00  0.00    +0.000 C 
ATOM      5  C   UNL     1       5.909   5.193  19.143  0.00  0.00    +0.000 C 
ATOM      6  O   UNL     1       6.559   4.968  20.155  0.00  0.00    +0.000 OA
ATOM      7  C   UNL     1       6.471   5.287  17.780  0.00  0.00    +0.000 C 
ATOM      8  C   UNL     1       7.864   4.754  17.681  0.00  0.00    +0.000 C 
ATOM      9  C   UNL     1       5.685   5.826  16.819  0.00  0.00    +0.000 C 
ATOM     10  C   UNL     1       4.400   6.593  17.235  0.00  0.00    +0.000 C 
ATOM     11  O   UNL     1       3.764   7.272  16.431  0.00  0.00    +0.000 OA
ATOM     12  N   UNL     1       3.572   4.303  19.304  0.00  0.00    +0.000 N 
ATOM     13  C   UNL     1       3.392   3.619  20.589  0.00  0.00    +0.000 C 
ATOM     14  C   UNL     1       1.909   3.575  20.753  0.00  0.00    +0.000 C 
ATOM     15  N   UNL     1       1.156   2.534  20.217  0.00  0.00    +0.000 NA
ATOM     16  C   UNL     1       1.200   3.869  19.418  0.00  0.00    +0.000 C 
ATOM     17  H   UNL     1       0.212   2.458  20.600  0.00  0.00    +0.000 HD
ENDROOT
BRANCH   1  19
ATOM     18  C   UNL     1       2.672   3.299  16.874  0.00  0.00    +0.000 C 
ATOM     19  O   UNL     1       2.169   4.580  17.314  0.00  0.00    +0.000 OA
ENDBRANCH   1  19
BRANCH   2  20
ATOM     20  C   UNL     1       2.103   6.808  20.406  0.00  0.00    +0.000 C 
BRANCH  20  21
ATOM     21  O   UNL     1       1.712   8.192  20.476  0.00  0.00    +0.000 OA
BRANCH  21  22
ATOM     22  C   UNL     1       0.934   8.507  21.521  0.00  0.00    +0.000 C 
ATOM     23  N   UNL     1       1.679   9.032  22.532  0.00  0.00    +0.000 N 
ATOM     24  O   UNL     1      -0.275   8.398  21.596  0.00  0.00    +0.000 OA
ATOM     25  H   UNL     1       2.653   9.257  22.388  0.00  0.00    +0.000 HD
ATOM     26  H   UNL     1       1.191   9.431  23.322  0.00  0.00    +0.000 HD
ENDBRANCH  21  22
ENDBRANCH  20  21
ENDBRANCH   2  20
BRANCH   9  27
ATOM     27  O   UNL     1       5.929   5.793  15.453  0.00  0.00    +0.000 OA
BRANCH  27  28
ATOM     28  C   UNL     1       6.327   4.583  14.786  0.00  0.00    +0.000 C 
ATOM     29  C   UNL     1       5.257   3.948  13.911  0.00  0.00    +0.000 C 
ATOM     30  C   UNL     1       6.003   3.461  12.688  0.00  0.00    +0.000 C 
ATOM     31  O   UNL     1       7.134   4.312  12.525  0.00  0.00    +0.000 OA
ATOM     32  C   UNL     1       7.452   4.894  13.796  0.00  0.00    +0.000 C 
ENDBRANCH  27  28
ENDBRANCH   9  27
TORSDOF 6
ENDMDL
MODEL 2
REMARK VINA RESULT:      -6.8      1.483      1.722
REMARK  Name = 
REMARK  8 active torsions:
REMARK  status: ('A' for Active; 'I' for Inactive)
REMARK    1  A    between atoms: C_1  and  O_2
REMARK    2  A    between atoms: O_2  and  C_3
REMARK    3  A    between atoms: C_4  and  C_5
REMARK    4  A    between atoms: C_5  and  O_6
REMARK    5  A    between atoms: O_6  and  C_7
REMARK    6  A    between atoms: C_14  and  C_15
REMARK    7  A    between atoms: C_16  and  O_17
REMARK    8  A    between atoms: O_17  and  C_18
REMARK                            x       y       z     vdW  Elec       q    Type
REMARK                         _______ _______ _______ _____ _____    ______ ____
ROOT
ATOM      1  C   UNL     1       2.692   4.642  18.274  0.00  0.00    +0.000 C 
ATOM      2  C   UNL     1       2.868   6.136  17.812  0.00  0.00    +0.000 C 
ATOM      3  C   UNL     1       4.405   6.110  17.688  0.00  0.00    +0.000 C 
ATOM      4  C   UNL     1       4.847   5.432  18.745  0.00  0.00    +0.000 C 
ATOM      5  C   UNL     1       6.275   5.264  18.991  0.00  0.00    +0.000 C 
ATOM      6  O   UNL     1       6.757   5.512  20.087  0.00  0.00    +0.000 OA
ATOM      7  C   UNL     1       7.033   4.763  17.826  0.00  0.00    +0.000 C 
ATOM      8  C   UNL     1       8.395   4.261  18.183  0.00  0.00    +0.000 C 
ATOM      9  C   UNL     1       6.425   4.818  16.618  0.00  0.00    +0.000 C 
ATOM     10  C   UNL     1       5.137   5.669  16.457  0.00  0.00    +0.000 C 
ATOM     11  O   UNL     1       4.662   5.921  15.351  0.00  0.00    +0.000 OA
ATOM     12  N   UNL     1       3.895   4.498  19.158  0.00  0.00    +0.000 N 
ATOM     13  C   UNL     1       3.493   4.441  20.568  0.00  0.00    +0.000 C 
ATOM     14  C   UNL     1       2.002   4.451  20.504  0.00  0.00    +0.000 C 
ATOM     15  N   UNL     1       1.280   3.269  20.362  0.00  0.00    +0.000 NA
ATOM     16  C   UNL     1       1.510   4.123  19.082  0.00  0.00    +0.000 C 
ATOM     17  H   UNL     1       0.287   3.354  20.590  0.00  0.00    +0.000 HD
ENDROOT
BRANCH   1  19
ATOM     18  C   UNL     1       2.962   2.446  17.312  0.00  0.00    +0.000 C 
ATOM     19  O   UNL     1       2.812   3.860  17.054  0.00  0.00    +0.000 OA
ENDBRANCH   1  19
BRANCH   2  20
ATOM     20  C   UNL     1       2.419   7.212  18.826  0.00  0.00    +0.000 C 
BRANCH  20  21
ATOM     21  O   UNL     1       2.429   8.553  18.302  0.00  0.00    +0.000 OA
BRANCH  21  22
ATOM     22  C   UNL     1       1.428   9.334  18.728  0.00  0.00    +0.000 C 
ATOM     23  N   UNL     1       1.044  10.198  17.749  0.00  0.00    +0.000 N 
ATOM     24  O   UNL     1       0.875   9.295  19.811  0.00  0.00    +0.000 OA
ATOM     25  H   UNL     1       1.408  10.106  16.812  0.00  0.00    +0.000 HD
ATOM     26  H   UNL     1       0.210  10.747  17.902  0.00  0.00    +0.000 HD
ENDBRANCH  21  22
ENDBRANCH  20  21
ENDBRANCH   2  20
BRANCH   9  27
ATOM     27  O   UNL     1       6.862   4.195  15.456  0.00  0.00    +0.000 OA
BRANCH  27  28
ATOM     28  C   UNL     1       6.559   4.727  14.155  0.00  0.00    +0.000 C 
ATOM     29  C   UNL     1       7.753   5.280  13.391  0.00  0.00    +0.000 C 
ATOM     30  C   UNL     1       7.525   4.846  11.960  0.00  0.00    +0.000 C 
ATOM     31  O   UNL     1       6.767   3.641  12.007  0.00  0.00    +0.000 OA
ATOM     32  C   UNL     1       6.055   3.600  13.250  0.00  0.00    +0.000 C 
ENDBRANCH  27  28
ENDBRANCH   9  27
TORSDOF 6
ENDMDL
MODEL 3
REMARK VINA RESULT:      -6.6      0.950      1.162
REMARK  Name = 
REMARK  8 active torsions:
REMARK  status: ('A' for Active; 'I' for Inactive)
REMARK    1  A    between atoms: C_1  and  O_2
REMARK    2  A    between atoms: O_2  and  C_3
REMARK    3  A    between atoms: C_4  and  C_5
REMARK    4  A    between atoms: C_5  and  O_6
REMARK    5  A    between atoms: O_6  and  C_7
REMARK    6  A    between atoms: C_14  and  C_15
REMARK    7  A    between atoms: C_16  and  O_17
REMARK    8  A    between atoms: O_17  and  C_18
REMARK                            x       y       z     vdW  Elec       q    Type
REMARK                         _______ _______ _______ _____ _____    ______ ____
ROOT
ATOM      1  C   UNL     1       2.129   4.636  18.999  0.00  0.00    +0.000 C 
ATOM      2  C   UNL     1       2.105   6.136  19.476  0.00  0.00    +0.000 C 
ATOM      3  C   UNL     1       3.560   6.474  19.088  0.00  0.00    +0.000 C 
ATOM      4  C   UNL     1       4.290   5.420  19.450  0.00  0.00    +0.000 C 
ATOM      5  C   UNL     1       5.740   5.417  19.291  0.00  0.00    +0.000 C 
ATOM      6  O   UNL     1       6.472   5.100  20.217  0.00  0.00    +0.000 OA
ATOM      7  C   UNL     1       6.200   5.803  17.941  0.00  0.00    +0.000 C 
ATOM      8  C   UNL     1       7.632   5.455  17.687  0.00  0.00    +0.000 C 
ATOM      9  C   UNL     1       5.303   6.404  17.125  0.00  0.00    +0.000 C 
ATOM     10  C   UNL     1       3.975   6.939  17.726  0.00  0.00    +0.000 C 
ATOM     11  O   UNL     1       3.222   7.668  17.083  0.00  0.00    +0.000 OA
ATOM     12  N   UNL     1       3.522   4.255  19.400  0.00  0.00    +0.000 N 
ATOM     13  C   UNL     1       3.496   3.349  20.553  0.00  0.00    +0.000 C 
ATOM     14  C   UNL     1       2.040   3.111  20.774  0.00  0.00    +0.000 C 
ATOM     15  N   UNL     1       1.366   2.097  20.099  0.00  0.00    +0.000 NA
ATOM     16  C   UNL     1       1.219   3.544  19.545  0.00  0.00    +0.000 C 
ATOM     17  H   UNL     1       0.461   1.851  20.505  0.00  0.00    +0.000 HD
ENDROOT
BRANCH   1  19
ATOM     18  C   UNL     1       2.220   3.436  16.907  0.00  0.00    +0.000 C 
ATOM     19  O   UNL     1       1.974   4.703  17.555  0.00  0.00    +0.000 OA
ENDBRANCH   1  19
BRANCH   2  20
ATOM     20  C   UNL     1       1.876   6.358  20.988  0.00  0.00    +0.000 C 
BRANCH  20  21
ATOM     21  O   UNL     1       0.827   7.297  21.290  0.00  0.00    +0.000 OA
BRANCH  21  22
ATOM     22  C   UNL     1       1.186   8.586  21.217  0.00  0.00    +0.000 C 
ATOM     23  N   UNL     1       1.801   8.977  22.366  0.00  0.00    +0.000 N 
ATOM     24  O   UNL     1       1.044   9.336  20.270  0.00  0.00    +0.000 OA
ATOM     25  H   UNL     1       2.047   8.300  23.073  0.00  0.00    +0.000 HD
ATOM     26  H   UNL     1       2.236   9.889  22.384  0.00  0.00    +0.000 HD
ENDBRANCH  21  22
ENDBRANCH  20  21
ENDBRANCH   2  20
BRANCH   9  27
ATOM     27  O   UNL     1       5.460   6.629  15.765  0.00  0.00    +0.000 OA
BRANCH  27  28
ATOM     28  C   UNL     1       5.355   5.562  14.806  0.00  0.00    +0.000 C 
ATOM     29  C   UNL     1       6.635   5.253  14.044  0.00  0.00    +0.000 C 
ATOM     30  C   UNL     1       6.667   3.744  13.945  0.00  0.00    +0.000 C 
ATOM     31  O   UNL     1       5.962   3.239  15.076  0.00  0.00    +0.000 OA
ATOM     32  C   UNL     1       5.056   4.250  15.535  0.00  0.00    +0.000 C 
ENDBRANCH  27  28
ENDBRANCH   9  27
TORSDOF 6
ENDMDL
MODEL 4
REMARK VINA RESULT:      -6.5      2.740      6.062
REMARK  Name = 
REMARK  8 active torsions:
REMARK  status: ('A' for Active; 'I' for Inactive)
REMARK    1  A    between atoms: C_1  and  O_2
REMARK    2  A    between atoms: O_2  and  C_3
REMARK    3  A    between atoms: C_4  and  C_5
REMARK    4  A    between atoms: C_5  and  O_6
REMARK    5  A    between atoms: O_6  and  C_7
REMARK    6  A    between atoms: C_14  and  C_15
REMARK    7  A    between atoms: C_16  and  O_17
REMARK    8  A    between atoms: O_17  and  C_18
REMARK                            x       y       z     vdW  Elec       q    Type
REMARK                         _______ _______ _______ _____ _____    ______ ____
ROOT
ATOM      1  C   UNL     1       5.142   4.194  16.904  0.00  0.00    +0.000 C 
ATOM      2  C   UNL     1       6.071   4.567  18.119  0.00  0.00    +0.000 C 
ATOM      3  C   UNL     1       5.125   5.603  18.761  0.00  0.00    +0.000 C 
ATOM      4  C   UNL     1       4.623   6.315  17.753  0.00  0.00    +0.000 C 
ATOM      5  C   UNL     1       3.729   7.441  17.998  0.00  0.00    +0.000 C 
ATOM      6  O   UNL     1       3.927   8.526  17.471  0.00  0.00    +0.000 OA
ATOM      7  C   UNL     1       2.597   7.129  18.895  0.00  0.00    +0.000 C 
ATOM      8  C   UNL     1       1.513   8.157  18.851  0.00  0.00    +0.000 C 
ATOM      9  C   UNL     1       2.676   5.991  19.624  0.00  0.00    +0.000 C 
ATOM     10  C   UNL     1       4.038   5.254  19.731  0.00  0.00    +0.000 C 
ATOM     11  O   UNL     1       4.219   4.342  20.535  0.00  0.00    +0.000 OA
ATOM     12  N   UNL     1       4.565   5.542  16.592  0.00  0.00    +0.000 N 
ATOM     13  C   UNL     1       5.123   6.064  15.340  0.00  0.00    +0.000 C 
ATOM     14  C   UNL     1       5.980   4.945  14.850  0.00  0.00    +0.000 C 
ATOM     15  N   UNL     1       5.452   3.925  14.063  0.00  0.00    +0.000 NA
ATOM     16  C   UNL     1       5.640   3.632  15.580  0.00  0.00    +0.000 C 
ATOM     17  H   UNL     1       6.153   3.367  13.572  0.00  0.00    +0.000 HD
ENDROOT
BRANCH   1  19
ATOM     18  C   UNL     1       4.714   2.019  17.858  0.00  0.00    +0.000 C 
ATOM     19  O   UNL     1       4.150   3.288  17.460  0.00  0.00    +0.000 OA
ENDBRANCH   1  19
BRANCH   2  20
ATOM     20  C   UNL     1       7.427   5.214  17.756  0.00  0.00    +0.000 C 
BRANCH  20  21
ATOM     21  O   UNL     1       7.840   6.256  18.661  0.00  0.00    +0.000 OA
BRANCH  21  22
ATOM     22  C   UNL     1       8.022   7.456  18.094  0.00  0.00    +0.000 C 
ATOM     23  N   UNL     1       8.712   8.280  18.930  0.00  0.00    +0.000 N 
ATOM     24  O   UNL     1       7.677   7.803  16.981  0.00  0.00    +0.000 OA
ATOM     25  H   UNL     1       9.123   7.922  19.780  0.00  0.00    +0.000 HD
ATOM     26  H   UNL     1       9.028   9.168  18.565  0.00  0.00    +0.000 HD
ENDBRANCH  21  22
ENDBRANCH  20  21
ENDBRANCH   2  20
BRANCH   9  27
ATOM     27  O   UNL     1       1.638   5.405  20.336  0.00  0.00    +0.000 OA
BRANCH  27  28
ATOM     28  C   UNL     1       0.887   4.300  19.806  0.00  0.00    +0.000 C 
ATOM     29  C   UNL     1       1.293   3.858  18.408  0.00  0.00    +0.000 C 
ATOM     30  C   UNL     1       1.222   2.348  18.449  0.00  0.00    +0.000 C 
ATOM     31  O   UNL     1       1.473   1.956  19.795  0.00  0.00    +0.000 OA
ATOM     32  C   UNL     1       1.145   3.055  20.656  0.00  0.00    +0.000 C 
ENDBRANCH  27  28
ENDBRANCH   9  27
TORSDOF 6
ENDMDL
MODEL 5
REMARK VINA RESULT:      -6.5      2.516      7.166
REMARK  Name = 
REMARK  8 active torsions:
REMARK  status: ('A' for Active; 'I' for Inactive)
REMARK    1  A    between atoms: C_1  and  O_2
REMARK    2  A    between atoms: O_2  and  C_3
REMARK    3  A    between atoms: C_4  and  C_5
REMARK    4  A    between atoms: C_5  and  O_6
REMARK    5  A    between atoms: O_6  and  C_7
REMARK    6  A    between atoms: C_14  and  C_15
REMARK    7  A    between atoms: C_16  and  O_17
REMARK    8  A    between atoms: O_17  and  C_18
REMARK                            x       y       z     vdW  Elec       q    Type
REMARK                         _______ _______ _______ _____ _____    ______ ____
ROOT
ATOM      1  C   UNL     1       5.909   6.320  17.723  0.00  0.00    +0.000 C 
ATOM      2  C   UNL     1       4.901   6.120  16.531  0.00  0.00    +0.000 C 
ATOM      3  C   UNL     1       3.608   6.277  17.357  0.00  0.00    +0.000 C 
ATOM      4  C   UNL     1       3.814   5.609  18.491  0.00  0.00    +0.000 C 
ATOM      5  C   UNL     1       2.763   5.487  19.495  0.00  0.00    +0.000 C 
ATOM      6  O   UNL     1       2.470   4.398  19.969  0.00  0.00    +0.000 OA
ATOM      7  C   UNL     1       2.137   6.771  19.874  0.00  0.00    +0.000 C 
ATOM      8  C   UNL     1       1.337   6.685  21.133  0.00  0.00    +0.000 C 
ATOM      9  C   UNL     1       2.356   7.832  19.062  0.00  0.00    +0.000 C 
ATOM     10  C   UNL     1       2.959   7.595  17.652  0.00  0.00    +0.000 C 
ATOM     11  O   UNL     1       2.989   8.484  16.803  0.00  0.00    +0.000 OA
ATOM     12  N   UNL     1       5.172   5.603  18.813  0.00  0.00    +0.000 N 
ATOM     13  C   UNL     1       5.838   4.338  19.140  0.00  0.00    +0.000 C 
ATOM     14  C   UNL     1       7.061   4.359  18.285  0.00  0.00    +0.000 C 
ATOM     15  N   UNL     1       8.235   4.967  18.722  0.00  0.00    +0.000 NA
ATOM     16  C   UNL     1       7.332   5.778  17.749  0.00  0.00    +0.000 C 
ATOM     17  H   UNL     1       9.067   4.703  18.191  0.00  0.00    +0.000 HD
ENDROOT
BRANCH   1  19
ATOM     18  C   UNL     1       7.234   8.335  17.630  0.00  0.00    +0.000 C 
ATOM     19  O   UNL     1       5.947   7.757  17.940  0.00  0.00    +0.000 OA
ENDBRANCH   1  19
BRANCH   2  20
ATOM     20  C   UNL     1       4.944   4.740  15.838  0.00  0.00    +0.000 C 
BRANCH  20  21
ATOM     21  O   UNL     1       5.231   4.800  14.428  0.00  0.00    +0.000 OA
BRANCH  21  22
ATOM     22  C   UNL     1       6.500   4.526  14.098  0.00  0.00    +0.000 C 
ATOM     23  N   UNL     1       6.563   3.405  13.329  0.00  0.00    +0.000 N 
ATOM     24  O   UNL     1       7.490   5.174  14.382  0.00  0.00    +0.000 OA
ATOM     25  H   UNL     1       5.720   2.976  12.977  0.00  0.00    +0.000 HD
ATOM     26  H   UNL     1       7.451   3.170  12.906  0.00  0.00    +0.000 HD
ENDBRANCH  21  22
ENDBRANCH  20  21
ENDBRANCH   2  20
BRANCH   9  27
ATOM     27  O   UNL     1       2.060   9.157  19.355  0.00  0.00    +0.000 OA
BRANCH  27  28
ATOM     28  C   UNL     1       0.783   9.734  19.033  0.00  0.00    +0.000 C 
ATOM     29  C   UNL     1      -0.196   9.820  20.193  0.00  0.00    +0.000 C 
ATOM     30  C   UNL     1      -0.879  11.158  20.019  0.00  0.00    +0.000 C 
ATOM     31  O   UNL     1       0.045  12.012  19.351  0.00  0.00    +0.000 OA
ATOM     32  C   UNL     1       0.975  11.197  18.626  0.00  0.00    +0.000 C 
ENDBRANCH  27  28
ENDBRANCH   9  27
TORSDOF 6
ENDMDL
MODEL 6
REMARK VINA RESULT:      -6.4      5.122      9.447
REMARK  Name = 
REMARK  8 active torsions:
REMARK  status: ('A' for Active; 'I' for Inactive)
REMARK    1  A    between atoms: C_1  and  O_2
REMARK    2  A    between atoms: O_2  and  C_3
REMARK    3  A    between atoms: C_4  and  C_5
REMARK    4  A    between atoms: C_5  and  O_6
REMARK    5  A    between atoms: O_6  and  C_7
REMARK    6  A    between atoms: C_14  and  C_15
REMARK    7  A    between atoms: C_16  and  O_17
REMARK    8  A    between atoms: O_17  and  C_18
REMARK                            x       y       z     vdW  Elec       q    Type
REMARK                         _______ _______ _______ _____ _____    ______ ____
ROOT
ATOM      1  C   UNL     1      -0.262  13.996  21.919  0.00  0.00    +0.000 C 
ATOM      2  C   UNL     1      -0.917  12.924  22.867  0.00  0.00    +0.000 C 
ATOM      3  C   UNL     1      -1.097  11.823  21.802  0.00  0.00    +0.000 C 
ATOM      4  C   UNL     1      -1.525  12.442  20.703  0.00  0.00    +0.000 C 
ATOM      5  C   UNL     1      -1.867  11.692  19.500  0.00  0.00    +0.000 C 
ATOM      6  O   UNL     1      -2.929  11.879  18.923  0.00  0.00    +0.000 OA
ATOM      7  C   UNL     1      -0.824  10.741  19.064  0.00  0.00    +0.000 C 
ATOM      8  C   UNL     1      -1.020  10.254  17.665  0.00  0.00    +0.000 C 
ATOM      9  C   UNL     1       0.150  10.435  19.954  0.00  0.00    +0.000 C 
ATOM     10  C   UNL     1      -0.039  10.824  21.445  0.00  0.00    +0.000 C 
ATOM     11  O   UNL     1       0.706  10.397  22.325  0.00  0.00    +0.000 OA
ATOM     12  N   UNL     1      -1.049  13.754  20.666  0.00  0.00    +0.000 N 
ATOM     13  C   UNL     1      -1.980  14.861  20.421  0.00  0.00    +0.000 C 
ATOM     14  C   UNL     1      -1.660  15.831  21.510  0.00  0.00    +0.000 C 
ATOM     15  N   UNL     1      -0.655  16.782  21.353  0.00  0.00    +0.000 NA
ATOM     16  C   UNL     1      -0.303  15.499  22.159  0.00  0.00    +0.000 C 
ATOM     17  H   UNL     1      -0.692  17.547  22.030  0.00  0.00    +0.000 HD
ENDROOT
BRANCH   1  19
ATOM     18  C   UNL     1       1.743  14.072  20.578  0.00  0.00    +0.000 C 
ATOM     19  O   UNL     1       1.123  13.575  21.785  0.00  0.00    +0.000 OA
ENDBRANCH   1  19
BRANCH   2  20
ATOM     20  C   UNL     1      -2.278  13.315  23.485  0.00  0.00    +0.000 C 
BRANCH  20  21
ATOM     21  O   UNL     1      -3.122  12.192  23.804  0.00  0.00    +0.000 OA
BRANCH  21  22
ATOM     22  C   UNL     1      -4.202  12.488  24.538  0.00  0.00    +0.000 C 
ATOM     23  N   UNL     1      -4.028  13.670  25.192  0.00  0.00    +0.000 N 
ATOM     24  O   UNL     1      -5.235  11.851  24.617  0.00  0.00    +0.000 OA
ATOM     25  H   UNL     1      -3.231  14.255  24.989  0.00  0.00    +0.000 HD
ATOM     26  H   UNL     1      -4.823  14.067  25.672  0.00  0.00    +0.000 HD
ENDBRANCH  21  22
ENDBRANCH  20  21
ENDBRANCH   2  20
BRANCH   9  27
ATOM     27  O   UNL     1       1.329   9.759  19.672  0.00  0.00    +0.000 OA
BRANCH  27  28
ATOM     28  C   UNL     1       1.326   8.408  19.178  0.00  0.00    +0.000 C 
ATOM     29  C   UNL     1       2.208   8.165  17.964  0.00  0.00    +0.000 C 
ATOM     30  C   UNL     1       2.838   6.813  18.213  0.00  0.00    +0.000 C 
ATOM     31  O   UNL     1       2.915   6.645  19.626  0.00  0.00    +0.000 OA
ATOM     32  C   UNL     1       1.922   7.478  20.237  0.00  0.00    +0.000 C 
ENDBRANCH  27  28
ENDBRANCH   9  27
TORSDOF 6
ENDMDL
MODEL 7
REMARK VINA RESULT:      -6.4      2.171      6.969
REMARK  Name = 
REMARK  8 active torsions:
REMARK  status: ('A' for Active; 'I' for Inactive)
REMARK    1  A    between atoms: C_1  and  O_2
REMARK    2  A    between atoms: O_2  and  C_3
REMARK    3  A    between atoms: C_4  and  C_5
REMARK    4  A    between atoms: C_5  and  O_6
REMARK    5  A    between atoms: O_6  and  C_7
REMARK    6  A    between atoms: C_14  and  C_15
REMARK    7  A    between atoms: C_16  and  O_17
REMARK    8  A    between atoms: O_17  and  C_18
REMARK                            x       y       z     vdW  Elec       q    Type
REMARK                         _______ _______ _______ _____ _____    ______ ____
ROOT
ATOM      1  C   UNL     1       5.195   5.980  17.837  0.00  0.00    +0.000 C 
ATOM      2  C   UNL     1       4.349   5.139  16.811  0.00  0.00    +0.000 C 
ATOM      3  C   UNL     1       3.457   4.427  17.850  0.00  0.00    +0.000 C 
ATOM      4  C   UNL     1       4.264   4.086  18.853  0.00  0.00    +0.000 C 
ATOM      5  C   UNL     1       3.767   3.328  19.996  0.00  0.00    +0.000 C 
ATOM      6  O   UNL     1       4.349   2.326  20.387  0.00  0.00    +0.000 OA
ATOM      7  C   UNL     1       2.549   3.894  20.612  0.00  0.00    +0.000 C 
ATOM      8  C   UNL     1       2.262   3.334  21.968  0.00  0.00    +0.000 C 
ATOM      9  C   UNL     1       1.863   4.819  19.900  0.00  0.00    +0.000 C 
ATOM     10  C   UNL     1       2.184   5.002  18.392  0.00  0.00    +0.000 C 
ATOM     11  O   UNL     1       1.463   5.672  17.654  0.00  0.00    +0.000 OA
ATOM     12  N   UNL     1       5.331   4.981  18.947  0.00  0.00    +0.000 N 
ATOM     13  C   UNL     1       6.705   4.473  19.017  0.00  0.00    +0.000 C 
ATOM     14  C   UNL     1       7.423   5.271  17.980  0.00  0.00    +0.000 C 
ATOM     15  N   UNL     1       7.981   6.511  18.285  0.00  0.00    +0.000 NA
ATOM     16  C   UNL     1       6.599   6.506  17.569  0.00  0.00    +0.000 C 
ATOM     17  H   UNL     1       8.660   6.846  17.599  0.00  0.00    +0.000 HD
ENDROOT
BRANCH   1  19
ATOM     18  C   UNL     1       3.982   7.922  17.074  0.00  0.00    +0.000 C 
ATOM     19  O   UNL     1       4.335   7.093  18.204  0.00  0.00    +0.000 OA
ENDBRANCH   1  19
BRANCH   2  20
ATOM     20  C   UNL     1       5.137   4.110  15.971  0.00  0.00    +0.000 C 
BRANCH  20  21
ATOM     21  O   UNL     1       5.271   4.466  14.582  0.00  0.00    +0.000 OA
BRANCH  21  22
ATOM     22  C   UNL     1       6.526   4.452  14.114  0.00  0.00    +0.000 C 
ATOM     23  N   UNL     1       6.652   3.541  13.110  0.00  0.00    +0.000 N 
ATOM     24  O   UNL     1       7.451   5.158  14.468  0.00  0.00    +0.000 OA
ATOM     25  H   UNL     1       5.838   3.082  12.728  0.00  0.00    +0.000 HD
ATOM     26  H   UNL     1       7.516   3.531  12.586  0.00  0.00    +0.000 HD
ENDBRANCH  21  22
ENDBRANCH  20  21
ENDBRANCH   2  20
BRANCH   9  27
ATOM     27  O   UNL     1       0.845   5.630  20.383  0.00  0.00    +0.000 OA
BRANCH  27  28
ATOM     28  C   UNL     1       1.123   6.874  21.048  0.00  0.00    +0.000 C 
ATOM     29  C   UNL     1       1.852   7.907  20.203  0.00  0.00    +0.000 C 
ATOM     30  C   UNL     1       1.204   9.224  20.566  0.00  0.00    +0.000 C 
ATOM     31  O   UNL     1      -0.135   8.935  20.959  0.00  0.00    +0.000 OA
ATOM     32  C   UNL     1      -0.195   7.570  21.395  0.00  0.00    +0.000 C 
ENDBRANCH  27  28
ENDBRANCH   9  27
TORSDOF 6
ENDMDL
MODEL 8
REMARK VINA RESULT:      -6.3      2.880      5.310
REMARK  Name = 
REMARK  8 active torsions:
REMARK  status: ('A' for Active; 'I' for Inactive)
REMARK    1  A    between atoms: C_1  and  O_2
REMARK    2  A    between atoms: O_2  and  C_3
REMARK    3  A    between atoms: C_4  and  C_5
REMARK    4  A    between atoms: C_5  and  O_6
REMARK    5  A    between atoms: O_6  and  C_7
REMARK    6  A    between atoms: C_14  and  C_15
REMARK    7  A    between atoms: C_16  and  O_17
REMARK    8  A    between atoms: O_17  and  C_18
REMARK                            x       y       z     vdW  Elec       q    Type
REMARK                         _______ _______ _______ _____ _____    ______ ____
ROOT
ATOM      1  C   UNL     1       3.110   3.802  19.768  0.00  0.00    +0.000 C 
ATOM      2  C   UNL     1       4.524   3.270  20.208  0.00  0.00    +0.000 C 
ATOM      3  C   UNL     1       5.309   3.812  18.996  0.00  0.00    +0.000 C 
ATOM      4  C   UNL     1       4.546   3.577  17.930  0.00  0.00    +0.000 C 
ATOM      5  C   UNL     1       5.007   3.904  16.586  0.00  0.00    +0.000 C 
ATOM      6  O   UNL     1       4.943   3.081  15.683  0.00  0.00    +0.000 OA
ATOM      7  C   UNL     1       5.516   5.283  16.440  0.00  0.00    +0.000 C 
ATOM      8  C   UNL     1       5.644   5.715  15.015  0.00  0.00    +0.000 C 
ATOM      9  C   UNL     1       5.796   5.966  17.575  0.00  0.00    +0.000 C 
ATOM     10  C   UNL     1       5.880   5.195  18.920  0.00  0.00    +0.000 C 
ATOM     11  O   UNL     1       6.327   5.719  19.939  0.00  0.00    +0.000 OA
ATOM     12  N   UNL     1       3.196   3.580  18.287  0.00  0.00    +0.000 N 
ATOM     13  C   UNL     1       2.332   2.466  17.883  0.00  0.00    +0.000 C 
ATOM     14  C   UNL     1       1.641   2.085  19.149  0.00  0.00    +0.000 C 
ATOM     15  N   UNL     1       0.463   2.714  19.543  0.00  0.00    +0.000 NA
ATOM     16  C   UNL     1       1.785   3.194  20.209  0.00  0.00    +0.000 C 
ATOM     17  H   UNL     1      -0.058   2.214  20.266  0.00  0.00    +0.000 HD
ENDROOT
BRANCH   1  19
ATOM     18  C   UNL     1       2.264   6.003  19.256  0.00  0.00    +0.000 C 
ATOM     19  O   UNL     1       3.120   5.214  20.112  0.00  0.00    +0.000 OA
ENDBRANCH   1  19
BRANCH   2  20
ATOM     20  C   UNL     1       4.665   1.735  20.310  0.00  0.00    +0.000 C 
BRANCH  20  21
ATOM     21  O   UNL     1       5.311   1.284  21.515  0.00  0.00    +0.000 OA
BRANCH  21  22
ATOM     22  C   UNL     1       5.891   0.079  21.428  0.00  0.00    +0.000 C 
ATOM     23  N   UNL     1       6.344  -0.324  22.647  0.00  0.00    +0.000 N 
ATOM     24  O   UNL     1       5.992  -0.618  20.436  0.00  0.00    +0.000 OA
ATOM     25  H   UNL     1       6.110   0.198  23.479  0.00  0.00    +0.000 HD
ATOM     26  H   UNL     1       6.680  -1.272  22.737  0.00  0.00    +0.000 HD
ENDBRANCH  21  22
ENDBRANCH  20  21
ENDBRANCH   2  20
BRANCH   9  27
ATOM     27  O   UNL     1       6.056   7.327  17.665  0.00  0.00    +0.000 OA
BRANCH  27  28
ATOM     28  C   UNL     1       7.371   7.861  17.437  0.00  0.00    +0.000 C 
ATOM     29  C   UNL     1       7.456   9.380  17.427  0.00  0.00    +0.000 C 
ATOM     30  C   UNL     1       8.747   9.695  18.151  0.00  0.00    +0.000 C 
ATOM     31  O   UNL     1       8.981   8.629  19.067  0.00  0.00    +0.000 OA
ATOM     32  C   UNL     1       8.289   7.465  18.595  0.00  0.00    +0.000 C 
ENDBRANCH  27  28
ENDBRANCH   9  27
TORSDOF 6
ENDMDL
MODEL 9
REMARK VINA RESULT:      -6.2      6.909     12.030
REMARK  Name = 
REMARK  8 active torsions:
REMARK  status: ('A' for Active; 'I' for Inactive)
REMARK    1  A    between atoms: C_1  and  O_2
REMARK    2  A    between atoms: O_2  and  C_3
REMARK    3  A    between atoms: C_4  and  C_5
REMARK    4  A    between atoms: C_5  and  O_6
REMARK    5  A    between atoms: O_6  and  C_7
REMARK    6  A    between atoms: C_14  and  C_15
REMARK    7  A    between atoms: C_16  and  O_17
REMARK    8  A    between atoms: O_17  and  C_18
REMARK                            x       y       z     vdW  Elec       q    Type
REMARK                         _______ _______ _______ _____ _____    ______ ____
ROOT
ATOM      1  C   UNL     1      -1.646  12.443  20.330  0.00  0.00    +0.000 C 
ATOM      2  C   UNL     1      -1.144  11.452  21.444  0.00  0.00    +0.000 C 
ATOM      3  C   UNL     1      -1.203  12.452  22.618  0.00  0.00    +0.000 C 
ATOM      4  C   UNL     1      -0.723  13.601  22.145  0.00  0.00    +0.000 C 
ATOM      5  C   UNL     1      -0.568  14.765  23.009  0.00  0.00    +0.000 C 
ATOM      6  O   UNL     1       0.484  15.388  23.042  0.00  0.00    +0.000 OA
ATOM      7  C   UNL     1      -1.778  15.105  23.787  0.00  0.00    +0.000 C 
ATOM      8  C   UNL     1      -1.730  16.477  24.378  0.00  0.00    +0.000 C 
ATOM      9  C   UNL     1      -2.749  14.166  23.868  0.00  0.00    +0.000 C 
ATOM     10  C   UNL     1      -2.431  12.709  23.435  0.00  0.00    +0.000 C 
ATOM     11  O   UNL     1      -3.200  11.780  23.677  0.00  0.00    +0.000 OA
ATOM     12  N   UNL     1      -0.967  13.704  20.775  0.00  0.00    +0.000 N 
ATOM     13  C   UNL     1       0.128  14.048  19.862  0.00  0.00    +0.000 C 
ATOM     14  C   UNL     1       0.027  13.013  18.792  0.00  0.00    +0.000 C 
ATOM     15  N   UNL     1      -0.804  13.196  17.690  0.00  0.00    +0.000 NA
ATOM     16  C   UNL     1      -1.337  12.299  18.845  0.00  0.00    +0.000 C 
ATOM     17  H   UNL     1      -0.607  12.569  16.907  0.00  0.00    +0.000 HD
ENDROOT
BRANCH   1  19
ATOM     18  C   UNL     1      -3.814  12.133  19.317  0.00  0.00    +0.000 C 
ATOM     19  O   UNL     1      -3.088  12.504  20.509  0.00  0.00    +0.000 OA
ENDBRANCH   1  19
BRANCH   2  20
ATOM     20  C   UNL     1       0.290  10.905  21.262  0.00  0.00    +0.000 C 
BRANCH  20  21
ATOM     21  O   UNL     1       0.355   9.660  20.541  0.00  0.00    +0.000 OA
BRANCH  21  22
ATOM     22  C   UNL     1       0.333   8.562  21.308  0.00  0.00    +0.000 C 
ATOM     23  N   UNL     1       1.595   8.092  21.507  0.00  0.00    +0.000 N 
ATOM     24  O   UNL     1      -0.640   8.038  21.815  0.00  0.00    +0.000 OA
ATOM     25  H   UNL     1       2.396   8.630  21.210  0.00  0.00    +0.000 HD
ATOM     26  H   UNL     1       1.723   7.347  22.178  0.00  0.00    +0.000 HD
ENDBRANCH  21  22
ENDBRANCH  20  21
ENDBRANCH   2  20
BRANCH   9  27
ATOM     27  O   UNL     1      -4.038  14.365  24.343  0.00  0.00    +0.000 OA
BRANCH  27  28
ATOM     28  C   UNL     1      -5.094  14.837  23.488  0.00  0.00    +0.000 C 
ATOM     29  C   UNL     1      -4.659  15.221  22.082  0.00  0.00    +0.000 C 
ATOM     30  C   UNL     1      -5.771  14.718  21.187  0.00  0.00    +0.000 C 
ATOM     31  O   UNL     1      -6.358  13.598  21.843  0.00  0.00    +0.000 OA
ATOM     32  C   UNL     1      -6.098  13.708  23.249  0.00  0.00    +0.000 C 
ENDBRANCH  27  28
ENDBRANCH   9  27
TORSDOF 6
ENDMDL
