MODEL 1
REMARK VINA RESULT:      -6.6      0.000      0.000
REMARK  Name = 
REMARK  3 active torsions:
REMARK  status: ('A' for Active; 'I' for Inactive)
REMARK    1  A    between atoms: C_5  and  C_6
REMARK    2  A    between atoms: C_6  and  C_7
REMARK    3  A    between atoms: C_7  and  N_8
REMARK                            x       y       z     vdW  Elec       q    Type
REMARK                         _______ _______ _______ _____ _____    ______ ____
ROOT
ATOM      1  C   UNL     1       7.187   4.876  15.172  0.00  0.00    +0.000 A 
ATOM      2  C   UNL     1       5.977   4.539  14.571  0.00  0.00    +0.000 A 
ATOM      3  C   UNL     1       4.892   4.101  15.342  0.00  0.00    +0.000 A 
ATOM      4  C   UNL     1       5.030   3.987  16.743  0.00  0.00    +0.000 A 
ATOM      5  C   UNL     1       4.157   3.594  17.811  0.00  0.00    +0.000 A 
ATOM      6  C   UNL     1       4.886   3.712  18.980  0.00  0.00    +0.000 A 
ATOM      7  N   UNL     1       6.140   4.158  18.669  0.00  0.00    +0.000 N 
ATOM      8  C   UNL     1       6.257   4.333  17.311  0.00  0.00    +0.000 A 
ATOM      9  C   UNL     1       7.351   4.782  16.557  0.00  0.00    +0.000 A 
ATOM     10  H   UNL     1       6.873   4.352  19.335  0.00  0.00    +0.000 HD
ENDROOT
BRANCH   5  11
ATOM     11  C   UNL     1       2.712   3.199  17.730  0.00  0.00    +0.000 C 
BRANCH  11  12
ATOM     12  C   UNL     1       1.727   4.260  18.244  0.00  0.00    +0.000 C 
BRANCH  12  13
ATOM     13  N   UNL     1       0.993   3.723  19.399  0.00  0.00    +0.000 NA
ATOM     14  C   UNL     1       1.500   2.380  19.794  0.00  0.00    +0.000 C 
ATOM     15  C   UNL     1       1.296   2.833  21.256  0.00  0.00    +0.000 C 
ATOM     16  C   UNL     1       1.550   4.243  20.683  0.00  0.00    +0.000 C 
ENDBRANCH  12  13
ENDBRANCH  11  12
ENDBRANCH   5  11
TORSDOF 3
ENDMDL
MODEL 2
REMARK VINA RESULT:      -6.4      1.822      5.531
REMARK  Name = 
REMARK  3 active torsions:
REMARK  status: ('A' for Active; 'I' for Inactive)
REMARK    1  A    between atoms: C_5  and  C_6
REMARK    2  A    between atoms: C_6  and  C_7
REMARK    3  A    between atoms: C_7  and  N_8
REMARK                            x       y       z     vdW  Elec       q    Type
REMARK                         _______ _______ _______ _____ _____    ______ ____
ROOT
ATOM      1  C   UNL     1       1.447   2.342  19.001  0.00  0.00    +0.000 A 
ATOM      2  C   UNL     1       2.198   2.366  17.829  0.00  0.00    +0.000 A 
ATOM      3  C   UNL     1       2.861   3.533  17.427  0.00  0.00    +0.000 A 
ATOM      4  C   UNL     1       2.759   4.702  18.212  0.00  0.00    +0.000 A 
ATOM      5  C   UNL     1       3.293   6.029  18.114  0.00  0.00    +0.000 A 
ATOM      6  C   UNL     1       2.835   6.722  19.219  0.00  0.00    +0.000 A 
ATOM      7  N   UNL     1       2.062   5.881  19.971  0.00  0.00    +0.000 N 
ATOM      8  C   UNL     1       1.997   4.642  19.380  0.00  0.00    +0.000 A 
ATOM      9  C   UNL     1       1.333   3.481  19.803  0.00  0.00    +0.000 A 
ATOM     10  H   UNL     1       1.618   6.121  20.845  0.00  0.00    +0.000 HD
ENDROOT
BRANCH   5  11
ATOM     11  C   UNL     1       4.228   6.578  17.077  0.00  0.00    +0.000 C 
BRANCH  11  12
ATOM     12  C   UNL     1       5.718   6.467  17.433  0.00  0.00    +0.000 C 
BRANCH  12  13
ATOM     13  N   UNL     1       6.469   6.025  16.249  0.00  0.00    +0.000 NA
ATOM     14  C   UNL     1       6.990   4.640  16.416  0.00  0.00    +0.000 C 
ATOM     15  C   UNL     1       6.642   4.427  14.927  0.00  0.00    +0.000 C 
ATOM     16  C   UNL     1       5.556   5.489  15.197  0.00  0.00    +0.000 C 
ENDBRANCH  12  13
ENDBRANCH  11  12
ENDBRANCH   5  11
TORSDOF 3
ENDMDL
MODEL 3
REMARK VINA RESULT:      -6.3      1.520      1.906
REMARK  Name = 
REMARK  3 active torsions:
REMARK  status: ('A' for Active; 'I' for Inactive)
REMARK    1  A    between atoms: C_5  and  C_6
REMARK    2  A    between atoms: C_6  and  C_7
REMARK    3  A    between atoms: C_7  and  N_8
REMARK                            x       y       z     vdW  Elec       q    Type
REMARK                         _______ _______ _______ _____ _____    ______ ____
ROOT
ATOM      1  C   UNL     1       7.183   6.086  16.712  0.00  0.00    +0.000 A 
ATOM      2  C   UNL     1       6.231   7.027  17.096  0.00  0.00    +0.000 A 
ATOM      3  C   UNL     1       4.939   6.629  17.465  0.00  0.00    +0.000 A 
ATOM      4  C   UNL     1       4.593   5.260  17.436  0.00  0.00    +0.000 A 
ATOM      5  C   UNL     1       3.408   4.516  17.747  0.00  0.00    +0.000 A 
ATOM      6  C   UNL     1       3.709   3.184  17.530  0.00  0.00    +0.000 A 
ATOM      7  N   UNL     1       5.009   3.094  17.114  0.00  0.00    +0.000 N 
ATOM      8  C   UNL     1       5.572   4.345  17.046  0.00  0.00    +0.000 A 
ATOM      9  C   UNL     1       6.873   4.723  16.682  0.00  0.00    +0.000 A 
ATOM     10  H   UNL     1       5.496   2.235  16.905  0.00  0.00    +0.000 HD
ENDROOT
BRANCH   5  11
ATOM     11  C   UNL     1       2.101   5.031  18.275  0.00  0.00    +0.000 C 
BRANCH  11  12
ATOM     12  C   UNL     1       2.175   5.642  19.683  0.00  0.00    +0.000 C 
BRANCH  12  13
ATOM     13  N   UNL     1       1.423   4.796  20.620  0.00  0.00    +0.000 NA
ATOM     14  C   UNL     1       0.906   3.568  19.956  0.00  0.00    +0.000 C 
ATOM     15  C   UNL     1       1.252   2.823  21.264  0.00  0.00    +0.000 C 
ATOM     16  C   UNL     1       2.336   3.913  21.405  0.00  0.00    +0.000 C 
ENDBRANCH  12  13
ENDBRANCH  11  12
ENDBRANCH   5  11
TORSDOF 3
ENDMDL
MODEL 4
REMARK VINA RESULT:      -6.3      1.523      5.624
REMARK  Name = 
REMARK  3 active torsions:
REMARK  status: ('A' for Active; 'I' for Inactive)
REMARK    1  A    between atoms: C_5  and  C_6
REMARK    2  A    between atoms: C_6  and  C_7
REMARK    3  A    between atoms: C_7  and  N_8
REMARK                            x       y       z     vdW  Elec       q    Type
REMARK                         _______ _______ _______ _____ _____    ______ ____
ROOT
ATOM      1  C   UNL     1       1.304   3.746  21.036  0.00  0.00    +0.000 A 
ATOM      2  C   UNL     1       1.860   4.955  20.627  0.00  0.00    +0.000 A 
ATOM      3  C   UNL     1       2.675   5.022  19.490  0.00  0.00    +0.000 A 
ATOM      4  C   UNL     1       2.948   3.847  18.755  0.00  0.00    +0.000 A 
ATOM      5  C   UNL     1       3.707   3.552  17.574  0.00  0.00    +0.000 A 
ATOM      6  C   UNL     1       3.569   2.196  17.345  0.00  0.00    +0.000 A 
ATOM      7  N   UNL     1       2.767   1.668  18.318  0.00  0.00    +0.000 N 
ATOM      8  C   UNL     1       2.375   2.652  19.193  0.00  0.00    +0.000 A 
ATOM      9  C   UNL     1       1.549   2.568  20.324  0.00  0.00    +0.000 A 
ATOM     10  H   UNL     1       2.484   0.702  18.380  0.00  0.00    +0.000 HD
ENDROOT
BRANCH   5  11
ATOM     11  C   UNL     1       4.455   4.507  16.691  0.00  0.00    +0.000 C 
BRANCH  11  12
ATOM     12  C   UNL     1       5.830   4.005  16.224  0.00  0.00    +0.000 C 
BRANCH  12  13
ATOM     13  N   UNL     1       6.847   5.023  16.525  0.00  0.00    +0.000 NA
ATOM     14  C   UNL     1       6.254   6.202  17.215  0.00  0.00    +0.000 C 
ATOM     15  C   UNL     1       7.538   6.233  18.071  0.00  0.00    +0.000 C 
ATOM     16  C   UNL     1       7.561   4.715  17.799  0.00  0.00    +0.000 C 
ENDBRANCH  12  13
ENDBRANCH  11  12
ENDBRANCH   5  11
TORSDOF 3
ENDMDL
MODEL 5
REMARK VINA RESULT:      -6.2      1.907      2.278
REMARK  Name = 
REMARK  3 active torsions:
REMARK  status: ('A' for Active; 'I' for Inactive)
REMARK    1  A    between atoms: C_5  and  C_6
REMARK    2  A    between atoms: C_6  and  C_7
REMARK    3  A    between atoms: C_7  and  N_8
REMARK                            x       y       z     vdW  Elec       q    Type
REMARK                         _______ _______ _______ _____ _____    ______ ____
ROOT
ATOM      1  C   UNL     1       7.960   7.329  18.117  0.00  0.00    +0.000 A 
ATOM      2  C   UNL     1       6.940   7.724  17.256  0.00  0.00    +0.000 A 
ATOM      3  C   UNL     1       5.751   6.987  17.170  0.00  0.00    +0.000 A 
ATOM      4  C   UNL     1       5.590   5.824  17.954  0.00  0.00    +0.000 A 
ATOM      5  C   UNL     1       4.539   4.863  18.123  0.00  0.00    +0.000 A 
ATOM      6  C   UNL     1       4.985   3.952  19.062  0.00  0.00    +0.000 A 
ATOM      7  N   UNL     1       6.239   4.320  19.466  0.00  0.00    +0.000 N 
ATOM      8  C   UNL     1       6.634   5.457  18.805  0.00  0.00    +0.000 A 
ATOM      9  C   UNL     1       7.827   6.187  18.912  0.00  0.00    +0.000 A 
ATOM     10  H   UNL     1       6.792   3.842  20.162  0.00  0.00    +0.000 HD
ENDROOT
BRANCH   5  11
ATOM     11  C   UNL     1       3.182   4.851  17.485  0.00  0.00    +0.000 C 
BRANCH  11  12
ATOM     12  C   UNL     1       2.617   3.450  17.204  0.00  0.00    +0.000 C 
BRANCH  12  13
ATOM     13  N   UNL     1       1.411   3.239  18.018  0.00  0.00    +0.000 NA
ATOM     14  C   UNL     1       1.602   2.143  19.007  0.00  0.00    +0.000 C 
ATOM     15  C   UNL     1       0.792   3.013  19.992  0.00  0.00    +0.000 C 
ATOM     16  C   UNL     1       1.363   4.187  19.170  0.00  0.00    +0.000 C 
ENDBRANCH  12  13
ENDBRANCH  11  12
ENDBRANCH   5  11
TORSDOF 3
ENDMDL
MODEL 6
REMARK VINA RESULT:      -6.2      1.910      2.950
REMARK  Name = 
REMARK  3 active torsions:
REMARK  status: ('A' for Active; 'I' for Inactive)
REMARK    1  A    between atoms: C_5  and  C_6
REMARK    2  A    between atoms: C_6  and  C_7
REMARK    3  A    between atoms: C_7  and  N_8
REMARK                            x       y       z     vdW  Elec       q    Type
REMARK                         _______ _______ _______ _____ _____    ______ ____
ROOT
ATOM      1  C   UNL     1       7.341   4.342  11.958  0.00  0.00    +0.000 A 
ATOM      2  C   UNL     1       6.204   3.556  12.127  0.00  0.00    +0.000 A 
ATOM      3  C   UNL     1       5.538   3.515  13.359  0.00  0.00    +0.000 A 
ATOM      4  C   UNL     1       6.031   4.270  14.446  0.00  0.00    +0.000 A 
ATOM      5  C   UNL     1       5.614   4.469  15.804  0.00  0.00    +0.000 A 
ATOM      6  C   UNL     1       6.516   5.350  16.369  0.00  0.00    +0.000 A 
ATOM      7  N   UNL     1       7.443   5.691  15.424  0.00  0.00    +0.000 N 
ATOM      8  C   UNL     1       7.173   5.045  14.242  0.00  0.00    +0.000 A 
ATOM      9  C   UNL     1       7.848   5.106  13.013  0.00  0.00    +0.000 A 
ATOM     10  H   UNL     1       8.206   6.338  15.560  0.00  0.00    +0.000 HD
ENDROOT
BRANCH   5  11
ATOM     11  C   UNL     1       4.404   3.910  16.493  0.00  0.00    +0.000 C 
BRANCH  11  12
ATOM     12  C   UNL     1       3.777   4.841  17.542  0.00  0.00    +0.000 C 
BRANCH  12  13
ATOM     13  N   UNL     1       3.525   4.084  18.777  0.00  0.00    +0.000 NA
ATOM     14  C   UNL     1       3.261   2.646  18.493  0.00  0.00    +0.000 C 
ATOM     15  C   UNL     1       4.084   2.338  19.763  0.00  0.00    +0.000 C 
ATOM     16  C   UNL     1       4.803   3.659  19.420  0.00  0.00    +0.000 C 
ENDBRANCH  12  13
ENDBRANCH  11  12
ENDBRANCH   5  11
TORSDOF 3
ENDMDL
MODEL 7
REMARK VINA RESULT:      -6.2      1.887      2.841
REMARK  Name = 
REMARK  3 active torsions:
REMARK  status: ('A' for Active; 'I' for Inactive)
REMARK    1  A    between atoms: C_5  and  C_6
REMARK    2  A    between atoms: C_6  and  C_7
REMARK    3  A    between atoms: C_7  and  N_8
REMARK                            x       y       z     vdW  Elec       q    Type
REMARK                         _______ _______ _______ _____ _____    ______ ____
ROOT
ATOM      1  C   UNL     1       7.188   4.251  11.910  0.00  0.00    +0.000 A 
ATOM      2  C   UNL     1       6.038   3.503  12.147  0.00  0.00    +0.000 A 
ATOM      3  C   UNL     1       5.430   3.504  13.410  0.00  0.00    +0.000 A 
ATOM      4  C   UNL     1       5.996   4.263  14.458  0.00  0.00    +0.000 A 
ATOM      5  C   UNL     1       5.649   4.499  15.829  0.00  0.00    +0.000 A 
ATOM      6  C   UNL     1       6.602   5.363  16.334  0.00  0.00    +0.000 A 
ATOM      7  N   UNL     1       7.493   5.659  15.340  0.00  0.00    +0.000 N 
ATOM      8  C   UNL     1       7.149   5.001  14.185  0.00  0.00    +0.000 A 
ATOM      9  C   UNL     1       7.766   5.019  12.925  0.00  0.00    +0.000 A 
ATOM     10  H   UNL     1       8.280   6.286  15.428  0.00  0.00    +0.000 HD
ENDROOT
BRANCH   5  11
ATOM     11  C   UNL     1       4.458   3.990  16.585  0.00  0.00    +0.000 C 
BRANCH  11  12
ATOM     12  C   UNL     1       4.375   4.461  18.045  0.00  0.00    +0.000 C 
BRANCH  12  13
ATOM     13  N   UNL     1       2.965   4.520  18.458  0.00  0.00    +0.000 NA
ATOM     14  C   UNL     1       2.105   3.668  17.592  0.00  0.00    +0.000 C 
ATOM     15  C   UNL     1       1.334   3.297  18.878  0.00  0.00    +0.000 C 
ATOM     16  C   UNL     1       2.687   3.564  19.571  0.00  0.00    +0.000 C 
ENDBRANCH  12  13
ENDBRANCH  11  12
ENDBRANCH   5  11
TORSDOF 3
ENDMDL
MODEL 8
REMARK VINA RESULT:      -6.2      1.780      5.472
REMARK  Name = 
REMARK  3 active torsions:
REMARK  status: ('A' for Active; 'I' for Inactive)
REMARK    1  A    between atoms: C_5  and  C_6
REMARK    2  A    between atoms: C_6  and  C_7
REMARK    3  A    between atoms: C_7  and  N_8
REMARK                            x       y       z     vdW  Elec       q    Type
REMARK                         _______ _______ _______ _____ _____    ______ ____
ROOT
ATOM      1  C   UNL     1       1.723   5.584  20.580  0.00  0.00    +0.000 A 
ATOM      2  C   UNL     1       2.375   6.582  19.861  0.00  0.00    +0.000 A 
ATOM      3  C   UNL     1       3.196   6.259  18.772  0.00  0.00    +0.000 A 
ATOM      4  C   UNL     1       3.375   4.907  18.406  0.00  0.00    +0.000 A 
ATOM      5  C   UNL     1       4.110   4.232  17.377  0.00  0.00    +0.000 A 
ATOM      6  C   UNL     1       3.864   2.881  17.537  0.00  0.00    +0.000 A 
ATOM      7  N   UNL     1       3.019   2.715  18.599  0.00  0.00    +0.000 N 
ATOM      8  C   UNL     1       2.706   3.933  19.150  0.00  0.00    +0.000 A 
ATOM      9  C   UNL     1       1.873   4.238  20.237  0.00  0.00    +0.000 A 
ATOM     10  H   UNL     1       2.658   1.830  18.925  0.00  0.00    +0.000 HD
ENDROOT
BRANCH   5  11
ATOM     11  C   UNL     1       4.935   4.835  16.279  0.00  0.00    +0.000 C 
BRANCH  11  12
ATOM     12  C   UNL     1       6.335   4.225  16.119  0.00  0.00    +0.000 C 
BRANCH  12  13
ATOM     13  N   UNL     1       7.336   5.154  16.664  0.00  0.00    +0.000 NA
ATOM     14  C   UNL     1       6.723   6.455  17.050  0.00  0.00    +0.000 C 
ATOM     15  C   UNL     1       7.670   6.437  18.269  0.00  0.00    +0.000 C 
ATOM     16  C   UNL     1       7.572   4.904  18.116  0.00  0.00    +0.000 C 
ENDBRANCH  12  13
ENDBRANCH  11  12
ENDBRANCH   5  11
TORSDOF 3
ENDMDL
MODEL 9
REMARK VINA RESULT:      -6.2      1.590      5.547
REMARK  Name = 
REMARK  3 active torsions:
REMARK  status: ('A' for Active; 'I' for Inactive)
REMARK    1  A    between atoms: C_5  and  C_6
REMARK    2  A    between atoms: C_6  and  C_7
REMARK    3  A    between atoms: C_7  and  N_8
REMARK                            x       y       z     vdW  Elec       q    Type
REMARK                         _______ _______ _______ _____ _____    ______ ____
ROOT
ATOM      1  C   UNL     1       1.509   2.719  20.344  0.00  0.00    +0.000 A 
ATOM      2  C   UNL     1       1.001   3.654  19.446  0.00  0.00    +0.000 A 
ATOM      3  C   UNL     1       1.860   4.410  18.637  0.00  0.00    +0.000 A 
ATOM      4  C   UNL     1       3.257   4.231  18.741  0.00  0.00    +0.000 A 
ATOM      5  C   UNL     1       4.396   4.805  18.086  0.00  0.00    +0.000 A 
ATOM      6  C   UNL     1       5.512   4.192  18.624  0.00  0.00    +0.000 A 
ATOM      7  N   UNL     1       5.101   3.282  19.558  0.00  0.00    +0.000 N 
ATOM      8  C   UNL     1       3.731   3.286  19.652  0.00  0.00    +0.000 A 
ATOM      9  C   UNL     1       2.886   2.514  20.463  0.00  0.00    +0.000 A 
ATOM     10  H   UNL     1       5.709   2.678  20.091  0.00  0.00    +0.000 HD
ENDROOT
BRANCH   5  11
ATOM     11  C   UNL     1       4.416   5.818  16.979  0.00  0.00    +0.000 C 
BRANCH  11  12
ATOM     12  C   UNL     1       5.810   6.365  16.635  0.00  0.00    +0.000 C 
BRANCH  12  13
ATOM     13  N   UNL     1       6.235   5.830  15.333  0.00  0.00    +0.000 NA
ATOM     14  C   UNL     1       7.137   4.656  15.491  0.00  0.00    +0.000 C 
ATOM     15  C   UNL     1       6.404   4.044  14.278  0.00  0.00    +0.000 C 
ATOM     16  C   UNL     1       5.216   4.894  14.773  0.00  0.00    +0.000 C 
ENDBRANCH  12  13
ENDBRANCH  11  12
ENDBRANCH   5  11
TORSDOF 3
ENDMDL
