MODEL 1
REMARK VINA RESULT:      -7.8      0.000      0.000
REMARK  Name = 
REMARK  1 active torsions:
REMARK  status: ('A' for Active; 'I' for Inactive)
REMARK    1  A    between atoms: C_1  and  N_2
REMARK                            x       y       z     vdW  Elec       q    Type
REMARK                         _______ _______ _______ _____ _____    ______ ____
ROOT
ATOM      1  C   UNL     1       2.946   2.064  16.990  0.00  0.00    +0.000 C 
ATOM      2  N   UNL     1       3.266   3.181  17.848  0.00  0.00    +0.000 N 
ATOM      3  C   UNL     1       4.207   4.178  17.622  0.00  0.00    +0.000 A 
ATOM      4  C   UNL     1       4.139   5.010  18.731  0.00  0.00    +0.000 A 
ATOM      5  C   UNL     1       2.983   4.650  19.472  0.00  0.00    +0.000 A 
ATOM      6  C   UNL     1       2.372   5.154  20.626  0.00  0.00    +0.000 A 
ATOM      7  C   UNL     1       2.205   4.265  21.679  0.00  0.00    +0.000 A 
ATOM      8  C   UNL     1       2.197   2.899  21.420  0.00  0.00    +0.000 A 
ATOM      9  C   UNL     1       2.316   2.410  20.102  0.00  0.00    +0.000 A 
ATOM     10  C   UNL     1       2.812   3.308  19.151  0.00  0.00    +0.000 A 
ATOM     11  C   UNL     1       5.218   5.939  19.139  0.00  0.00    +0.000 C 
ATOM     12  C   UNL     1       6.571   5.232  19.242  0.00  0.00    +0.000 C 
ATOM     13  O   UNL     1       7.235   5.233  20.265  0.00  0.00    +0.000 OA
ATOM     14  N   UNL     1       7.144   4.715  18.091  0.00  0.00    +0.000 N 
ATOM     15  C   UNL     1       6.559   4.555  16.811  0.00  0.00    +0.000 A 
ATOM     16  C   UNL     1       7.407   4.691  15.719  0.00  0.00    +0.000 A 
ATOM     17  C   UNL     1       6.882   4.644  14.435  0.00  0.00    +0.000 A 
ATOM     18  C   UNL     1       5.528   4.385  14.279  0.00  0.00    +0.000 A 
ATOM     19  N   UNL     1       4.685   4.173  15.313  0.00  0.00    +0.000 NA
ATOM     20  C   UNL     1       5.196   4.269  16.557  0.00  0.00    +0.000 A 
ATOM     21  H   UNL     1       8.123   4.529  18.197  0.00  0.00    +0.000 HD
ENDROOT
TORSDOF 0
ENDMDL
MODEL 2
REMARK VINA RESULT:      -7.2     11.164     13.662
REMARK  Name = 
REMARK  1 active torsions:
REMARK  status: ('A' for Active; 'I' for Inactive)
REMARK    1  A    between atoms: C_1  and  N_2
REMARK                            x       y       z     vdW  Elec       q    Type
REMARK                         _______ _______ _______ _____ _____    ______ ____
ROOT
ATOM      1  C   UNL     1      -2.901  13.097  20.600  0.00  0.00    +0.000 C 
ATOM      2  N   UNL     1      -3.747  12.423  19.645  0.00  0.00    +0.000 N 
ATOM      3  C   UNL     1      -5.130  12.283  19.689  0.00  0.00    +0.000 A 
ATOM      4  C   UNL     1      -5.466  11.558  18.554  0.00  0.00    +0.000 A 
ATOM      5  C   UNL     1      -4.320  11.505  17.720  0.00  0.00    +0.000 A 
ATOM      6  C   UNL     1      -4.066  10.976  16.448  0.00  0.00    +0.000 A 
ATOM      7  C   UNL     1      -3.047  10.037  16.358  0.00  0.00    +0.000 A 
ATOM      8  C   UNL     1      -2.064  10.006  17.341  0.00  0.00    +0.000 A 
ATOM      9  C   UNL     1      -2.068  10.938  18.401  0.00  0.00    +0.000 A 
ATOM     10  C   UNL     1      -3.270  11.617  18.623  0.00  0.00    +0.000 A 
ATOM     11  C   UNL     1      -6.735  10.811  18.392  0.00  0.00    +0.000 C 
ATOM     12  C   UNL     1      -6.996   9.870  19.570  0.00  0.00    +0.000 C 
ATOM     13  O   UNL     1      -7.167   8.671  19.426  0.00  0.00    +0.000 OA
ATOM     14  N   UNL     1      -7.216  10.415  20.825  0.00  0.00    +0.000 N 
ATOM     15  C   UNL     1      -7.033  11.754  21.248  0.00  0.00    +0.000 A 
ATOM     16  C   UNL     1      -7.903  12.222  22.225  0.00  0.00    +0.000 A 
ATOM     17  C   UNL     1      -7.842  13.553  22.616  0.00  0.00    +0.000 A 
ATOM     18  C   UNL     1      -6.857  14.362  22.068  0.00  0.00    +0.000 A 
ATOM     19  N   UNL     1      -5.946  13.926  21.171  0.00  0.00    +0.000 NA
ATOM     20  C   UNL     1      -6.045  12.645  20.763  0.00  0.00    +0.000 A 
ATOM     21  H   UNL     1      -7.646   9.768  21.458  0.00  0.00    +0.000 HD
ENDROOT
TORSDOF 0
ENDMDL
MODEL 3
REMARK VINA RESULT:      -7.0      3.579      4.969
REMARK  Name = 
REMARK  1 active torsions:
REMARK  status: ('A' for Active; 'I' for Inactive)
REMARK    1  A    between atoms: C_1  and  N_2
REMARK                            x       y       z     vdW  Elec       q    Type
REMARK                         _______ _______ _______ _____ _____    ______ ____
ROOT
ATOM      1  C   UNL     1       2.216   9.255  17.444  0.00  0.00    +0.000 C 
ATOM      2  N   UNL     1       2.077   8.500  18.667  0.00  0.00    +0.000 N 
ATOM      3  C   UNL     1       2.605   7.246  18.952  0.00  0.00    +0.000 A 
ATOM      4  C   UNL     1       2.191   6.954  20.244  0.00  0.00    +0.000 A 
ATOM      5  C   UNL     1       1.650   8.141  20.803  0.00  0.00    +0.000 A 
ATOM      6  C   UNL     1       1.138   8.477  22.063  0.00  0.00    +0.000 A 
ATOM      7  C   UNL     1      -0.164   8.958  22.095  0.00  0.00    +0.000 A 
ATOM      8  C   UNL     1      -0.713   9.511  20.943  0.00  0.00    +0.000 A 
ATOM      9  C   UNL     1       0.048   9.625  19.760  0.00  0.00    +0.000 A 
ATOM     10  C   UNL     1       1.201   8.836  19.687  0.00  0.00    +0.000 A 
ATOM     11  C   UNL     1       2.143   5.587  20.811  0.00  0.00    +0.000 C 
ATOM     12  C   UNL     1       1.372   4.622  19.908  0.00  0.00    +0.000 C 
ATOM     13  O   UNL     1       0.406   3.989  20.300  0.00  0.00    +0.000 OA
ATOM     14  N   UNL     1       1.884   4.327  18.655  0.00  0.00    +0.000 N 
ATOM     15  C   UNL     1       2.950   4.957  17.968  0.00  0.00    +0.000 A 
ATOM     16  C   UNL     1       3.717   4.149  17.137  0.00  0.00    +0.000 A 
ATOM     17  C   UNL     1       4.836   4.679  16.510  0.00  0.00    +0.000 A 
ATOM     18  C   UNL     1       5.114   6.028  16.674  0.00  0.00    +0.000 A 
ATOM     19  N   UNL     1       4.351   6.863  17.413  0.00  0.00    +0.000 NA
ATOM     20  C   UNL     1       3.294   6.326  18.057  0.00  0.00    +0.000 A 
ATOM     21  H   UNL     1       1.481   3.499  18.258  0.00  0.00    +0.000 HD
ENDROOT
TORSDOF 0
ENDMDL
MODEL 4
REMARK VINA RESULT:      -6.5      1.574      1.883
REMARK  Name = 
REMARK  1 active torsions:
REMARK  status: ('A' for Active; 'I' for Inactive)
REMARK    1  A    between atoms: C_1  and  N_2
REMARK                            x       y       z     vdW  Elec       q    Type
REMARK                         _______ _______ _______ _____ _____    ______ ____
ROOT
ATOM      1  C   UNL     1       3.898   2.279  16.820  0.00  0.00    +0.000 C 
ATOM      2  N   UNL     1       3.929   3.696  17.095  0.00  0.00    +0.000 N 
ATOM      3  C   UNL     1       4.610   4.680  16.388  0.00  0.00    +0.000 A 
ATOM      4  C   UNL     1       4.328   5.870  17.045  0.00  0.00    +0.000 A 
ATOM      5  C   UNL     1       3.279   5.618  17.967  0.00  0.00    +0.000 A 
ATOM      6  C   UNL     1       2.547   6.421  18.849  0.00  0.00    +0.000 A 
ATOM      7  C   UNL     1       2.579   6.059  20.190  0.00  0.00    +0.000 A 
ATOM      8  C   UNL     1       2.900   4.750  20.532  0.00  0.00    +0.000 A 
ATOM      9  C   UNL     1       3.154   3.781  19.538  0.00  0.00    +0.000 A 
ATOM     10  C   UNL     1       3.437   4.268  18.258  0.00  0.00    +0.000 A 
ATOM     11  C   UNL     1       5.148   7.098  16.926  0.00  0.00    +0.000 C 
ATOM     12  C   UNL     1       6.629   6.823  17.198  0.00  0.00    +0.000 C 
ATOM     13  O   UNL     1       7.257   7.411  18.062  0.00  0.00    +0.000 OA
ATOM     14  N   UNL     1       7.327   6.002  16.326  0.00  0.00    +0.000 N 
ATOM     15  C   UNL     1       6.817   5.182  15.290  0.00  0.00    +0.000 A 
ATOM     16  C   UNL     1       7.626   5.019  14.172  0.00  0.00    +0.000 A 
ATOM     17  C   UNL     1       7.149   4.308  13.079  0.00  0.00    +0.000 A 
ATOM     18  C   UNL     1       5.898   3.714  13.167  0.00  0.00    +0.000 A 
ATOM     19  N   UNL     1       5.113   3.787  14.264  0.00  0.00    +0.000 NA
ATOM     20  C   UNL     1       5.566   4.520  15.301  0.00  0.00    +0.000 A 
ATOM     21  H   UNL     1       8.320   6.101  16.414  0.00  0.00    +0.000 HD
ENDROOT
TORSDOF 0
ENDMDL
MODEL 5
REMARK VINA RESULT:      -6.5      8.830     10.572
REMARK  Name = 
REMARK  1 active torsions:
REMARK  status: ('A' for Active; 'I' for Inactive)
REMARK    1  A    between atoms: C_1  and  N_2
REMARK                            x       y       z     vdW  Elec       q    Type
REMARK                         _______ _______ _______ _____ _____    ______ ____
ROOT
ATOM      1  C   UNL     1       7.711  15.747  20.543  0.00  0.00    +0.000 C 
ATOM      2  N   UNL     1       8.272  14.490  20.979  0.00  0.00    +0.000 N 
ATOM      3  C   UNL     1       9.308  13.776  20.388  0.00  0.00    +0.000 A 
ATOM      4  C   UNL     1       9.473  12.643  21.174  0.00  0.00    +0.000 A 
ATOM      5  C   UNL     1       8.717  12.827  22.361  0.00  0.00    +0.000 A 
ATOM      6  C   UNL     1       8.540  12.072  23.527  0.00  0.00    +0.000 A 
ATOM      7  C   UNL     1       7.236  11.714  23.843  0.00  0.00    +0.000 A 
ATOM      8  C   UNL     1       6.183  12.455  23.318  0.00  0.00    +0.000 A 
ATOM      9  C   UNL     1       6.423  13.584  22.507  0.00  0.00    +0.000 A 
ATOM     10  C   UNL     1       7.705  13.689  21.958  0.00  0.00    +0.000 A 
ATOM     11  C   UNL     1      10.144  11.406  20.715  0.00  0.00    +0.000 C 
ATOM     12  C   UNL     1       9.569  10.903  19.388  0.00  0.00    +0.000 C 
ATOM     13  O   UNL     1       9.105   9.783  19.258  0.00  0.00    +0.000 OA
ATOM     14  N   UNL     1       9.731  11.681  18.253  0.00  0.00    +0.000 N 
ATOM     15  C   UNL     1      10.191  13.017  18.158  0.00  0.00    +0.000 A 
ATOM     16  C   UNL     1      10.907  13.348  17.014  0.00  0.00    +0.000 A 
ATOM     17  C   UNL     1      11.471  14.612  16.902  0.00  0.00    +0.000 A 
ATOM     18  C   UNL     1      11.235  15.537  17.908  0.00  0.00    +0.000 A 
ATOM     19  N   UNL     1      10.483  15.277  19.000  0.00  0.00    +0.000 NA
ATOM     20  C   UNL     1       9.982  14.032  19.122  0.00  0.00    +0.000 A 
ATOM     21  H   UNL     1       9.581  11.165  17.407  0.00  0.00    +0.000 HD
ENDROOT
TORSDOF 0
ENDMDL
MODEL 6
REMARK VINA RESULT:      -6.4      2.009      5.756
REMARK  Name = 
REMARK  1 active torsions:
REMARK  status: ('A' for Active; 'I' for Inactive)
REMARK    1  A    between atoms: C_1  and  N_2
REMARK                            x       y       z     vdW  Elec       q    Type
REMARK                         _______ _______ _______ _____ _____    ______ ____
ROOT
ATOM      1  C   UNL     1       5.735   7.505  17.883  0.00  0.00    +0.000 C 
ATOM      2  N   UNL     1       5.148   6.344  17.259  0.00  0.00    +0.000 N 
ATOM      3  C   UNL     1       4.011   5.651  17.661  0.00  0.00    +0.000 A 
ATOM      4  C   UNL     1       3.862   4.619  16.744  0.00  0.00    +0.000 A 
ATOM      5  C   UNL     1       4.750   4.867  15.666  0.00  0.00    +0.000 A 
ATOM      6  C   UNL     1       5.004   4.224  14.448  0.00  0.00    +0.000 A 
ATOM      7  C   UNL     1       6.309   3.805  14.228  0.00  0.00    +0.000 A 
ATOM      8  C   UNL     1       7.345   4.409  14.932  0.00  0.00    +0.000 A 
ATOM      9  C   UNL     1       7.090   5.464  15.834  0.00  0.00    +0.000 A 
ATOM     10  C   UNL     1       5.765   5.607  16.260  0.00  0.00    +0.000 A 
ATOM     11  C   UNL     1       3.069   3.394  16.996  0.00  0.00    +0.000 C 
ATOM     12  C   UNL     1       3.466   2.718  18.311  0.00  0.00    +0.000 C 
ATOM     13  O   UNL     1       3.842   1.560  18.365  0.00  0.00    +0.000 OA
ATOM     14  N   UNL     1       3.231   3.386  19.502  0.00  0.00    +0.000 N 
ATOM     15  C   UNL     1       2.848   4.736  19.695  0.00  0.00    +0.000 A 
ATOM     16  C   UNL     1       2.036   5.000  20.791  0.00  0.00    +0.000 A 
ATOM     17  C   UNL     1       1.543   6.284  20.984  0.00  0.00    +0.000 A 
ATOM     18  C   UNL     1       1.943   7.287  20.113  0.00  0.00    +0.000 A 
ATOM     19  N   UNL     1       2.790   7.085  19.080  0.00  0.00    +0.000 NA
ATOM     20  C   UNL     1       3.223   5.825  18.874  0.00  0.00    +0.000 A 
ATOM     21  H   UNL     1       3.257   2.777  20.298  0.00  0.00    +0.000 HD
ENDROOT
TORSDOF 0
ENDMDL
MODEL 7
REMARK VINA RESULT:      -6.4      1.833      5.419
REMARK  Name = 
REMARK  1 active torsions:
REMARK  status: ('A' for Active; 'I' for Inactive)
REMARK    1  A    between atoms: C_1  and  N_2
REMARK                            x       y       z     vdW  Elec       q    Type
REMARK                         _______ _______ _______ _____ _____    ______ ____
ROOT
ATOM      1  C   UNL     1       4.085   1.641  17.278  0.00  0.00    +0.000 C 
ATOM      2  N   UNL     1       4.585   2.987  17.429  0.00  0.00    +0.000 N 
ATOM      3  C   UNL     1       4.240   3.913  18.407  0.00  0.00    +0.000 A 
ATOM      4  C   UNL     1       4.984   5.050  18.121  0.00  0.00    +0.000 A 
ATOM      5  C   UNL     1       5.951   4.699  17.142  0.00  0.00    +0.000 A 
ATOM      6  C   UNL     1       6.995   5.389  16.516  0.00  0.00    +0.000 A 
ATOM      7  C   UNL     1       6.954   5.454  15.130  0.00  0.00    +0.000 A 
ATOM      8  C   UNL     1       6.218   4.506  14.427  0.00  0.00    +0.000 A 
ATOM      9  C   UNL     1       5.550   3.461  15.102  0.00  0.00    +0.000 A 
ATOM     10  C   UNL     1       5.348   3.640  16.474  0.00  0.00    +0.000 A 
ATOM     11  C   UNL     1       4.648   6.406  18.610  0.00  0.00    +0.000 C 
ATOM     12  C   UNL     1       3.197   6.781  18.302  0.00  0.00    +0.000 C 
ATOM     13  O   UNL     1       2.898   7.774  17.661  0.00  0.00    +0.000 OA
ATOM     14  N   UNL     1       2.179   6.064  18.911  0.00  0.00    +0.000 N 
ATOM     15  C   UNL     1       2.270   4.861  19.652  0.00  0.00    +0.000 A 
ATOM     16  C   UNL     1       1.361   4.700  20.691  0.00  0.00    +0.000 A 
ATOM     17  C   UNL     1       1.457   3.590  21.518  0.00  0.00    +0.000 A 
ATOM     18  C   UNL     1       2.416   2.629  21.234  0.00  0.00    +0.000 A 
ATOM     19  N   UNL     1       3.269   2.712  20.189  0.00  0.00    +0.000 NA
ATOM     20  C   UNL     1       3.199   3.818  19.421  0.00  0.00    +0.000 A 
ATOM     21  H   UNL     1       1.298   6.541  18.878  0.00  0.00    +0.000 HD
ENDROOT
TORSDOF 0
ENDMDL
MODEL 8
REMARK VINA RESULT:      -6.3      7.800      9.340
REMARK  Name = 
REMARK  1 active torsions:
REMARK  status: ('A' for Active; 'I' for Inactive)
REMARK    1  A    between atoms: C_1  and  N_2
REMARK                            x       y       z     vdW  Elec       q    Type
REMARK                         _______ _______ _______ _____ _____    ______ ____
ROOT
ATOM      1  C   UNL     1      -2.380  10.409  17.456  0.00  0.00    +0.000 C 
ATOM      2  N   UNL     1      -1.960  11.139  18.628  0.00  0.00    +0.000 N 
ATOM      3  C   UNL     1      -0.805  10.945  19.377  0.00  0.00    +0.000 A 
ATOM      4  C   UNL     1      -0.860  11.888  20.395  0.00  0.00    +0.000 A 
ATOM      5  C   UNL     1      -1.905  12.796  20.086  0.00  0.00    +0.000 A 
ATOM      6  C   UNL     1      -2.390  13.962  20.692  0.00  0.00    +0.000 A 
ATOM      7  C   UNL     1      -3.732  13.964  21.049  0.00  0.00    +0.000 A 
ATOM      8  C   UNL     1      -4.605  13.085  20.417  0.00  0.00    +0.000 A 
ATOM      9  C   UNL     1      -4.153  12.226  19.393  0.00  0.00    +0.000 A 
ATOM     10  C   UNL     1      -2.770  12.028  19.316  0.00  0.00    +0.000 A 
ATOM     11  C   UNL     1      -0.093  11.790  21.658  0.00  0.00    +0.000 C 
ATOM     12  C   UNL     1      -0.293  10.437  22.344  0.00  0.00    +0.000 C 
ATOM     13  O   UNL     1      -0.708  10.336  23.486  0.00  0.00    +0.000 OA
ATOM     14  N   UNL     1       0.170   9.294  21.712  0.00  0.00    +0.000 N 
ATOM     15  C   UNL     1       0.641   9.150  20.385  0.00  0.00    +0.000 A 
ATOM     16  C   UNL     1       1.639   8.204  20.179  0.00  0.00    +0.000 A 
ATOM     17  C   UNL     1       2.215   8.080  18.922  0.00  0.00    +0.000 A 
ATOM     18  C   UNL     1       1.721   8.857  17.884  0.00  0.00    +0.000 A 
ATOM     19  N   UNL     1       0.703   9.734  18.027  0.00  0.00    +0.000 NA
ATOM     20  C   UNL     1       0.184   9.881  19.263  0.00  0.00    +0.000 A 
ATOM     21  H   UNL     1       0.251   8.513  22.337  0.00  0.00    +0.000 HD
ENDROOT
TORSDOF 0
ENDMDL
MODEL 9
REMARK VINA RESULT:      -6.2     11.089     12.788
REMARK  Name = 
REMARK  1 active torsions:
REMARK  status: ('A' for Active; 'I' for Inactive)
REMARK    1  A    between atoms: C_1  and  N_2
REMARK                            x       y       z     vdW  Elec       q    Type
REMARK                         _______ _______ _______ _____ _____    ______ ____
ROOT
ATOM      1  C   UNL     1      -1.993  13.135  20.159  0.00  0.00    +0.000 C 
ATOM      2  N   UNL     1      -3.397  12.800  20.184  0.00  0.00    +0.000 N 
ATOM      3  C   UNL     1      -4.086  11.977  19.301  0.00  0.00    +0.000 A 
ATOM      4  C   UNL     1      -5.402  11.976  19.745  0.00  0.00    +0.000 A 
ATOM      5  C   UNL     1      -5.425  12.579  21.029  0.00  0.00    +0.000 A 
ATOM      6  C   UNL     1      -6.429  12.805  21.979  0.00  0.00    +0.000 A 
ATOM      7  C   UNL     1      -6.635  14.123  22.363  0.00  0.00    +0.000 A 
ATOM      8  C   UNL     1      -5.613  15.049  22.187  0.00  0.00    +0.000 A 
ATOM      9  C   UNL     1      -4.362  14.659  21.663  0.00  0.00    +0.000 A 
ATOM     10  C   UNL     1      -4.328  13.431  20.994  0.00  0.00    +0.000 A 
ATOM     11  C   UNL     1      -6.561  11.602  18.903  0.00  0.00    +0.000 C 
ATOM     12  C   UNL     1      -6.577  12.372  17.580  0.00  0.00    +0.000 C 
ATOM     13  O   UNL     1      -7.524  13.058  17.233  0.00  0.00    +0.000 OA
ATOM     14  N   UNL     1      -5.558  12.154  16.668  0.00  0.00    +0.000 N 
ATOM     15  C   UNL     1      -4.344  11.449  16.855  0.00  0.00    +0.000 A 
ATOM     16  C   UNL     1      -3.838  10.778  15.748  0.00  0.00    +0.000 A 
ATOM     17  C   UNL     1      -2.705   9.987  15.885  0.00  0.00    +0.000 A 
ATOM     18  C   UNL     1      -2.065   9.952  17.115  0.00  0.00    +0.000 A 
ATOM     19  N   UNL     1      -2.483  10.648  18.195  0.00  0.00    +0.000 NA
ATOM     20  C   UNL     1      -3.611  11.373  18.063  0.00  0.00    +0.000 A 
ATOM     21  H   UNL     1      -5.790  12.472  15.746  0.00  0.00    +0.000 HD
ENDROOT
TORSDOF 0
ENDMDL
