MODEL 1
REMARK VINA RESULT:      -7.8      0.000      0.000
REMARK  Name = 
REMARK  11 active torsions:
REMARK  status: ('A' for Active; 'I' for Inactive)
REMARK    1  A    between atoms: C_1  and  C_2
REMARK    2  A    between atoms: C_2  and  C_3
REMARK    3  A    between atoms: C_3  and  C_4
REMARK    4  A    between atoms: C_4  and  C_5
REMARK    5  A    between atoms: C_5  and  C_6
REMARK    6  A    between atoms: C_6  and  C_7
REMARK    7  A    between atoms: C_7  and  N_8
REMARK    8  A    between atoms: N_11  and  C_12
REMARK    9  A    between atoms: C_12  and  C_13
REMARK   10  A    between atoms: C_13  and  O_14
REMARK   11  A    between atoms: C_13  and  C_15
REMARK                            x       y       z     vdW  Elec       q    Type
REMARK                         _______ _______ _______ _____ _____    ______ ____
ROOT
ATOM      1  N   UNL     1       4.889   5.012  18.048  0.00  0.00    +0.000 N 
ATOM      2  C   UNL     1       4.156   6.059  17.597  0.00  0.00    +0.000 A 
ATOM      3  N   UNL     1       4.581   6.929  16.736  0.00  0.00    +0.000 NA
ATOM      4  N   UNL     1       2.909   6.108  18.148  0.00  0.00    +0.000 N 
ATOM      5  C   UNL     1       2.886   5.054  18.999  0.00  0.00    +0.000 A 
ATOM      6  C   UNL     1       1.863   4.646  19.859  0.00  0.00    +0.000 A 
ATOM      7  C   UNL     1       2.093   3.512  20.659  0.00  0.00    +0.000 A 
ATOM      8  C   UNL     1       3.320   2.820  20.583  0.00  0.00    +0.000 A 
ATOM      9  C   UNL     1       4.330   3.260  19.721  0.00  0.00    +0.000 A 
ATOM     10  C   UNL     1       4.076   4.392  18.936  0.00  0.00    +0.000 A 
ATOM     11  H   UNL     1       5.515   6.904  16.318  0.00  0.00    +0.000 HD
ENDROOT
BRANCH   1  12
ATOM     12  C   UNL     1       6.241   4.603  17.667  0.00  0.00    +0.000 C 
BRANCH  12  13
ATOM     13  C   UNL     1       6.243   4.088  16.230  0.00  0.00    +0.000 C 
BRANCH  13  14
ATOM     14  C   UNL     1       7.265   4.826  15.371  0.00  0.00    +0.000 C 
BRANCH  14  15
ATOM     15  C   UNL     1       6.788   4.805  13.926  0.00  0.00    +0.000 C 
BRANCH  15  16
ATOM     16  C   UNL     1       5.865   3.624  13.659  0.00  0.00    +0.000 C 
BRANCH  16  18
ATOM     17  C   UNL     1       4.515   3.315  11.536  0.00  0.00    +0.000 C 
ATOM     18  C   UNL     1       5.901   3.292  12.165  0.00  0.00    +0.000 C 
ENDBRANCH  16  18
ENDBRANCH  15  16
ENDBRANCH  14  15
ENDBRANCH  13  14
ENDBRANCH  12  13
ENDBRANCH   1  12
BRANCH   4  19
ATOM     19  C   UNL     1       1.832   7.079  17.936  0.00  0.00    +0.000 C 
BRANCH  19  20
ATOM     20  C   UNL     1       2.220   8.517  18.360  0.00  0.00    +0.000 C 
BRANCH  20  21
ATOM     21  C   UNL     1       1.448   8.981  19.578  0.00  0.00    +0.000 A 
ATOM     22  C   UNL     1       1.506   8.252  20.775  0.00  0.00    +0.000 A 
ATOM     23  C   UNL     1       0.773   8.662  21.889  0.00  0.00    +0.000 A 
ATOM     24  C   UNL     1      -0.038   9.798  21.821  0.00  0.00    +0.000 A 
ATOM     25 CL   UNL     1      -0.969  10.266  23.237  0.00  0.00    +0.000 Cl
ATOM     26  C   UNL     1      -0.102  10.541  20.631  0.00  0.00    +0.000 A 
ATOM     27 CL   UNL     1      -1.111  11.976  20.497  0.00  0.00    +0.000 Cl
ATOM     28  C   UNL     1       0.644  10.137  19.519  0.00  0.00    +0.000 A 
ENDBRANCH  20  21
BRANCH  20  29
ATOM     29  O   UNL     1       2.038   9.431  17.304  0.00  0.00    +0.000 OA
ATOM     30  H   UNL     1       2.757  10.116  17.352  0.00  0.00    +0.000 HD
ENDBRANCH  20  29
ENDBRANCH  19  20
ENDBRANCH   4  19
TORSDOF 10
ENDMDL
MODEL 2
REMARK VINA RESULT:      -7.7      3.594      5.755
REMARK  Name = 
REMARK  11 active torsions:
REMARK  status: ('A' for Active; 'I' for Inactive)
REMARK    1  A    between atoms: C_1  and  C_2
REMARK    2  A    between atoms: C_2  and  C_3
REMARK    3  A    between atoms: C_3  and  C_4
REMARK    4  A    between atoms: C_4  and  C_5
REMARK    5  A    between atoms: C_5  and  C_6
REMARK    6  A    between atoms: C_6  and  C_7
REMARK    7  A    between atoms: C_7  and  N_8
REMARK    8  A    between atoms: N_11  and  C_12
REMARK    9  A    between atoms: C_12  and  C_13
REMARK   10  A    between atoms: C_13  and  O_14
REMARK   11  A    between atoms: C_13  and  C_15
REMARK                            x       y       z     vdW  Elec       q    Type
REMARK                         _______ _______ _______ _____ _____    ______ ____
ROOT
ATOM      1  N   UNL     1       6.806   5.565  17.746  0.00  0.00    +0.000 N 
ATOM      2  C   UNL     1       5.862   4.879  18.435  0.00  0.00    +0.000 A 
ATOM      3  N   UNL     1       5.670   4.988  19.712  0.00  0.00    +0.000 NA
ATOM      4  N   UNL     1       5.126   4.048  17.641  0.00  0.00    +0.000 N 
ATOM      5  C   UNL     1       5.664   4.214  16.409  0.00  0.00    +0.000 A 
ATOM      6  C   UNL     1       5.321   3.579  15.212  0.00  0.00    +0.000 A 
ATOM      7  C   UNL     1       6.047   3.922  14.056  0.00  0.00    +0.000 A 
ATOM      8  C   UNL     1       7.081   4.879  14.120  0.00  0.00    +0.000 A 
ATOM      9  C   UNL     1       7.409   5.490  15.335  0.00  0.00    +0.000 A 
ATOM     10  C   UNL     1       6.671   5.130  16.470  0.00  0.00    +0.000 A 
ATOM     11  H   UNL     1       6.217   5.605  20.318  0.00  0.00    +0.000 HD
ENDROOT
BRANCH   1  12
ATOM     12  C   UNL     1       7.754   6.568  18.232  0.00  0.00    +0.000 C 
BRANCH  12  13
ATOM     13  C   UNL     1       7.825   7.734  17.250  0.00  0.00    +0.000 C 
BRANCH  13  14
ATOM     14  C   UNL     1       7.750   9.078  17.968  0.00  0.00    +0.000 C 
BRANCH  14  15
ATOM     15  C   UNL     1       8.998   9.239  18.824  0.00  0.00    +0.000 C 
BRANCH  15  16
ATOM     16  C   UNL     1       9.308  10.706  19.092  0.00  0.00    +0.000 C 
BRANCH  16  18
ATOM     17  C   UNL     1       9.869  12.754  17.708  0.00  0.00    +0.000 C 
ATOM     18  C   UNL     1      10.116  11.267  17.919  0.00  0.00    +0.000 C 
ENDBRANCH  16  18
ENDBRANCH  15  16
ENDBRANCH  14  15
ENDBRANCH  13  14
ENDBRANCH  12  13
ENDBRANCH   1  12
BRANCH   4  19
ATOM     19  C   UNL     1       4.035   3.139  18.000  0.00  0.00    +0.000 C 
BRANCH  19  20
ATOM     20  C   UNL     1       2.633   3.739  17.732  0.00  0.00    +0.000 C 
BRANCH  20  21
ATOM     21  C   UNL     1       2.364   4.962  18.583  0.00  0.00    +0.000 A 
ATOM     22  C   UNL     1       1.996   4.825  19.930  0.00  0.00    +0.000 A 
ATOM     23  C   UNL     1       1.719   5.950  20.707  0.00  0.00    +0.000 A 
ATOM     24  C   UNL     1       1.793   7.229  20.148  0.00  0.00    +0.000 A 
ATOM     25 CL   UNL     1       1.409   8.620  21.152  0.00  0.00    +0.000 Cl
ATOM     26  C   UNL     1       2.166   7.383  18.803  0.00  0.00    +0.000 A 
ATOM     27 CL   UNL     1       2.269   8.972  18.056  0.00  0.00    +0.000 Cl
ATOM     28  C   UNL     1       2.455   6.255  18.029  0.00  0.00    +0.000 A 
ENDBRANCH  20  21
BRANCH  20  29
ATOM     29  O   UNL     1       1.618   2.784  17.934  0.00  0.00    +0.000 OA
ATOM     30  H   UNL     1       2.029   1.879  17.918  0.00  0.00    +0.000 HD
ENDBRANCH  20  29
ENDBRANCH  19  20
ENDBRANCH   4  19
TORSDOF 10
ENDMDL
MODEL 3
REMARK VINA RESULT:      -7.5      1.494      2.021
REMARK  Name = 
REMARK  11 active torsions:
REMARK  status: ('A' for Active; 'I' for Inactive)
REMARK    1  A    between atoms: C_1  and  C_2
REMARK    2  A    between atoms: C_2  and  C_3
REMARK    3  A    between atoms: C_3  and  C_4
REMARK    4  A    between atoms: C_4  and  C_5
REMARK    5  A    between atoms: C_5  and  C_6
REMARK    6  A    between atoms: C_6  and  C_7
REMARK    7  A    between atoms: C_7  and  N_8
REMARK    8  A    between atoms: N_11  and  C_12
REMARK    9  A    between atoms: C_12  and  C_13
REMARK   10  A    between atoms: C_13  and  O_14
REMARK   11  A    between atoms: C_13  and  C_15
REMARK                            x       y       z     vdW  Elec       q    Type
REMARK                         _______ _______ _______ _____ _____    ______ ____
ROOT
ATOM      1  N   UNL     1       5.317   4.995  17.307  0.00  0.00    +0.000 N 
ATOM      2  C   UNL     1       4.969   6.294  17.481  0.00  0.00    +0.000 A 
ATOM      3  N   UNL     1       5.799   7.286  17.409  0.00  0.00    +0.000 NA
ATOM      4  N   UNL     1       3.640   6.454  17.744  0.00  0.00    +0.000 N 
ATOM      5  C   UNL     1       3.155   5.189  17.759  0.00  0.00    +0.000 A 
ATOM      6  C   UNL     1       1.852   4.755  18.017  0.00  0.00    +0.000 A 
ATOM      7  C   UNL     1       1.604   3.370  17.983  0.00  0.00    +0.000 A 
ATOM      8  C   UNL     1       2.645   2.464  17.694  0.00  0.00    +0.000 A 
ATOM      9  C   UNL     1       3.943   2.928  17.451  0.00  0.00    +0.000 A 
ATOM     10  C   UNL     1       4.163   4.311  17.491  0.00  0.00    +0.000 A 
ATOM     11  H   UNL     1       6.798   7.177  17.215  0.00  0.00    +0.000 HD
ENDROOT
BRANCH   1  12
ATOM     12  C   UNL     1       6.625   4.429  16.974  0.00  0.00    +0.000 C 
BRANCH  12  13
ATOM     13  C   UNL     1       6.589   3.828  15.572  0.00  0.00    +0.000 C 
BRANCH  13  14
ATOM     14  C   UNL     1       6.136   4.851  14.534  0.00  0.00    +0.000 C 
BRANCH  14  15
ATOM     15  C   UNL     1       5.331   4.130  13.463  0.00  0.00    +0.000 C 
BRANCH  15  16
ATOM     16  C   UNL     1       6.236   3.454  12.443  0.00  0.00    +0.000 C 
BRANCH  16  18
ATOM     17  C   UNL     1       4.081   3.104  11.154  0.00  0.00    +0.000 C 
ATOM     18  C   UNL     1       5.401   2.488  11.598  0.00  0.00    +0.000 C 
ENDBRANCH  16  18
ENDBRANCH  15  16
ENDBRANCH  14  15
ENDBRANCH  13  14
ENDBRANCH  12  13
ENDBRANCH   1  12
BRANCH   4  19
ATOM     19  C   UNL     1       2.881   7.680  18.002  0.00  0.00    +0.000 C 
BRANCH  19  20
ATOM     20  C   UNL     1       1.983   7.585  19.260  0.00  0.00    +0.000 C 
BRANCH  20  21
ATOM     21  C   UNL     1       1.236   8.874  19.528  0.00  0.00    +0.000 A 
ATOM     22  C   UNL     1       1.059   9.819  18.506  0.00  0.00    +0.000 A 
ATOM     23  C   UNL     1       0.396  11.020  18.758  0.00  0.00    +0.000 A 
ATOM     24  C   UNL     1      -0.090  11.302  20.038  0.00  0.00    +0.000 A 
ATOM     25 CL   UNL     1      -0.894  12.839  20.323  0.00  0.00    +0.000 Cl
ATOM     26  C   UNL     1       0.074  10.364  21.070  0.00  0.00    +0.000 A 
ATOM     27 CL   UNL     1      -0.517  10.677  22.697  0.00  0.00    +0.000 Cl
ATOM     28  C   UNL     1       0.728   9.155  20.812  0.00  0.00    +0.000 A 
ENDBRANCH  20  21
BRANCH  20  29
ATOM     29  O   UNL     1       2.730   7.221  20.398  0.00  0.00    +0.000 OA
ATOM     30  H   UNL     1       2.931   8.043  20.919  0.00  0.00    +0.000 HD
ENDBRANCH  20  29
ENDBRANCH  19  20
ENDBRANCH   4  19
TORSDOF 10
ENDMDL
MODEL 4
REMARK VINA RESULT:      -7.4      2.210      3.184
REMARK  Name = 
REMARK  11 active torsions:
REMARK  status: ('A' for Active; 'I' for Inactive)
REMARK    1  A    between atoms: C_1  and  C_2
REMARK    2  A    between atoms: C_2  and  C_3
REMARK    3  A    between atoms: C_3  and  C_4
REMARK    4  A    between atoms: C_4  and  C_5
REMARK    5  A    between atoms: C_5  and  C_6
REMARK    6  A    between atoms: C_6  and  C_7
REMARK    7  A    between atoms: C_7  and  N_8
REMARK    8  A    between atoms: N_11  and  C_12
REMARK    9  A    between atoms: C_12  and  C_13
REMARK   10  A    between atoms: C_13  and  O_14
REMARK   11  A    between atoms: C_13  and  C_15
REMARK                            x       y       z     vdW  Elec       q    Type
REMARK                         _______ _______ _______ _____ _____    ______ ____
ROOT
ATOM      1  N   UNL     1       4.394   4.849  18.345  0.00  0.00    +0.000 N 
ATOM      2  C   UNL     1       3.825   5.940  17.777  0.00  0.00    +0.000 A 
ATOM      3  N   UNL     1       4.405   6.682  16.888  0.00  0.00    +0.000 NA
ATOM      4  N   UNL     1       2.566   6.182  18.242  0.00  0.00    +0.000 N 
ATOM      5  C   UNL     1       2.363   5.207  19.160  0.00  0.00    +0.000 A 
ATOM      6  C   UNL     1       1.250   4.993  19.978  0.00  0.00    +0.000 A 
ATOM      7  C   UNL     1       1.290   3.903  20.868  0.00  0.00    +0.000 A 
ATOM      8  C   UNL     1       2.422   3.064  20.919  0.00  0.00    +0.000 A 
ATOM      9  C   UNL     1       3.527   3.310  20.096  0.00  0.00    +0.000 A 
ATOM     10  C   UNL     1       3.461   4.401  19.219  0.00  0.00    +0.000 A 
ATOM     11  H   UNL     1       5.350   6.512  16.534  0.00  0.00    +0.000 HD
ENDROOT
BRANCH   1  12
ATOM     12  C   UNL     1       5.703   4.250  18.082  0.00  0.00    +0.000 C 
BRANCH  12  13
ATOM     13  C   UNL     1       6.769   4.937  18.933  0.00  0.00    +0.000 C 
BRANCH  13  14
ATOM     14  C   UNL     1       7.768   5.701  18.070  0.00  0.00    +0.000 C 
BRANCH  14  15
ATOM     15  C   UNL     1       7.830   7.140  18.562  0.00  0.00    +0.000 C 
BRANCH  15  16
ATOM     16  C   UNL     1       7.917   8.125  17.404  0.00  0.00    +0.000 C 
BRANCH  16  18
ATOM     17  C   UNL     1       9.097   9.620  19.077  0.00  0.00    +0.000 C 
ATOM     18  C   UNL     1       8.060   9.542  17.965  0.00  0.00    +0.000 C 
ENDBRANCH  16  18
ENDBRANCH  15  16
ENDBRANCH  14  15
ENDBRANCH  13  14
ENDBRANCH  12  13
ENDBRANCH   1  12
BRANCH   4  19
ATOM     19  C   UNL     1       1.634   7.258  17.894  0.00  0.00    +0.000 C 
BRANCH  19  20
ATOM     20  C   UNL     1       2.104   8.650  18.383  0.00  0.00    +0.000 C 
BRANCH  20  21
ATOM     21  C   UNL     1       1.339   9.114  19.605  0.00  0.00    +0.000 A 
ATOM     22  C   UNL     1       1.483   8.446  20.830  0.00  0.00    +0.000 A 
ATOM     23  C   UNL     1       0.757   8.855  21.949  0.00  0.00    +0.000 A 
ATOM     24  C   UNL     1      -0.134   9.928  21.859  0.00  0.00    +0.000 A 
ATOM     25 CL   UNL     1      -1.052  10.395  23.283  0.00  0.00    +0.000 Cl
ATOM     26  C   UNL     1      -0.285  10.610  20.641  0.00  0.00    +0.000 A 
ATOM     27 CL   UNL     1      -1.396  11.964  20.478  0.00  0.00    +0.000 Cl
ATOM     28  C   UNL     1       0.453  10.208  19.523  0.00  0.00    +0.000 A 
ENDBRANCH  20  21
BRANCH  20  29
ATOM     29  O   UNL     1       2.003   9.614  17.363  0.00  0.00    +0.000 OA
ATOM     30  H   UNL     1       2.488   9.278  16.562  0.00  0.00    +0.000 HD
ENDBRANCH  20  29
ENDBRANCH  19  20
ENDBRANCH   4  19
TORSDOF 10
ENDMDL
MODEL 5
REMARK VINA RESULT:      -7.4      1.606      1.906
REMARK  Name = 
REMARK  11 active torsions:
REMARK  status: ('A' for Active; 'I' for Inactive)
REMARK    1  A    between atoms: C_1  and  C_2
REMARK    2  A    between atoms: C_2  and  C_3
REMARK    3  A    between atoms: C_3  and  C_4
REMARK    4  A    between atoms: C_4  and  C_5
REMARK    5  A    between atoms: C_5  and  C_6
REMARK    6  A    between atoms: C_6  and  C_7
REMARK    7  A    between atoms: C_7  and  N_8
REMARK    8  A    between atoms: N_11  and  C_12
REMARK    9  A    between atoms: C_12  and  C_13
REMARK   10  A    between atoms: C_13  and  O_14
REMARK   11  A    between atoms: C_13  and  C_15
REMARK                            x       y       z     vdW  Elec       q    Type
REMARK                         _______ _______ _______ _____ _____    ______ ____
ROOT
ATOM      1  N   UNL     1       4.636   4.762  16.699  0.00  0.00    +0.000 N 
ATOM      2  C   UNL     1       4.328   6.037  17.037  0.00  0.00    +0.000 A 
ATOM      3  N   UNL     1       5.061   7.065  16.747  0.00  0.00    +0.000 NA
ATOM      4  N   UNL     1       3.152   6.132  17.724  0.00  0.00    +0.000 N 
ATOM      5  C   UNL     1       2.734   4.849  17.835  0.00  0.00    +0.000 A 
ATOM      6  C   UNL     1       1.599   4.352  18.480  0.00  0.00    +0.000 A 
ATOM      7  C   UNL     1       1.391   2.960  18.463  0.00  0.00    +0.000 A 
ATOM      8  C   UNL     1       2.307   2.109  17.810  0.00  0.00    +0.000 A 
ATOM      9  C   UNL     1       3.442   2.635  17.183  0.00  0.00    +0.000 A 
ATOM     10  C   UNL     1       3.624   4.024  17.215  0.00  0.00    +0.000 A 
ATOM     11  H   UNL     1       5.946   7.005  16.236  0.00  0.00    +0.000 HD
ENDROOT
BRANCH   1  12
ATOM     12  C   UNL     1       5.780   4.263  15.934  0.00  0.00    +0.000 C 
BRANCH  12  13
ATOM     13  C   UNL     1       5.501   4.392  14.439  0.00  0.00    +0.000 C 
BRANCH  13  14
ATOM     14  C   UNL     1       6.592   3.728  13.605  0.00  0.00    +0.000 C 
BRANCH  14  15
ATOM     15  C   UNL     1       6.022   3.407  12.231  0.00  0.00    +0.000 C 
BRANCH  15  16
ATOM     16  C   UNL     1       4.514   3.611  12.189  0.00  0.00    +0.000 C 
BRANCH  16  18
ATOM     17  C   UNL     1       3.226   4.027  10.045  0.00  0.00    +0.000 C 
ATOM     18  C   UNL     1       3.965   3.003  10.895  0.00  0.00    +0.000 C 
ENDBRANCH  16  18
ENDBRANCH  15  16
ENDBRANCH  14  15
ENDBRANCH  13  14
ENDBRANCH  12  13
ENDBRANCH   1  12
BRANCH   4  19
ATOM     19  C   UNL     1       2.485   7.316  18.272  0.00  0.00    +0.000 C 
BRANCH  19  20
ATOM     20  C   UNL     1       1.934   7.095  19.702  0.00  0.00    +0.000 C 
BRANCH  20  21
ATOM     21  C   UNL     1       1.377   8.369  20.303  0.00  0.00    +0.000 A 
ATOM     22  C   UNL     1       1.123   8.453  21.679  0.00  0.00    +0.000 A 
ATOM     23  C   UNL     1       0.582   9.616  22.229  0.00  0.00    +0.000 A 
ATOM     24  C   UNL     1       0.276  10.707  21.412  0.00  0.00    +0.000 A 
ATOM     25 CL   UNL     1      -0.430  12.144  22.138  0.00  0.00    +0.000 Cl
ATOM     26  C   UNL     1       0.531  10.640  20.032  0.00  0.00    +0.000 A 
ATOM     27 CL   UNL     1       0.159  11.986  18.963  0.00  0.00    +0.000 Cl
ATOM     28  C   UNL     1       1.085   9.478  19.484  0.00  0.00    +0.000 A 
ENDBRANCH  20  21
BRANCH  20  29
ATOM     29  O   UNL     1       2.918   6.556  20.554  0.00  0.00    +0.000 OA
ATOM     30  H   UNL     1       2.637   5.640  20.819  0.00  0.00    +0.000 HD
ENDBRANCH  20  29
ENDBRANCH  19  20
ENDBRANCH   4  19
TORSDOF 10
ENDMDL
MODEL 6
REMARK VINA RESULT:      -7.1      1.287      1.948
REMARK  Name = 
REMARK  11 active torsions:
REMARK  status: ('A' for Active; 'I' for Inactive)
REMARK    1  A    between atoms: C_1  and  C_2
REMARK    2  A    between atoms: C_2  and  C_3
REMARK    3  A    between atoms: C_3  and  C_4
REMARK    4  A    between atoms: C_4  and  C_5
REMARK    5  A    between atoms: C_5  and  C_6
REMARK    6  A    between atoms: C_6  and  C_7
REMARK    7  A    between atoms: C_7  and  N_8
REMARK    8  A    between atoms: N_11  and  C_12
REMARK    9  A    between atoms: C_12  and  C_13
REMARK   10  A    between atoms: C_13  and  O_14
REMARK   11  A    between atoms: C_13  and  C_15
REMARK                            x       y       z     vdW  Elec       q    Type
REMARK                         _______ _______ _______ _____ _____    ______ ____
ROOT
ATOM      1  N   UNL     1       4.695   4.899  17.321  0.00  0.00    +0.000 N 
ATOM      2  C   UNL     1       4.358   6.079  17.896  0.00  0.00    +0.000 A 
ATOM      3  N   UNL     1       5.077   7.153  17.828  0.00  0.00    +0.000 NA
ATOM      4  N   UNL     1       3.169   6.020  18.565  0.00  0.00    +0.000 N 
ATOM      5  C   UNL     1       2.773   4.734  18.414  0.00  0.00    +0.000 A 
ATOM      6  C   UNL     1       1.636   4.104  18.926  0.00  0.00    +0.000 A 
ATOM      7  C   UNL     1       1.453   2.739  18.632  0.00  0.00    +0.000 A 
ATOM      8  C   UNL     1       2.395   2.047  17.843  0.00  0.00    +0.000 A 
ATOM      9  C   UNL     1       3.530   2.702  17.354  0.00  0.00    +0.000 A 
ATOM     10  C   UNL     1       3.687   4.060  17.661  0.00  0.00    +0.000 A 
ATOM     11  H   UNL     1       5.971   7.208  17.333  0.00  0.00    +0.000 HD
ENDROOT
BRANCH   1  12
ATOM     12  C   UNL     1       5.860   4.576  16.496  0.00  0.00    +0.000 C 
BRANCH  12  13
ATOM     13  C   UNL     1       5.502   4.708  15.018  0.00  0.00    +0.000 C 
BRANCH  13  14
ATOM     14  C   UNL     1       6.252   3.690  14.166  0.00  0.00    +0.000 C 
BRANCH  14  15
ATOM     15  C   UNL     1       6.075   4.060  12.700  0.00  0.00    +0.000 C 
BRANCH  15  16
ATOM     16  C   UNL     1       5.156   3.081  11.982  0.00  0.00    +0.000 C 
BRANCH  16  18
ATOM     17  C   UNL     1       3.187   2.957  10.391  0.00  0.00    +0.000 C 
ATOM     18  C   UNL     1       4.128   3.869  11.166  0.00  0.00    +0.000 C 
ENDBRANCH  16  18
ENDBRANCH  15  16
ENDBRANCH  14  15
ENDBRANCH  13  14
ENDBRANCH  12  13
ENDBRANCH   1  12
BRANCH   4  19
ATOM     19  C   UNL     1       2.472   7.064  19.321  0.00  0.00    +0.000 C 
BRANCH  19  20
ATOM     20  C   UNL     1       2.329   8.390  18.534  0.00  0.00    +0.000 C 
BRANCH  20  21
ATOM     21  C   UNL     1       1.240   9.275  19.102  0.00  0.00    +0.000 A 
ATOM     22  C   UNL     1       0.531  10.153  18.269  0.00  0.00    +0.000 A 
ATOM     23  C   UNL     1      -0.453  10.991  18.796  0.00  0.00    +0.000 A 
ATOM     24  C   UNL     1      -0.735  10.973  20.164  0.00  0.00    +0.000 A 
ATOM     25 CL   UNL     1      -1.961  12.064  20.795  0.00  0.00    +0.000 Cl
ATOM     26  C   UNL     1      -0.037  10.096  21.011  0.00  0.00    +0.000 A 
ATOM     27 CL   UNL     1      -0.355  10.042  22.740  0.00  0.00    +0.000 Cl
ATOM     28  C   UNL     1       0.939   9.248  20.479  0.00  0.00    +0.000 A 
ENDBRANCH  20  21
BRANCH  20  29
ATOM     29  O   UNL     1       2.088   8.153  17.168  0.00  0.00    +0.000 OA
ATOM     30  H   UNL     1       1.204   7.707  17.076  0.00  0.00    +0.000 HD
ENDBRANCH  20  29
ENDBRANCH  19  20
ENDBRANCH   4  19
TORSDOF 10
ENDMDL
MODEL 7
REMARK VINA RESULT:      -7.1      1.143      1.883
REMARK  Name = 
REMARK  11 active torsions:
REMARK  status: ('A' for Active; 'I' for Inactive)
REMARK    1  A    between atoms: C_1  and  C_2
REMARK    2  A    between atoms: C_2  and  C_3
REMARK    3  A    between atoms: C_3  and  C_4
REMARK    4  A    between atoms: C_4  and  C_5
REMARK    5  A    between atoms: C_5  and  C_6
REMARK    6  A    between atoms: C_6  and  C_7
REMARK    7  A    between atoms: C_7  and  N_8
REMARK    8  A    between atoms: N_11  and  C_12
REMARK    9  A    between atoms: C_12  and  C_13
REMARK   10  A    between atoms: C_13  and  O_14
REMARK   11  A    between atoms: C_13  and  C_15
REMARK                            x       y       z     vdW  Elec       q    Type
REMARK                         _______ _______ _______ _____ _____    ______ ____
ROOT
ATOM      1  N   UNL     1       3.695   4.908  17.898  0.00  0.00    +0.000 N 
ATOM      2  C   UNL     1       3.528   6.199  18.275  0.00  0.00    +0.000 A 
ATOM      3  N   UNL     1       4.204   7.192  17.792  0.00  0.00    +0.000 NA
ATOM      4  N   UNL     1       2.564   6.350  19.229  0.00  0.00    +0.000 N 
ATOM      5  C   UNL     1       2.138   5.086  19.467  0.00  0.00    +0.000 A 
ATOM      6  C   UNL     1       1.180   4.644  20.383  0.00  0.00    +0.000 A 
ATOM      7  C   UNL     1       0.923   3.261  20.447  0.00  0.00    +0.000 A 
ATOM      8  C   UNL     1       1.616   2.366  19.605  0.00  0.00    +0.000 A 
ATOM      9  C   UNL     1       2.578   2.838  18.706  0.00  0.00    +0.000 A 
ATOM     10  C   UNL     1       2.815   4.218  18.663  0.00  0.00    +0.000 A 
ATOM     11  H   UNL     1       4.932   7.090  17.079  0.00  0.00    +0.000 HD
ENDROOT
BRANCH   1  12
ATOM     12  C   UNL     1       4.593   4.354  16.884  0.00  0.00    +0.000 C 
BRANCH  12  13
ATOM     13  C   UNL     1       6.035   4.405  17.384  0.00  0.00    +0.000 C 
BRANCH  13  14
ATOM     14  C   UNL     1       7.031   4.341  16.230  0.00  0.00    +0.000 C 
BRANCH  14  15
ATOM     15  C   UNL     1       6.608   5.348  15.170  0.00  0.00    +0.000 C 
BRANCH  15  16
ATOM     16  C   UNL     1       6.866   4.824  13.764  0.00  0.00    +0.000 C 
BRANCH  16  18
ATOM     17  C   UNL     1       5.692   3.316  12.099  0.00  0.00    +0.000 C 
ATOM     18  C   UNL     1       6.065   3.535  13.559  0.00  0.00    +0.000 C 
ENDBRANCH  16  18
ENDBRANCH  15  16
ENDBRANCH  14  15
ENDBRANCH  13  14
ENDBRANCH  12  13
ENDBRANCH   1  12
BRANCH   4  19
ATOM     19  C   UNL     1       2.098   7.566  19.900  0.00  0.00    +0.000 C 
BRANCH  19  20
ATOM     20  C   UNL     1       1.813   8.730  18.919  0.00  0.00    +0.000 C 
BRANCH  20  21
ATOM     21  C   UNL     1       0.742   9.665  19.438  0.00  0.00    +0.000 A 
ATOM     22  C   UNL     1      -0.001  10.457  18.550  0.00  0.00    +0.000 A 
ATOM     23  C   UNL     1      -0.969  11.341  19.030  0.00  0.00    +0.000 A 
ATOM     24  C   UNL     1      -1.201  11.455  20.403  0.00  0.00    +0.000 A 
ATOM     25 CL   UNL     1      -2.408  12.600  20.970  0.00  0.00    +0.000 Cl
ATOM     26  C   UNL     1      -0.469  10.665  21.304  0.00  0.00    +0.000 A 
ATOM     27 CL   UNL     1      -0.724  10.777  23.041  0.00  0.00    +0.000 Cl
ATOM     28  C   UNL     1       0.491   9.770  20.821  0.00  0.00    +0.000 A 
ENDBRANCH  20  21
BRANCH  20  29
ATOM     29  O   UNL     1       1.453   8.250  17.645  0.00  0.00    +0.000 OA
ATOM     30  H   UNL     1       0.585   7.772  17.722  0.00  0.00    +0.000 HD
ENDBRANCH  20  29
ENDBRANCH  19  20
ENDBRANCH   4  19
TORSDOF 10
ENDMDL
MODEL 8
REMARK VINA RESULT:      -7.1      1.598      1.829
REMARK  Name = 
REMARK  11 active torsions:
REMARK  status: ('A' for Active; 'I' for Inactive)
REMARK    1  A    between atoms: C_1  and  C_2
REMARK    2  A    between atoms: C_2  and  C_3
REMARK    3  A    between atoms: C_3  and  C_4
REMARK    4  A    between atoms: C_4  and  C_5
REMARK    5  A    between atoms: C_5  and  C_6
REMARK    6  A    between atoms: C_6  and  C_7
REMARK    7  A    between atoms: C_7  and  N_8
REMARK    8  A    between atoms: N_11  and  C_12
REMARK    9  A    between atoms: C_12  and  C_13
REMARK   10  A    between atoms: C_13  and  O_14
REMARK   11  A    between atoms: C_13  and  C_15
REMARK                            x       y       z     vdW  Elec       q    Type
REMARK                         _______ _______ _______ _____ _____    ______ ____
ROOT
ATOM      1  N   UNL     1       4.941   4.914  17.245  0.00  0.00    +0.000 N 
ATOM      2  C   UNL     1       4.470   6.159  17.500  0.00  0.00    +0.000 A 
ATOM      3  N   UNL     1       5.170   7.241  17.381  0.00  0.00    +0.000 NA
ATOM      4  N   UNL     1       3.165   6.157  17.902  0.00  0.00    +0.000 N 
ATOM      5  C   UNL     1       2.830   4.845  17.919  0.00  0.00    +0.000 A 
ATOM      6  C   UNL     1       1.619   4.256  18.291  0.00  0.00    +0.000 A 
ATOM      7  C   UNL     1       1.525   2.853  18.231  0.00  0.00    +0.000 A 
ATOM      8  C   UNL     1       2.626   2.082  17.805  0.00  0.00    +0.000 A 
ATOM      9  C   UNL     1       3.831   2.699  17.450  0.00  0.00    +0.000 A 
ATOM     10  C   UNL     1       3.897   4.097  17.519  0.00  0.00    +0.000 A 
ATOM     11  H   UNL     1       6.150   7.254  17.084  0.00  0.00    +0.000 HD
ENDROOT
BRANCH   1  12
ATOM     12  C   UNL     1       6.262   4.512  16.760  0.00  0.00    +0.000 C 
BRANCH  12  13
ATOM     13  C   UNL     1       6.526   5.134  15.392  0.00  0.00    +0.000 C 
BRANCH  13  14
ATOM     14  C   UNL     1       5.618   4.539  14.321  0.00  0.00    +0.000 C 
BRANCH  14  15
ATOM     15  C   UNL     1       6.415   3.516  13.525  0.00  0.00    +0.000 C 
BRANCH  15  16
ATOM     16  C   UNL     1       5.743   3.190  12.198  0.00  0.00    +0.000 C 
BRANCH  16  18
ATOM     17  C   UNL     1       6.212   0.969  11.070  0.00  0.00    +0.000 C 
ATOM     18  C   UNL     1       6.714   2.382  11.333  0.00  0.00    +0.000 C 
ENDBRANCH  16  18
ENDBRANCH  15  16
ENDBRANCH  14  15
ENDBRANCH  13  14
ENDBRANCH  12  13
ENDBRANCH   1  12
BRANCH   4  19
ATOM     19  C   UNL     1       2.305   7.281  18.280  0.00  0.00    +0.000 C 
BRANCH  19  20
ATOM     20  C   UNL     1       1.775   7.177  19.732  0.00  0.00    +0.000 C 
BRANCH  20  21
ATOM     21  C   UNL     1       1.301   8.514  20.263  0.00  0.00    +0.000 A 
ATOM     22  C   UNL     1       1.023   8.678  21.628  0.00  0.00    +0.000 A 
ATOM     23  C   UNL     1       0.559   9.900  22.114  0.00  0.00    +0.000 A 
ATOM     24  C   UNL     1       0.352  10.973  21.243  0.00  0.00    +0.000 A 
ATOM     25 CL   UNL     1      -0.262  12.488  21.889  0.00  0.00    +0.000 Cl
ATOM     26  C   UNL     1       0.630  10.826  19.875  0.00  0.00    +0.000 A 
ATOM     27 CL   UNL     1       0.382  12.147  18.740  0.00  0.00    +0.000 Cl
ATOM     28  C   UNL     1       1.109   9.604  19.391  0.00  0.00    +0.000 A 
ENDBRANCH  20  21
BRANCH  20  29
ATOM     29  O   UNL     1       2.747   6.638  20.596  0.00  0.00    +0.000 OA
ATOM     30  H   UNL     1       3.603   6.556  20.097  0.00  0.00    +0.000 HD
ENDBRANCH  20  29
ENDBRANCH  19  20
ENDBRANCH   4  19
TORSDOF 10
ENDMDL
MODEL 9
REMARK VINA RESULT:      -7.1      0.846      1.519
REMARK  Name = 
REMARK  11 active torsions:
REMARK  status: ('A' for Active; 'I' for Inactive)
REMARK    1  A    between atoms: C_1  and  C_2
REMARK    2  A    between atoms: C_2  and  C_3
REMARK    3  A    between atoms: C_3  and  C_4
REMARK    4  A    between atoms: C_4  and  C_5
REMARK    5  A    between atoms: C_5  and  C_6
REMARK    6  A    between atoms: C_6  and  C_7
REMARK    7  A    between atoms: C_7  and  N_8
REMARK    8  A    between atoms: N_11  and  C_12
REMARK    9  A    between atoms: C_12  and  C_13
REMARK   10  A    between atoms: C_13  and  O_14
REMARK   11  A    between atoms: C_13  and  C_15
REMARK                            x       y       z     vdW  Elec       q    Type
REMARK                         _______ _______ _______ _____ _____    ______ ____
ROOT
ATOM      1  N   UNL     1       4.681   5.267  17.814  0.00  0.00    +0.000 N 
ATOM      2  C   UNL     1       3.896   6.329  17.509  0.00  0.00    +0.000 A 
ATOM      3  N   UNL     1       4.223   7.258  16.668  0.00  0.00    +0.000 NA
ATOM      4  N   UNL     1       2.711   6.322  18.186  0.00  0.00    +0.000 N 
ATOM      5  C   UNL     1       2.786   5.215  18.964  0.00  0.00    +0.000 A 
ATOM      6  C   UNL     1       1.860   4.736  19.894  0.00  0.00    +0.000 A 
ATOM      7  C   UNL     1       2.181   3.556  20.590  0.00  0.00    +0.000 A 
ATOM      8  C   UNL     1       3.400   2.890  20.345  0.00  0.00    +0.000 A 
ATOM      9  C   UNL     1       4.313   3.401  19.416  0.00  0.00    +0.000 A 
ATOM     10  C   UNL     1       3.968   4.577  18.736  0.00  0.00    +0.000 A 
ATOM     11  H   UNL     1       5.110   7.275  16.157  0.00  0.00    +0.000 HD
ENDROOT
BRANCH   1  12
ATOM     12  C   UNL     1       5.991   4.905  17.272  0.00  0.00    +0.000 C 
BRANCH  12  13
ATOM     13  C   UNL     1       5.833   3.821  16.209  0.00  0.00    +0.000 C 
BRANCH  13  14
ATOM     14  C   UNL     1       5.342   4.401  14.886  0.00  0.00    +0.000 C 
BRANCH  14  15
ATOM     15  C   UNL     1       6.359   4.066  13.804  0.00  0.00    +0.000 C 
BRANCH  15  16
ATOM     16  C   UNL     1       5.687   3.510  12.556  0.00  0.00    +0.000 C 
BRANCH  16  18
ATOM     17  C   UNL     1       6.005   1.362  11.248  0.00  0.00    +0.000 C 
ATOM     18  C   UNL     1       6.677   2.602  11.820  0.00  0.00    +0.000 C 
ENDBRANCH  16  18
ENDBRANCH  15  16
ENDBRANCH  14  15
ENDBRANCH  13  14
ENDBRANCH  12  13
ENDBRANCH   1  12
BRANCH   4  19
ATOM     19  C   UNL     1       1.609   7.287  18.149  0.00  0.00    +0.000 C 
BRANCH  19  20
ATOM     20  C   UNL     1       2.062   8.736  18.454  0.00  0.00    +0.000 C 
BRANCH  20  21
ATOM     21  C   UNL     1       1.101   9.451  19.381  0.00  0.00    +0.000 A 
ATOM     22  C   UNL     1       0.263  10.464  18.893  0.00  0.00    +0.000 A 
ATOM     23  C   UNL     1      -0.601  11.143  19.752  0.00  0.00    +0.000 A 
ATOM     24  C   UNL     1      -0.634  10.829  21.114  0.00  0.00    +0.000 A 
ATOM     25 CL   UNL     1      -1.715  11.726  22.169  0.00  0.00    +0.000 Cl
ATOM     26  C   UNL     1       0.195   9.813  21.616  0.00  0.00    +0.000 A 
ATOM     27 CL   UNL     1       0.192   9.385  23.323  0.00  0.00    +0.000 Cl
ATOM     28  C   UNL     1       1.052   9.125  20.752  0.00  0.00    +0.000 A 
ENDBRANCH  20  21
BRANCH  20  29
ATOM     29  O   UNL     1       2.228   9.482  17.271  0.00  0.00    +0.000 OA
ATOM     30  H   UNL     1       3.201   9.603  17.109  0.00  0.00    +0.000 HD
ENDBRANCH  20  29
ENDBRANCH  19  20
ENDBRANCH   4  19
TORSDOF 10
ENDMDL
