MODEL 1
REMARK VINA RESULT:      -6.8      0.000      0.000
REMARK  Name = 
REMARK  7 active torsions:
REMARK  status: ('A' for Active; 'I' for Inactive)
REMARK    1  A    between atoms: C_1  and  N_2
REMARK    2  A    between atoms: C_6  and  S_7
REMARK    3  A    between atoms: S_7  and  C_8
REMARK    4  A    between atoms: C_8  and  C_9
REMARK    5  A    between atoms: C_9  and  N_10
REMARK    6  A    between atoms: N_10  and  S_11
REMARK    7  A    between atoms: S_11  and  C_14
REMARK                            x       y       z     vdW  Elec       q    Type
REMARK                         _______ _______ _______ _____ _____    ______ ____
ROOT
ATOM      1  N   UNL     1       5.515   4.564  17.078  0.00  0.00    +0.000 NA
ATOM      2  H   UNL     1       4.749   5.122  16.695  0.00  0.00    +0.000 HD
ENDROOT
BRANCH   1   3
ATOM      3  S   UNL     1       6.975   5.139  16.434  0.00  0.00    +0.000 S 
ATOM      4  O   UNL     1       6.943   6.577  16.554  0.00  0.00    +0.000 OA
ATOM      5  O   UNL     1       8.036   4.355  17.033  0.00  0.00    +0.000 OA
BRANCH   3   6
ATOM      6  C   UNL     1       6.868   4.732  14.711  0.00  0.00    +0.000 A 
ATOM      7  C   UNL     1       7.768   5.303  13.805  0.00  0.00    +0.000 A 
ATOM      8  C   UNL     1       7.680   4.970  12.453  0.00  0.00    +0.000 A 
ATOM      9  C   UNL     1       6.705   4.069  12.012  0.00  0.00    +0.000 A 
ATOM     10  C   UNL     1       5.818   3.494  12.923  0.00  0.00    +0.000 A 
ATOM     11  C   UNL     1       5.899   3.823  14.276  0.00  0.00    +0.000 A 
ENDBRANCH   3   6
ENDBRANCH   1   3
BRANCH   1  12
ATOM     12  C   UNL     1       5.484   4.328  18.540  0.00  0.00    +0.000 C 
BRANCH  12  13
ATOM     13  C   UNL     1       4.590   5.349  19.255  0.00  0.00    +0.000 C 
BRANCH  13  14
ATOM     14  S   UNL     1       3.123   5.688  18.216  0.00  0.00    +0.000 S 
BRANCH  14  20
ATOM     15  C   UNL     1       1.370   4.584  20.725  0.00  0.00    +0.000 C 
ATOM     16  N   UNL     1       1.531   3.864  19.489  0.00  0.00    +0.000 N 
ATOM     17  C   UNL     1       0.981   2.646  19.210  0.00  0.00    +0.000 A 
ATOM     18  N   UNL     1       1.325   2.276  17.999  0.00  0.00    +0.000 NA
ATOM     19  N   UNL     1       2.119   3.269  17.469  0.00  0.00    +0.000 NA
ATOM     20  C   UNL     1       2.235   4.215  18.372  0.00  0.00    +0.000 A 
ENDBRANCH  14  20
ENDBRANCH  13  14
ENDBRANCH  12  13
ENDBRANCH   1  12
TORSDOF 6
ENDMDL
MODEL 2
REMARK VINA RESULT:      -6.7      1.531      2.248
REMARK  Name = 
REMARK  7 active torsions:
REMARK  status: ('A' for Active; 'I' for Inactive)
REMARK    1  A    between atoms: C_1  and  N_2
REMARK    2  A    between atoms: C_6  and  S_7
REMARK    3  A    between atoms: S_7  and  C_8
REMARK    4  A    between atoms: C_8  and  C_9
REMARK    5  A    between atoms: C_9  and  N_10
REMARK    6  A    between atoms: N_10  and  S_11
REMARK    7  A    between atoms: S_11  and  C_14
REMARK                            x       y       z     vdW  Elec       q    Type
REMARK                         _______ _______ _______ _____ _____    ______ ____
ROOT
ATOM      1  N   UNL     1       5.262   5.564  16.729  0.00  0.00    +0.000 NA
ATOM      2  H   UNL     1       5.050   6.563  16.775  0.00  0.00    +0.000 HD
ENDROOT
BRANCH   1   3
ATOM      3  S   UNL     1       6.900   5.378  16.328  0.00  0.00    +0.000 S 
ATOM      4  O   UNL     1       7.485   6.698  16.357  0.00  0.00    +0.000 OA
ATOM      5  O   UNL     1       7.416   4.306  17.155  0.00  0.00    +0.000 OA
BRANCH   3   6
ATOM      6  C   UNL     1       6.865   4.832  14.641  0.00  0.00    +0.000 A 
ATOM      7  C   UNL     1       5.941   3.860  14.246  0.00  0.00    +0.000 A 
ATOM      8  C   UNL     1       5.916   3.443  12.914  0.00  0.00    +0.000 A 
ATOM      9  C   UNL     1       6.804   3.996  11.987  0.00  0.00    +0.000 A 
ATOM     10  C   UNL     1       7.716   4.974  12.385  0.00  0.00    +0.000 A 
ATOM     11  C   UNL     1       7.747   5.396  13.715  0.00  0.00    +0.000 A 
ENDBRANCH   3   6
ENDBRANCH   1   3
BRANCH   1  12
ATOM     12  C   UNL     1       4.757   4.736  17.848  0.00  0.00    +0.000 C 
BRANCH  12  13
ATOM     13  C   UNL     1       3.533   3.911  17.429  0.00  0.00    +0.000 C 
BRANCH  13  14
ATOM     14  S   UNL     1       3.679   2.229  18.133  0.00  0.00    +0.000 S 
BRANCH  14  20
ATOM     15  C   UNL     1       0.550   2.562  18.956  0.00  0.00    +0.000 C 
ATOM     16  N   UNL     1       1.627   2.568  19.910  0.00  0.00    +0.000 N 
ATOM     17  C   UNL     1       1.485   2.710  21.260  0.00  0.00    +0.000 A 
ATOM     18  N   UNL     1       2.664   2.671  21.833  0.00  0.00    +0.000 NA
ATOM     19  N   UNL     1       3.604   2.499  20.842  0.00  0.00    +0.000 NA
ATOM     20  C   UNL     1       2.970   2.439  19.693  0.00  0.00    +0.000 A 
ENDBRANCH  14  20
ENDBRANCH  13  14
ENDBRANCH  12  13
ENDBRANCH   1  12
TORSDOF 6
ENDMDL
MODEL 3
REMARK VINA RESULT:      -6.7      0.378      1.173
REMARK  Name = 
REMARK  7 active torsions:
REMARK  status: ('A' for Active; 'I' for Inactive)
REMARK    1  A    between atoms: C_1  and  N_2
REMARK    2  A    between atoms: C_6  and  S_7
REMARK    3  A    between atoms: S_7  and  C_8
REMARK    4  A    between atoms: C_8  and  C_9
REMARK    5  A    between atoms: C_9  and  N_10
REMARK    6  A    between atoms: N_10  and  S_11
REMARK    7  A    between atoms: S_11  and  C_14
REMARK                            x       y       z     vdW  Elec       q    Type
REMARK                         _______ _______ _______ _____ _____    ______ ____
ROOT
ATOM      1  N   UNL     1       5.229   4.347  16.839  0.00  0.00    +0.000 NA
ATOM      2  H   UNL     1       4.420   4.762  16.373  0.00  0.00    +0.000 HD
ENDROOT
BRANCH   1   3
ATOM      3  S   UNL     1       6.629   5.140  16.299  0.00  0.00    +0.000 S 
ATOM      4  O   UNL     1       6.363   6.556  16.391  0.00  0.00    +0.000 OA
ATOM      5  O   UNL     1       7.747   4.536  16.992  0.00  0.00    +0.000 OA
BRANCH   3   6
ATOM      6  C   UNL     1       6.723   4.711  14.581  0.00  0.00    +0.000 A 
ATOM      7  C   UNL     1       5.858   3.745  14.058  0.00  0.00    +0.000 A 
ATOM      8  C   UNL     1       5.935   3.420  12.703  0.00  0.00    +0.000 A 
ATOM      9  C   UNL     1       6.864   4.061  11.878  0.00  0.00    +0.000 A 
ATOM     10  C   UNL     1       7.717   5.033  12.403  0.00  0.00    +0.000 A 
ATOM     11  C   UNL     1       7.646   5.362  13.757  0.00  0.00    +0.000 A 
ENDBRANCH   3   6
ENDBRANCH   1   3
BRANCH   1  12
ATOM     12  C   UNL     1       5.107   4.142  18.301  0.00  0.00    +0.000 C 
BRANCH  12  13
ATOM     13  C   UNL     1       4.718   5.440  19.020  0.00  0.00    +0.000 C 
BRANCH  13  14
ATOM     14  S   UNL     1       3.090   6.000  18.401  0.00  0.00    +0.000 S 
BRANCH  14  20
ATOM     15  C   UNL     1       1.812   4.558  21.021  0.00  0.00    +0.000 C 
ATOM     16  N   UNL     1       1.671   4.045  19.683  0.00  0.00    +0.000 N 
ATOM     17  C   UNL     1       0.997   2.909  19.341  0.00  0.00    +0.000 A 
ATOM     18  N   UNL     1       1.063   2.732  18.043  0.00  0.00    +0.000 NA
ATOM     19  N   UNL     1       1.797   3.772  17.518  0.00  0.00    +0.000 NA
ATOM     20  C   UNL     1       2.156   4.552  18.511  0.00  0.00    +0.000 A 
ENDBRANCH  14  20
ENDBRANCH  13  14
ENDBRANCH  12  13
ENDBRANCH   1  12
TORSDOF 6
ENDMDL
MODEL 4
REMARK VINA RESULT:      -6.7      2.863      3.982
REMARK  Name = 
REMARK  7 active torsions:
REMARK  status: ('A' for Active; 'I' for Inactive)
REMARK    1  A    between atoms: C_1  and  N_2
REMARK    2  A    between atoms: C_6  and  S_7
REMARK    3  A    between atoms: S_7  and  C_8
REMARK    4  A    between atoms: C_8  and  C_9
REMARK    5  A    between atoms: C_9  and  N_10
REMARK    6  A    between atoms: N_10  and  S_11
REMARK    7  A    between atoms: S_11  and  C_14
REMARK                            x       y       z     vdW  Elec       q    Type
REMARK                         _______ _______ _______ _____ _____    ______ ____
ROOT
ATOM      1  N   UNL     1       3.252   5.838  19.953  0.00  0.00    +0.000 NA
ATOM      2  H   UNL     1       4.121   5.348  20.176  0.00  0.00    +0.000 HD
ENDROOT
BRANCH   1   3
ATOM      3  S   UNL     1       3.238   6.181  18.291  0.00  0.00    +0.000 S 
ATOM      4  O   UNL     1       2.171   5.397  17.716  0.00  0.00    +0.000 OA
ATOM      5  O   UNL     1       3.271   7.623  18.160  0.00  0.00    +0.000 OA
BRANCH   3   6
ATOM      6  C   UNL     1       4.778   5.519  17.709  0.00  0.00    +0.000 A 
ATOM      7  C   UNL     1       4.886   5.071  16.388  0.00  0.00    +0.000 A 
ATOM      8  C   UNL     1       6.104   4.560  15.938  0.00  0.00    +0.000 A 
ATOM      9  C   UNL     1       7.204   4.503  16.799  0.00  0.00    +0.000 A 
ATOM     10  C   UNL     1       7.093   4.962  18.112  0.00  0.00    +0.000 A 
ATOM     11  C   UNL     1       5.879   5.474  18.570  0.00  0.00    +0.000 A 
ENDBRANCH   3   6
ENDBRANCH   1   3
BRANCH   1  12
ATOM     12  C   UNL     1       2.012   5.260  20.519  0.00  0.00    +0.000 C 
BRANCH  12  13
ATOM     13  C   UNL     1       2.319   4.269  21.649  0.00  0.00    +0.000 C 
BRANCH  13  14
ATOM     14  S   UNL     1       1.544   2.659  21.257  0.00  0.00    +0.000 S 
BRANCH  14  20
ATOM     15  C   UNL     1       4.554   2.194  20.116  0.00  0.00    +0.000 C 
ATOM     16  N   UNL     1       3.382   2.214  19.281  0.00  0.00    +0.000 N 
ATOM     17  C   UNL     1       3.376   2.044  17.927  0.00  0.00    +0.000 A 
ATOM     18  N   UNL     1       2.145   2.119  17.480  0.00  0.00    +0.000 NA
ATOM     19  N   UNL     1       1.321   2.344  18.561  0.00  0.00    +0.000 NA
ATOM     20  C   UNL     1       2.075   2.399  19.635  0.00  0.00    +0.000 A 
ENDBRANCH  14  20
ENDBRANCH  13  14
ENDBRANCH  12  13
ENDBRANCH   1  12
TORSDOF 6
ENDMDL
MODEL 5
REMARK VINA RESULT:      -6.6      1.244      1.261
REMARK  Name = 
REMARK  7 active torsions:
REMARK  status: ('A' for Active; 'I' for Inactive)
REMARK    1  A    between atoms: C_1  and  N_2
REMARK    2  A    between atoms: C_6  and  S_7
REMARK    3  A    between atoms: S_7  and  C_8
REMARK    4  A    between atoms: C_8  and  C_9
REMARK    5  A    between atoms: C_9  and  N_10
REMARK    6  A    between atoms: N_10  and  S_11
REMARK    7  A    between atoms: S_11  and  C_14
REMARK                            x       y       z     vdW  Elec       q    Type
REMARK                         _______ _______ _______ _____ _____    ______ ____
ROOT
ATOM      1  N   UNL     1       5.377   3.966  16.735  0.00  0.00    +0.000 NA
ATOM      2  H   UNL     1       4.897   3.588  15.915  0.00  0.00    +0.000 HD
ENDROOT
BRANCH   1   3
ATOM      3  S   UNL     1       6.595   5.022  16.207  0.00  0.00    +0.000 S 
ATOM      4  O   UNL     1       6.068   6.360  16.339  0.00  0.00    +0.000 OA
ATOM      5  O   UNL     1       7.816   4.623  16.876  0.00  0.00    +0.000 OA
BRANCH   3   6
ATOM      6  C   UNL     1       6.748   4.663  14.477  0.00  0.00    +0.000 A 
ATOM      7  C   UNL     1       7.691   5.350  13.705  0.00  0.00    +0.000 A 
ATOM      8  C   UNL     1       7.809   5.053  12.347  0.00  0.00    +0.000 A 
ATOM      9  C   UNL     1       6.996   4.075  11.767  0.00  0.00    +0.000 A 
ATOM     10  C   UNL     1       6.064   3.385  12.545  0.00  0.00    +0.000 A 
ATOM     11  C   UNL     1       5.940   3.676  13.903  0.00  0.00    +0.000 A 
ENDBRANCH   3   6
ENDBRANCH   1   3
BRANCH   1  12
ATOM     12  C   UNL     1       4.510   4.451  17.834  0.00  0.00    +0.000 C 
BRANCH  12  13
ATOM     13  C   UNL     1       5.096   4.099  19.207  0.00  0.00    +0.000 C 
BRANCH  13  14
ATOM     14  S   UNL     1       4.493   2.445  19.706  0.00  0.00    +0.000 S 
BRANCH  14  20
ATOM     15  C   UNL     1       2.105   3.672  21.542  0.00  0.00    +0.000 C 
ATOM     16  N   UNL     1       1.893   3.113  20.232  0.00  0.00    +0.000 N 
ATOM     17  C   UNL     1       0.688   3.025  19.598  0.00  0.00    +0.000 A 
ATOM     18  N   UNL     1       0.850   2.465  18.423  0.00  0.00    +0.000 NA
ATOM     19  N   UNL     1       2.189   2.178  18.278  0.00  0.00    +0.000 NA
ATOM     20  C   UNL     1       2.804   2.571  19.370  0.00  0.00    +0.000 A 
ENDBRANCH  14  20
ENDBRANCH  13  14
ENDBRANCH  12  13
ENDBRANCH   1  12
TORSDOF 6
ENDMDL
MODEL 6
REMARK VINA RESULT:      -6.6      1.569      2.003
REMARK  Name = 
REMARK  7 active torsions:
REMARK  status: ('A' for Active; 'I' for Inactive)
REMARK    1  A    between atoms: C_1  and  N_2
REMARK    2  A    between atoms: C_6  and  S_7
REMARK    3  A    between atoms: S_7  and  C_8
REMARK    4  A    between atoms: C_8  and  C_9
REMARK    5  A    between atoms: C_9  and  N_10
REMARK    6  A    between atoms: N_10  and  S_11
REMARK    7  A    between atoms: S_11  and  C_14
REMARK                            x       y       z     vdW  Elec       q    Type
REMARK                         _______ _______ _______ _____ _____    ______ ____
ROOT
ATOM      1  N   UNL     1       6.192   4.377  17.145  0.00  0.00    +0.000 NA
ATOM      2  H   UNL     1       5.409   3.785  16.862  0.00  0.00    +0.000 HD
ENDROOT
BRANCH   1   3
ATOM      3  S   UNL     1       6.290   5.691  16.075  0.00  0.00    +0.000 S 
ATOM      4  O   UNL     1       5.008   6.354  16.116  0.00  0.00    +0.000 OA
ATOM      5  O   UNL     1       7.515   6.397  16.388  0.00  0.00    +0.000 OA
BRANCH   3   6
ATOM      6  C   UNL     1       6.461   4.929  14.483  0.00  0.00    +0.000 A 
ATOM      7  C   UNL     1       7.548   5.261  13.667  0.00  0.00    +0.000 A 
ATOM      8  C   UNL     1       7.677   4.650  12.420  0.00  0.00    +0.000 A 
ATOM      9  C   UNL     1       6.732   3.711  11.994  0.00  0.00    +0.000 A 
ATOM     10  C   UNL     1       5.657   3.375  12.818  0.00  0.00    +0.000 A 
ATOM     11  C   UNL     1       5.520   3.983  14.066  0.00  0.00    +0.000 A 
ENDBRANCH   3   6
ENDBRANCH   1   3
BRANCH   1  12
ATOM     12  C   UNL     1       6.285   4.693  18.589  0.00  0.00    +0.000 C 
BRANCH  12  13
ATOM     13  C   UNL     1       4.928   4.539  19.286  0.00  0.00    +0.000 C 
BRANCH  13  14
ATOM     14  S   UNL     1       4.445   2.774  19.271  0.00  0.00    +0.000 S 
BRANCH  14  20
ATOM     15  C   UNL     1       1.322   3.377  18.593  0.00  0.00    +0.000 C 
ATOM     16  N   UNL     1       1.800   3.048  19.910  0.00  0.00    +0.000 N 
ATOM     17  C   UNL     1       1.024   2.946  21.028  0.00  0.00    +0.000 A 
ATOM     18  N   UNL     1       1.774   2.632  22.057  0.00  0.00    +0.000 NA
ATOM     19  N   UNL     1       3.072   2.525  21.610  0.00  0.00    +0.000 NA
ATOM     20  C   UNL     1       3.075   2.776  20.321  0.00  0.00    +0.000 A 
ENDBRANCH  14  20
ENDBRANCH  13  14
ENDBRANCH  12  13
ENDBRANCH   1  12
TORSDOF 6
ENDMDL
MODEL 7
REMARK VINA RESULT:      -6.5      1.361      2.111
REMARK  Name = 
REMARK  7 active torsions:
REMARK  status: ('A' for Active; 'I' for Inactive)
REMARK    1  A    between atoms: C_1  and  N_2
REMARK    2  A    between atoms: C_6  and  S_7
REMARK    3  A    between atoms: S_7  and  C_8
REMARK    4  A    between atoms: C_8  and  C_9
REMARK    5  A    between atoms: C_9  and  N_10
REMARK    6  A    between atoms: N_10  and  S_11
REMARK    7  A    between atoms: S_11  and  C_14
REMARK                            x       y       z     vdW  Elec       q    Type
REMARK                         _______ _______ _______ _____ _____    ______ ____
ROOT
ATOM      1  N   UNL     1       5.110   5.943  16.536  0.00  0.00    +0.000 NA
ATOM      2  H   UNL     1       4.969   6.829  16.047  0.00  0.00    +0.000 HD
ENDROOT
BRANCH   1   3
ATOM      3  S   UNL     1       6.710   5.437  16.289  0.00  0.00    +0.000 S 
ATOM      4  O   UNL     1       7.530   6.624  16.331  0.00  0.00    +0.000 OA
ATOM      5  O   UNL     1       6.943   4.326  17.187  0.00  0.00    +0.000 OA
BRANCH   3   6
ATOM      6  C   UNL     1       6.710   4.832  14.621  0.00  0.00    +0.000 A 
ATOM      7  C   UNL     1       5.748   3.899  14.221  0.00  0.00    +0.000 A 
ATOM      8  C   UNL     1       5.752   3.436  12.905  0.00  0.00    +0.000 A 
ATOM      9  C   UNL     1       6.705   3.905  11.996  0.00  0.00    +0.000 A 
ATOM     10  C   UNL     1       7.656   4.844  12.399  0.00  0.00    +0.000 A 
ATOM     11  C   UNL     1       7.659   5.312  13.713  0.00  0.00    +0.000 A 
ENDBRANCH   3   6
ENDBRANCH   1   3
BRANCH   1  12
ATOM     12  C   UNL     1       4.603   5.877  17.927  0.00  0.00    +0.000 C 
BRANCH  12  13
ATOM     13  C   UNL     1       3.074   5.760  17.962  0.00  0.00    +0.000 C 
BRANCH  13  14
ATOM     14  S   UNL     1       2.605   4.004  17.753  0.00  0.00    +0.000 S 
BRANCH  14  20
ATOM     15  C   UNL     1       4.394   2.399  19.945  0.00  0.00    +0.000 C 
ATOM     16  N   UNL     1       3.059   2.872  20.201  0.00  0.00    +0.000 N 
ATOM     17  C   UNL     1       2.378   2.713  21.373  0.00  0.00    +0.000 A 
ATOM     18  N   UNL     1       1.190   3.261  21.269  0.00  0.00    +0.000 NA
ATOM     19  N   UNL     1       1.085   3.791  20.003  0.00  0.00    +0.000 NA
ATOM     20  C   UNL     1       2.211   3.551  19.372  0.00  0.00    +0.000 A 
ENDBRANCH  14  20
ENDBRANCH  13  14
ENDBRANCH  12  13
ENDBRANCH   1  12
TORSDOF 6
ENDMDL
MODEL 8
REMARK VINA RESULT:      -6.5      1.307      1.724
REMARK  Name = 
REMARK  7 active torsions:
REMARK  status: ('A' for Active; 'I' for Inactive)
REMARK    1  A    between atoms: C_1  and  N_2
REMARK    2  A    between atoms: C_6  and  S_7
REMARK    3  A    between atoms: S_7  and  C_8
REMARK    4  A    between atoms: C_8  and  C_9
REMARK    5  A    between atoms: C_9  and  N_10
REMARK    6  A    between atoms: N_10  and  S_11
REMARK    7  A    between atoms: S_11  and  C_14
REMARK                            x       y       z     vdW  Elec       q    Type
REMARK                         _______ _______ _______ _____ _____    ______ ____
ROOT
ATOM      1  N   UNL     1       5.701   3.574  16.817  0.00  0.00    +0.000 NA
ATOM      2  H   UNL     1       5.449   2.985  16.021  0.00  0.00    +0.000 HD
ENDROOT
BRANCH   1   3
ATOM      3  S   UNL     1       6.662   4.855  16.257  0.00  0.00    +0.000 S 
ATOM      4  O   UNL     1       5.905   6.065  16.473  0.00  0.00    +0.000 OA
ATOM      5  O   UNL     1       7.979   4.675  16.832  0.00  0.00    +0.000 OA
BRANCH   3   6
ATOM      6  C   UNL     1       6.761   4.578  14.508  0.00  0.00    +0.000 A 
ATOM      7  C   UNL     1       5.880   3.679  13.896  0.00  0.00    +0.000 A 
ATOM      8  C   UNL     1       5.962   3.474  12.519  0.00  0.00    +0.000 A 
ATOM      9  C   UNL     1       6.910   4.165  11.759  0.00  0.00    +0.000 A 
ATOM     10  C   UNL     1       7.778   5.069  12.373  0.00  0.00    +0.000 A 
ATOM     11  C   UNL     1       7.704   5.279  13.750  0.00  0.00    +0.000 A 
ENDBRANCH   3   6
ENDBRANCH   1   3
BRANCH   1  12
ATOM     12  C   UNL     1       4.600   3.929  17.742  0.00  0.00    +0.000 C 
BRANCH  12  13
ATOM     13  C   UNL     1       5.043   3.830  19.207  0.00  0.00    +0.000 C 
BRANCH  13  14
ATOM     14  S   UNL     1       4.290   2.342  19.959  0.00  0.00    +0.000 S 
BRANCH  14  20
ATOM     15  C   UNL     1       1.978   4.191  21.308  0.00  0.00    +0.000 C 
ATOM     16  N   UNL     1       1.753   3.343  20.167  0.00  0.00    +0.000 N 
ATOM     17  C   UNL     1       0.564   3.203  19.512  0.00  0.00    +0.000 A 
ATOM     18  N   UNL     1       0.705   2.356  18.520  0.00  0.00    +0.000 NA
ATOM     19  N   UNL     1       2.014   1.927  18.522  0.00  0.00    +0.000 NA
ATOM     20  C   UNL     1       2.632   2.526  19.514  0.00  0.00    +0.000 A 
ENDBRANCH  14  20
ENDBRANCH  13  14
ENDBRANCH  12  13
ENDBRANCH   1  12
TORSDOF 6
ENDMDL
MODEL 9
REMARK VINA RESULT:      -6.4      1.143      2.051
REMARK  Name = 
REMARK  7 active torsions:
REMARK  status: ('A' for Active; 'I' for Inactive)
REMARK    1  A    between atoms: C_1  and  N_2
REMARK    2  A    between atoms: C_6  and  S_7
REMARK    3  A    between atoms: S_7  and  C_8
REMARK    4  A    between atoms: C_8  and  C_9
REMARK    5  A    between atoms: C_9  and  N_10
REMARK    6  A    between atoms: N_10  and  S_11
REMARK    7  A    between atoms: S_11  and  C_14
REMARK                            x       y       z     vdW  Elec       q    Type
REMARK                         _______ _______ _______ _____ _____    ______ ____
ROOT
ATOM      1  N   UNL     1       5.386   5.361  16.740  0.00  0.00    +0.000 NA
ATOM      2  H   UNL     1       4.819   5.592  15.922  0.00  0.00    +0.000 HD
ENDROOT
BRANCH   1   3
ATOM      3  S   UNL     1       7.017   5.326  16.275  0.00  0.00    +0.000 S 
ATOM      4  O   UNL     1       7.491   6.689  16.327  0.00  0.00    +0.000 OA
ATOM      5  O   UNL     1       7.651   4.277  17.046  0.00  0.00    +0.000 OA
BRANCH   3   6
ATOM      6  C   UNL     1       6.963   4.830  14.574  0.00  0.00    +0.000 A 
ATOM      7  C   UNL     1       6.093   3.809  14.175  0.00  0.00    +0.000 A 
ATOM      8  C   UNL     1       6.053   3.432  12.832  0.00  0.00    +0.000 A 
ATOM      9  C   UNL     1       6.869   4.074  11.896  0.00  0.00    +0.000 A 
ATOM     10  C   UNL     1       7.726   5.099  12.298  0.00  0.00    +0.000 A 
ATOM     11  C   UNL     1       7.773   5.481  13.638  0.00  0.00    +0.000 A 
ENDBRANCH   3   6
ENDBRANCH   1   3
BRANCH   1  12
ATOM     12  C   UNL     1       5.068   6.098  17.985  0.00  0.00    +0.000 C 
BRANCH  12  13
ATOM     13  C   UNL     1       5.496   5.311  19.230  0.00  0.00    +0.000 C 
BRANCH  13  14
ATOM     14  S   UNL     1       4.721   3.654  19.183  0.00  0.00    +0.000 S 
BRANCH  14  20
ATOM     15  C   UNL     1       1.961   2.026  18.623  0.00  0.00    +0.000 C 
ATOM     16  N   UNL     1       2.027   3.234  19.403  0.00  0.00    +0.000 N 
ATOM     17  C   UNL     1       0.963   3.845  20.000  0.00  0.00    +0.000 A 
ATOM     18  N   UNL     1       1.372   4.921  20.631  0.00  0.00    +0.000 NA
ATOM     19  N   UNL     1       2.732   5.022  20.446  0.00  0.00    +0.000 NA
ATOM     20  C   UNL     1       3.114   4.004  19.708  0.00  0.00    +0.000 A 
ENDBRANCH  14  20
ENDBRANCH  13  14
ENDBRANCH  12  13
ENDBRANCH   1  12
TORSDOF 6
ENDMDL
