MODEL 1
REMARK VINA RESULT:      -8.0      0.000      0.000
REMARK  Name = 
REMARK  5 active torsions:
REMARK  status: ('A' for Active; 'I' for Inactive)
REMARK    1  A    between atoms: C_1  and  C_2
REMARK    2  A    between atoms: C_3  and  C_4
REMARK    3  A    between atoms: C_4  and  C_5
REMARK    4  A    between atoms: N_17  and  C_18
REMARK    5  A    between atoms: C_18  and  C_19
REMARK                            x       y       z     vdW  Elec       q    Type
REMARK                         _______ _______ _______ _____ _____    ______ ____
ROOT
ATOM      1  C   UNL     1       4.432   7.166  16.445  0.00  0.00    +0.000 C 
ATOM      2  C   UNL     1       5.217   6.156  17.257  0.00  0.00    +0.000 A 
ATOM      3  C   UNL     1       6.408   5.686  16.797  0.00  0.00    +0.000 A 
ATOM      4  C   UNL     1       7.171   4.722  17.649  0.00  0.00    +0.000 A 
ATOM      5  O   UNL     1       8.283   4.301  17.336  0.00  0.00    +0.000 OA
ATOM      6  C   UNL     1       6.567   4.286  18.925  0.00  0.00    +0.000 A 
ATOM      7  C   UNL     1       5.385   4.809  19.256  0.00  0.00    +0.000 A 
ATOM      8  N   UNL     1       4.673   5.734  18.496  0.00  0.00    +0.000 N 
ENDROOT
BRANCH   3   9
ATOM      9  C   UNL     1       7.035   5.993  15.452  0.00  0.00    +0.000 C 
BRANCH   9  10
ATOM     10  C   UNL     1       6.661   5.034  14.333  0.00  0.00    +0.000 A 
ATOM     11  C   UNL     1       5.496   4.251  14.435  0.00  0.00    +0.000 A 
ATOM     12  C   UNL     1       5.166   3.316  13.452  0.00  0.00    +0.000 A 
ATOM     13  C   UNL     1       5.980   3.172  12.335  0.00  0.00    +0.000 A 
ATOM     14 CL   UNL     1       5.604   1.983  11.151  0.00  0.00    +0.000 Cl
ATOM     15  C   UNL     1       7.098   3.984  12.172  0.00  0.00    +0.000 A 
ATOM     16  C   UNL     1       7.430   4.917  13.159  0.00  0.00    +0.000 A 
ATOM     17 CL   UNL     1       8.821   5.902  12.866  0.00  0.00    +0.000 Cl
ENDBRANCH   9  10
ENDBRANCH   3   9
BRANCH   8  18
ATOM     18  C   UNL     1       3.353   6.196  19.005  0.00  0.00    +0.000 C 
BRANCH  18  19
ATOM     19  C   UNL     1       2.356   5.081  19.276  0.00  0.00    +0.000 A 
ATOM     20  C   UNL     1       1.898   4.754  20.561  0.00  0.00    +0.000 A 
ATOM     21  C   UNL     1       1.088   3.635  20.768  0.00  0.00    +0.000 A 
ATOM     22  C   UNL     1       0.696   2.844  19.690  0.00  0.00    +0.000 A 
ATOM     23  C   UNL     1       1.081   3.195  18.400  0.00  0.00    +0.000 A 
ATOM     24  C   UNL     1       1.899   4.309  18.192  0.00  0.00    +0.000 A 
ENDBRANCH  18  19
ENDBRANCH   8  18
TORSDOF 4
ENDMDL
MODEL 2
REMARK VINA RESULT:      -7.8      7.047      9.173
REMARK  Name = 
REMARK  5 active torsions:
REMARK  status: ('A' for Active; 'I' for Inactive)
REMARK    1  A    between atoms: C_1  and  C_2
REMARK    2  A    between atoms: C_3  and  C_4
REMARK    3  A    between atoms: C_4  and  C_5
REMARK    4  A    between atoms: N_17  and  C_18
REMARK    5  A    between atoms: C_18  and  C_19
REMARK                            x       y       z     vdW  Elec       q    Type
REMARK                         _______ _______ _______ _____ _____    ______ ____
ROOT
ATOM      1  C   UNL     1       1.505   9.050  17.759  0.00  0.00    +0.000 C 
ATOM      2  C   UNL     1       1.253   9.075  19.253  0.00  0.00    +0.000 A 
ATOM      3  C   UNL     1       0.499  10.065  19.803  0.00  0.00    +0.000 A 
ATOM      4  C   UNL     1       0.240  10.029  21.276  0.00  0.00    +0.000 A 
ATOM      5  O   UNL     1      -0.484  10.849  21.838  0.00  0.00    +0.000 OA
ATOM      6  C   UNL     1       0.860   8.949  22.069  0.00  0.00    +0.000 A 
ATOM      7  C   UNL     1       1.593   8.047  21.413  0.00  0.00    +0.000 A 
ATOM      8  N   UNL     1       1.819   8.040  20.039  0.00  0.00    +0.000 N 
ENDROOT
BRANCH   3   9
ATOM      9  C   UNL     1      -0.072  11.267  19.078  0.00  0.00    +0.000 C 
BRANCH   9  10
ATOM     10  C   UNL     1      -1.564  11.202  18.796  0.00  0.00    +0.000 A 
ATOM     11  C   UNL     1      -2.090  10.154  18.018  0.00  0.00    +0.000 A 
ATOM     12  C   UNL     1      -3.446  10.108  17.690  0.00  0.00    +0.000 A 
ATOM     13  C   UNL     1      -4.305  11.095  18.163  0.00  0.00    +0.000 A 
ATOM     14 CL   UNL     1      -5.965  11.069  17.713  0.00  0.00    +0.000 Cl
ATOM     15  C   UNL     1      -3.826  12.101  18.994  0.00  0.00    +0.000 A 
ATOM     16  C   UNL     1      -2.466  12.149  19.319  0.00  0.00    +0.000 A 
ATOM     17 CL   UNL     1      -1.960  13.420  20.377  0.00  0.00    +0.000 Cl
ENDBRANCH   9  10
ENDBRANCH   3   9
BRANCH   8  18
ATOM     18  C   UNL     1       2.683   6.968  19.473  0.00  0.00    +0.000 C 
BRANCH  18  19
ATOM     19  C   UNL     1       2.014   5.608  19.369  0.00  0.00    +0.000 A 
ATOM     20  C   UNL     1       1.494   4.920  20.476  0.00  0.00    +0.000 A 
ATOM     21  C   UNL     1       1.011   3.616  20.344  0.00  0.00    +0.000 A 
ATOM     22  C   UNL     1       1.010   2.991  19.100  0.00  0.00    +0.000 A 
ATOM     23  C   UNL     1       1.454   3.684  17.978  0.00  0.00    +0.000 A 
ATOM     24  C   UNL     1       1.946   4.985  18.109  0.00  0.00    +0.000 A 
ENDBRANCH  18  19
ENDBRANCH   8  18
TORSDOF 4
ENDMDL
MODEL 3
REMARK VINA RESULT:      -7.7      6.884      9.040
REMARK  Name = 
REMARK  5 active torsions:
REMARK  status: ('A' for Active; 'I' for Inactive)
REMARK    1  A    between atoms: C_1  and  C_2
REMARK    2  A    between atoms: C_3  and  C_4
REMARK    3  A    between atoms: C_4  and  C_5
REMARK    4  A    between atoms: N_17  and  C_18
REMARK    5  A    between atoms: C_18  and  C_19
REMARK                            x       y       z     vdW  Elec       q    Type
REMARK                         _______ _______ _______ _____ _____    ______ ____
ROOT
ATOM      1  C   UNL     1       1.711   8.884  17.627  0.00  0.00    +0.000 C 
ATOM      2  C   UNL     1       1.405   8.891  19.111  0.00  0.00    +0.000 A 
ATOM      3  C   UNL     1       0.634   9.876  19.646  0.00  0.00    +0.000 A 
ATOM      4  C   UNL     1       0.321   9.823  21.108  0.00  0.00    +0.000 A 
ATOM      5  O   UNL     1      -0.420  10.638  21.654  0.00  0.00    +0.000 OA
ATOM      6  C   UNL     1       0.908   8.730  21.909  0.00  0.00    +0.000 A 
ATOM      7  C   UNL     1       1.661   7.833  21.269  0.00  0.00    +0.000 A 
ATOM      8  N   UNL     1       1.937   7.843  19.904  0.00  0.00    +0.000 N 
ENDROOT
BRANCH   3   9
ATOM      9  C   UNL     1       0.095  11.090  18.916  0.00  0.00    +0.000 C 
BRANCH   9  10
ATOM     10  C   UNL     1      -1.403  11.071  18.652  0.00  0.00    +0.000 A 
ATOM     11  C   UNL     1      -1.973  10.031  17.895  0.00  0.00    +0.000 A 
ATOM     12  C   UNL     1      -3.333  10.026  17.584  0.00  0.00    +0.000 A 
ATOM     13  C   UNL     1      -4.152  11.048  18.051  0.00  0.00    +0.000 A 
ATOM     14 CL   UNL     1      -5.817  11.073  17.622  0.00  0.00    +0.000 Cl
ATOM     15  C   UNL     1      -3.630  12.050  18.862  0.00  0.00    +0.000 A 
ATOM     16  C   UNL     1      -2.266  12.055  19.171  0.00  0.00    +0.000 A 
ATOM     17 CL   UNL     1      -1.705  13.324  20.205  0.00  0.00    +0.000 Cl
ENDBRANCH   9  10
ENDBRANCH   3   9
BRANCH   8  18
ATOM     18  C   UNL     1       2.819   6.776  19.356  0.00  0.00    +0.000 C 
BRANCH  18  19
ATOM     19  C   UNL     1       2.201   5.387  19.358  0.00  0.00    +0.000 A 
ATOM     20  C   UNL     1       1.956   4.653  18.187  0.00  0.00    +0.000 A 
ATOM     21  C   UNL     1       1.265   3.440  18.236  0.00  0.00    +0.000 A 
ATOM     22  C   UNL     1       0.836   2.926  19.457  0.00  0.00    +0.000 A 
ATOM     23  C   UNL     1       1.134   3.604  20.635  0.00  0.00    +0.000 A 
ATOM     24  C   UNL     1       1.818   4.821  20.588  0.00  0.00    +0.000 A 
ENDBRANCH  18  19
ENDBRANCH   8  18
TORSDOF 4
ENDMDL
MODEL 4
REMARK VINA RESULT:      -7.5      6.186      8.331
REMARK  Name = 
REMARK  5 active torsions:
REMARK  status: ('A' for Active; 'I' for Inactive)
REMARK    1  A    between atoms: C_1  and  C_2
REMARK    2  A    between atoms: C_3  and  C_4
REMARK    3  A    between atoms: C_4  and  C_5
REMARK    4  A    between atoms: N_17  and  C_18
REMARK    5  A    between atoms: C_18  and  C_19
REMARK                            x       y       z     vdW  Elec       q    Type
REMARK                         _______ _______ _______ _____ _____    ______ ____
ROOT
ATOM      1  C   UNL     1       0.633   8.374  21.566  0.00  0.00    +0.000 C 
ATOM      2  C   UNL     1       1.350   8.229  20.239  0.00  0.00    +0.000 A 
ATOM      3  C   UNL     1       1.412   9.279  19.376  0.00  0.00    +0.000 A 
ATOM      4  C   UNL     1       2.165   9.107  18.095  0.00  0.00    +0.000 A 
ATOM      5  O   UNL     1       2.321  10.026  17.294  0.00  0.00    +0.000 OA
ATOM      6  C   UNL     1       2.762   7.787  17.807  0.00  0.00    +0.000 A 
ATOM      7  C   UNL     1       2.618   6.832  18.729  0.00  0.00    +0.000 A 
ATOM      8  N   UNL     1       1.952   6.980  19.942  0.00  0.00    +0.000 N 
ENDROOT
BRANCH   3   9
ATOM      9  C   UNL     1       0.729  10.621  19.546  0.00  0.00    +0.000 C 
BRANCH   9  10
ATOM     10  C   UNL     1      -0.652  10.726  18.918  0.00  0.00    +0.000 A 
ATOM     11  C   UNL     1      -0.991   9.912  17.821  0.00  0.00    +0.000 A 
ATOM     12  C   UNL     1      -2.228  10.036  17.185  0.00  0.00    +0.000 A 
ATOM     13  C   UNL     1      -3.158  10.956  17.657  0.00  0.00    +0.000 A 
ATOM     14 CL   UNL     1      -4.659  11.148  16.840  0.00  0.00    +0.000 Cl
ATOM     15  C   UNL     1      -2.877  11.722  18.783  0.00  0.00    +0.000 A 
ATOM     16  C   UNL     1      -1.637  11.600  19.417  0.00  0.00    +0.000 A 
ATOM     17 CL   UNL     1      -1.380  12.572  20.825  0.00  0.00    +0.000 Cl
ENDBRANCH   9  10
ENDBRANCH   3   9
BRANCH   8  18
ATOM     18  C   UNL     1       1.865   5.800  20.846  0.00  0.00    +0.000 C 
BRANCH  18  19
ATOM     19  C   UNL     1       2.029   4.459  20.149  0.00  0.00    +0.000 A 
ATOM     20  C   UNL     1       3.278   3.911  19.821  0.00  0.00    +0.000 A 
ATOM     21  C   UNL     1       3.367   2.741  19.062  0.00  0.00    +0.000 A 
ATOM     22  C   UNL     1       2.212   2.084  18.647  0.00  0.00    +0.000 A 
ATOM     23  C   UNL     1       0.965   2.573  19.025  0.00  0.00    +0.000 A 
ATOM     24  C   UNL     1       0.873   3.748  19.776  0.00  0.00    +0.000 A 
ENDBRANCH  18  19
ENDBRANCH   8  18
TORSDOF 4
ENDMDL
MODEL 5
REMARK VINA RESULT:      -7.4      6.557      8.617
REMARK  Name = 
REMARK  5 active torsions:
REMARK  status: ('A' for Active; 'I' for Inactive)
REMARK    1  A    between atoms: C_1  and  C_2
REMARK    2  A    between atoms: C_3  and  C_4
REMARK    3  A    between atoms: C_4  and  C_5
REMARK    4  A    between atoms: N_17  and  C_18
REMARK    5  A    between atoms: C_18  and  C_19
REMARK                            x       y       z     vdW  Elec       q    Type
REMARK                         _______ _______ _______ _____ _____    ______ ____
ROOT
ATOM      1  C   UNL     1       2.251   8.832  17.543  0.00  0.00    +0.000 C 
ATOM      2  C   UNL     1       1.771   8.556  18.953  0.00  0.00    +0.000 A 
ATOM      3  C   UNL     1       0.961   9.447  19.587  0.00  0.00    +0.000 A 
ATOM      4  C   UNL     1       0.475   9.116  20.963  0.00  0.00    +0.000 A 
ATOM      5  O   UNL     1      -0.309   9.837  21.576  0.00  0.00    +0.000 OA
ATOM      6  C   UNL     1       0.943   7.861  21.586  0.00  0.00    +0.000 A 
ATOM      7  C   UNL     1       1.749   7.079  20.866  0.00  0.00    +0.000 A 
ATOM      8  N   UNL     1       2.185   7.349  19.572  0.00  0.00    +0.000 N 
ENDROOT
BRANCH   3   9
ATOM      9  C   UNL     1       0.536  10.804  19.063  0.00  0.00    +0.000 C 
BRANCH   9  10
ATOM     10  C   UNL     1      -0.913  10.896  18.613  0.00  0.00    +0.000 A 
ATOM     11  C   UNL     1      -1.404  10.016  17.629  0.00  0.00    +0.000 A 
ATOM     12  C   UNL     1      -2.711  10.124  17.152  0.00  0.00    +0.000 A 
ATOM     13  C   UNL     1      -3.559  11.094  17.674  0.00  0.00    +0.000 A 
ATOM     14 CL   UNL     1      -5.152  11.263  17.047  0.00  0.00    +0.000 Cl
ATOM     15  C   UNL     1      -3.124  11.929  18.697  0.00  0.00    +0.000 A 
ATOM     16  C   UNL     1      -1.813  11.823  19.173  0.00  0.00    +0.000 A 
ATOM     17 CL   UNL     1      -1.362  12.883  20.463  0.00  0.00    +0.000 Cl
ENDBRANCH   9  10
ENDBRANCH   3   9
BRANCH   8  18
ATOM     18  C   UNL     1       3.105   6.376  18.921  0.00  0.00    +0.000 C 
BRANCH  18  19
ATOM     19  C   UNL     1       2.682   4.922  19.057  0.00  0.00    +0.000 A 
ATOM     20  C   UNL     1       3.325   4.010  19.907  0.00  0.00    +0.000 A 
ATOM     21  C   UNL     1       2.982   2.656  19.894  0.00  0.00    +0.000 A 
ATOM     22  C   UNL     1       1.971   2.198  19.053  0.00  0.00    +0.000 A 
ATOM     23  C   UNL     1       1.273   3.099  18.256  0.00  0.00    +0.000 A 
ATOM     24  C   UNL     1       1.620   4.453  18.262  0.00  0.00    +0.000 A 
ENDBRANCH  18  19
ENDBRANCH   8  18
TORSDOF 4
ENDMDL
MODEL 6
REMARK VINA RESULT:      -7.4      6.508      8.879
REMARK  Name = 
REMARK  5 active torsions:
REMARK  status: ('A' for Active; 'I' for Inactive)
REMARK    1  A    between atoms: C_1  and  C_2
REMARK    2  A    between atoms: C_3  and  C_4
REMARK    3  A    between atoms: C_4  and  C_5
REMARK    4  A    between atoms: N_17  and  C_18
REMARK    5  A    between atoms: C_18  and  C_19
REMARK                            x       y       z     vdW  Elec       q    Type
REMARK                         _______ _______ _______ _____ _____    ______ ____
ROOT
ATOM      1  C   UNL     1       1.780   8.788  17.710  0.00  0.00    +0.000 C 
ATOM      2  C   UNL     1       1.341   8.925  19.154  0.00  0.00    +0.000 A 
ATOM      3  C   UNL     1       0.524   9.947  19.526  0.00  0.00    +0.000 A 
ATOM      4  C   UNL     1       0.080  10.023  20.953  0.00  0.00    +0.000 A 
ATOM      5  O   UNL     1      -0.707  10.877  21.355  0.00  0.00    +0.000 OA
ATOM      6  C   UNL     1       0.594   9.011  21.900  0.00  0.00    +0.000 A 
ATOM      7  C   UNL     1       1.403   8.068  21.412  0.00  0.00    +0.000 A 
ATOM      8  N   UNL     1       1.801   7.958  20.083  0.00  0.00    +0.000 N 
ENDROOT
BRANCH   3   9
ATOM      9  C   UNL     1       0.052  11.086  18.645  0.00  0.00    +0.000 C 
BRANCH   9  10
ATOM     10  C   UNL     1       0.876  12.360  18.740  0.00  0.00    +0.000 A 
ATOM     11  C   UNL     1       2.209  12.373  18.289  0.00  0.00    +0.000 A 
ATOM     12  C   UNL     1       3.006  13.510  18.426  0.00  0.00    +0.000 A 
ATOM     13  C   UNL     1       2.473  14.664  18.989  0.00  0.00    +0.000 A 
ATOM     14 CL   UNL     1       3.470  16.048  19.209  0.00  0.00    +0.000 Cl
ATOM     15  C   UNL     1       1.138  14.703  19.377  0.00  0.00    +0.000 A 
ATOM     16  C   UNL     1       0.341  13.562  19.242  0.00  0.00    +0.000 A 
ATOM     17 CL   UNL     1      -1.314  13.703  19.727  0.00  0.00    +0.000 Cl
ENDBRANCH   9  10
ENDBRANCH   3   9
BRANCH   8  18
ATOM     18  C   UNL     1       2.729   6.854  19.715  0.00  0.00    +0.000 C 
BRANCH  18  19
ATOM     19  C   UNL     1       2.053   5.512  19.486  0.00  0.00    +0.000 A 
ATOM     20  C   UNL     1       1.501   4.742  20.521  0.00  0.00    +0.000 A 
ATOM     21  C   UNL     1       1.011   3.457  20.274  0.00  0.00    +0.000 A 
ATOM     22  C   UNL     1       1.037   2.934  18.984  0.00  0.00    +0.000 A 
ATOM     23  C   UNL     1       1.513   3.710  17.932  0.00  0.00    +0.000 A 
ATOM     24  C   UNL     1       2.011   4.992  18.179  0.00  0.00    +0.000 A 
ENDBRANCH  18  19
ENDBRANCH   8  18
TORSDOF 4
ENDMDL
MODEL 7
REMARK VINA RESULT:      -7.2      6.006      8.588
REMARK  Name = 
REMARK  5 active torsions:
REMARK  status: ('A' for Active; 'I' for Inactive)
REMARK    1  A    between atoms: C_1  and  C_2
REMARK    2  A    between atoms: C_3  and  C_4
REMARK    3  A    between atoms: C_4  and  C_5
REMARK    4  A    between atoms: N_17  and  C_18
REMARK    5  A    between atoms: C_18  and  C_19
REMARK                            x       y       z     vdW  Elec       q    Type
REMARK                         _______ _______ _______ _____ _____    ______ ____
ROOT
ATOM      1  C   UNL     1       2.682   8.642  17.384  0.00  0.00    +0.000 C 
ATOM      2  C   UNL     1       2.257   7.961  18.669  0.00  0.00    +0.000 A 
ATOM      3  C   UNL     1       1.550   8.649  19.605  0.00  0.00    +0.000 A 
ATOM      4  C   UNL     1       1.113   7.927  20.842  0.00  0.00    +0.000 A 
ATOM      5  O   UNL     1       0.418   8.459  21.704  0.00  0.00    +0.000 OA
ATOM      6  C   UNL     1       1.518   6.516  21.007  0.00  0.00    +0.000 A 
ATOM      7  C   UNL     1       2.226   5.959  20.022  0.00  0.00    +0.000 A 
ATOM      8  N   UNL     1       2.613   6.600  18.848  0.00  0.00    +0.000 N 
ENDROOT
BRANCH   3   9
ATOM      9  C   UNL     1       1.200  10.122  19.562  0.00  0.00    +0.000 C 
BRANCH   9  10
ATOM     10  C   UNL     1      -0.189  10.440  19.032  0.00  0.00    +0.000 A 
ATOM     11  C   UNL     1      -0.641   9.848  17.838  0.00  0.00    +0.000 A 
ATOM     12  C   UNL     1      -1.885  10.174  17.296  0.00  0.00    +0.000 A 
ATOM     13  C   UNL     1      -2.712  11.075  17.957  0.00  0.00    +0.000 A 
ATOM     14 CL   UNL     1      -4.221  11.519  17.261  0.00  0.00    +0.000 Cl
ATOM     15  C   UNL     1      -2.323  11.619  19.176  0.00  0.00    +0.000 A 
ATOM     16  C   UNL     1      -1.074  11.295  19.716  0.00  0.00    +0.000 A 
ATOM     17 CL   UNL     1      -0.680  11.998  21.247  0.00  0.00    +0.000 Cl
ENDBRANCH   9  10
ENDBRANCH   3   9
BRANCH   8  18
ATOM     18  C   UNL     1       3.422   5.834  17.862  0.00  0.00    +0.000 C 
BRANCH  18  19
ATOM     19  C   UNL     1       4.925   5.924  18.075  0.00  0.00    +0.000 A 
ATOM     20  C   UNL     1       5.593   5.278  19.126  0.00  0.00    +0.000 A 
ATOM     21  C   UNL     1       6.953   5.503  19.353  0.00  0.00    +0.000 A 
ATOM     22  C   UNL     1       7.673   6.351  18.516  0.00  0.00    +0.000 A 
ATOM     23  C   UNL     1       7.044   6.942  17.425  0.00  0.00    +0.000 A 
ATOM     24  C   UNL     1       5.682   6.726  17.201  0.00  0.00    +0.000 A 
ENDBRANCH  18  19
ENDBRANCH   8  18
TORSDOF 4
ENDMDL
MODEL 8
REMARK VINA RESULT:      -7.2      6.790      8.965
REMARK  Name = 
REMARK  5 active torsions:
REMARK  status: ('A' for Active; 'I' for Inactive)
REMARK    1  A    between atoms: C_1  and  C_2
REMARK    2  A    between atoms: C_3  and  C_4
REMARK    3  A    between atoms: C_4  and  C_5
REMARK    4  A    between atoms: N_17  and  C_18
REMARK    5  A    between atoms: C_18  and  C_19
REMARK                            x       y       z     vdW  Elec       q    Type
REMARK                         _______ _______ _______ _____ _____    ______ ____
ROOT
ATOM      1  C   UNL     1       1.881   9.552  17.614  0.00  0.00    +0.000 C 
ATOM      2  C   UNL     1       1.548   8.977  18.975  0.00  0.00    +0.000 A 
ATOM      3  C   UNL     1       0.730   9.656  19.823  0.00  0.00    +0.000 A 
ATOM      4  C   UNL     1       0.393   9.033  21.142  0.00  0.00    +0.000 A 
ATOM      5  O   UNL     1      -0.389   9.552  21.935  0.00  0.00    +0.000 OA
ATOM      6  C   UNL     1       1.010   7.734  21.479  0.00  0.00    +0.000 A 
ATOM      7  C   UNL     1       1.809   7.177  20.567  0.00  0.00    +0.000 A 
ATOM      8  N   UNL     1       2.108   7.721  19.320  0.00  0.00    +0.000 N 
ENDROOT
BRANCH   3   9
ATOM      9  C   UNL     1       0.156  11.040  19.600  0.00  0.00    +0.000 C 
BRANCH   9  10
ATOM     10  C   UNL     1      -1.273  11.070  19.079  0.00  0.00    +0.000 A 
ATOM     11  C   UNL     1      -1.685  10.148  18.099  0.00  0.00    +0.000 A 
ATOM     12  C   UNL     1      -2.971  10.197  17.557  0.00  0.00    +0.000 A 
ATOM     13  C   UNL     1      -3.875  11.151  18.010  0.00  0.00    +0.000 A 
ATOM     14 CL   UNL     1      -5.440  11.247  17.304  0.00  0.00    +0.000 Cl
ATOM     15  C   UNL     1      -3.518  12.027  19.029  0.00  0.00    +0.000 A 
ATOM     16  C   UNL     1      -2.229  11.980  19.569  0.00  0.00    +0.000 A 
ATOM     17 CL   UNL     1      -1.877  13.089  20.848  0.00  0.00    +0.000 Cl
ENDBRANCH   9  10
ENDBRANCH   3   9
BRANCH   8  18
ATOM     18  C   UNL     1       3.041   6.974  18.432  0.00  0.00    +0.000 C 
BRANCH  18  19
ATOM     19  C   UNL     1       2.885   5.463  18.482  0.00  0.00    +0.000 A 
ATOM     20  C   UNL     1       1.773   4.787  17.957  0.00  0.00    +0.000 A 
ATOM     21  C   UNL     1       1.617   3.412  18.149  0.00  0.00    +0.000 A 
ATOM     22  C   UNL     1       2.583   2.686  18.840  0.00  0.00    +0.000 A 
ATOM     23  C   UNL     1       3.728   3.327  19.304  0.00  0.00    +0.000 A 
ATOM     24  C   UNL     1       3.882   4.703  19.121  0.00  0.00    +0.000 A 
ENDBRANCH  18  19
ENDBRANCH   8  18
TORSDOF 4
ENDMDL
MODEL 9
REMARK VINA RESULT:      -7.1      7.049      9.265
REMARK  Name = 
REMARK  5 active torsions:
REMARK  status: ('A' for Active; 'I' for Inactive)
REMARK    1  A    between atoms: C_1  and  C_2
REMARK    2  A    between atoms: C_3  and  C_4
REMARK    3  A    between atoms: C_4  and  C_5
REMARK    4  A    between atoms: N_17  and  C_18
REMARK    5  A    between atoms: C_18  and  C_19
REMARK                            x       y       z     vdW  Elec       q    Type
REMARK                         _______ _______ _______ _____ _____    ______ ____
ROOT
ATOM      1  C   UNL     1       1.474   9.301  17.816  0.00  0.00    +0.000 C 
ATOM      2  C   UNL     1       1.076   9.280  19.277  0.00  0.00    +0.000 A 
ATOM      3  C   UNL     1       0.233  10.227  19.770  0.00  0.00    +0.000 A 
ATOM      4  C   UNL     1      -0.168  10.146  21.210  0.00  0.00    +0.000 A 
ATOM      5  O   UNL     1      -0.974  10.924  21.714  0.00  0.00    +0.000 OA
ATOM      6  C   UNL     1       0.414   9.070  22.038  0.00  0.00    +0.000 A 
ATOM      7  C   UNL     1       1.242   8.212  21.439  0.00  0.00    +0.000 A 
ATOM      8  N   UNL     1       1.602   8.247  20.094  0.00  0.00    +0.000 N 
ENDROOT
BRANCH   3   9
ATOM      9  C   UNL     1      -0.310  11.425  19.017  0.00  0.00    +0.000 C 
BRANCH   9  10
ATOM     10  C   UNL     1      -1.818  11.433  18.822  0.00  0.00    +0.000 A 
ATOM     11  C   UNL     1      -2.623  12.299  19.585  0.00  0.00    +0.000 A 
ATOM     12  C   UNL     1      -4.014  12.278  19.471  0.00  0.00    +0.000 A 
ATOM     13  C   UNL     1      -4.621  11.413  18.568  0.00  0.00    +0.000 A 
ATOM     14 CL   UNL     1      -6.337  11.348  18.467  0.00  0.00    +0.000 Cl
ATOM     15  C   UNL     1      -3.846  10.599  17.748  0.00  0.00    +0.000 A 
ATOM     16  C   UNL     1      -2.453  10.617  17.866  0.00  0.00    +0.000 A 
ATOM     17 CL   UNL     1      -1.566   9.591  16.792  0.00  0.00    +0.000 Cl
ENDBRANCH   9  10
ENDBRANCH   3   9
BRANCH   8  18
ATOM     18  C   UNL     1       2.560   7.223  19.594  0.00  0.00    +0.000 C 
BRANCH  18  19
ATOM     19  C   UNL     1       1.970   5.830  19.444  0.00  0.00    +0.000 A 
ATOM     20  C   UNL     1       1.507   5.070  20.528  0.00  0.00    +0.000 A 
ATOM     21  C   UNL     1       1.100   3.745  20.350  0.00  0.00    +0.000 A 
ATOM     22  C   UNL     1       1.119   3.170  19.082  0.00  0.00    +0.000 A 
ATOM     23  C   UNL     1       1.506   3.932  17.984  0.00  0.00    +0.000 A 
ATOM     24  C   UNL     1       1.922   5.254  18.161  0.00  0.00    +0.000 A 
ENDBRANCH  18  19
ENDBRANCH   8  18
TORSDOF 4
ENDMDL
