MODEL 1
REMARK VINA RESULT:      -8.6      0.000      0.000
REMARK  Name = 
REMARK  9 active torsions:
REMARK  status: ('A' for Active; 'I' for Inactive)
REMARK    1  A    between atoms: C_1  and  C_2
REMARK    2  A    between atoms: C_7  and  C_8
REMARK    3  A    between atoms: C_11  and  C_12
REMARK    4  A    between atoms: C_12  and  C_13
REMARK    5  A    between atoms: C_12  and  N_14
REMARK    6  A    between atoms: C_19  and  N_20
REMARK    7  A    between atoms: C_25  and  C_26
REMARK    8  A    between atoms: C_26  and  C_27
REMARK    9  A    between atoms: C_26  and  C_28
REMARK                            x       y       z     vdW  Elec       q    Type
REMARK                         _______ _______ _______ _____ _____    ______ ____
ROOT
ATOM      1  N   UNL     1      -1.360  11.155  19.207  0.00  0.00    +0.000 N 
ATOM      2  C   UNL     1      -2.368  11.321  18.282  0.00  0.00    +0.000 A 
ATOM      3  C   UNL     1      -2.254  11.077  16.913  0.00  0.00    +0.000 A 
ATOM      4  N   UNL     1      -3.309  11.080  16.062  0.00  0.00    +0.000 NA
ATOM      5  C   UNL     1      -4.509  11.292  16.650  0.00  0.00    +0.000 A 
ATOM      6  C   UNL     1      -4.645  11.584  18.005  0.00  0.00    +0.000 A 
ATOM      7  N   UNL     1      -3.563  11.646  18.819  0.00  0.00    +0.000 NA
ATOM      8  H   UNL     1      -1.679  11.492  20.106  0.00  0.00    +0.000 HD
ENDROOT
BRANCH   6   9
ATOM      9  N   UNL     1      -5.911  11.827  18.567  0.00  0.00    +0.000 N 
ATOM     10  C   UNL     1      -6.639  10.812  19.149  0.00  0.00    +0.000 C 
ATOM     11  O   UNL     1      -6.474   9.607  19.020  0.00  0.00    +0.000 OA
ATOM     12  O   UNL     1      -7.590  11.339  19.979  0.00  0.00    +0.000 OA
ATOM     13  C   UNL     1      -7.598  12.761  19.805  0.00  0.00    +0.000 C 
ATOM     14  C   UNL     1      -6.271  13.093  19.140  0.00  0.00    +0.000 C 
BRANCH  14  15
ATOM     15  C   UNL     1      -6.338  14.256  18.116  0.00  0.00    +0.000 C 
ATOM     16  C   UNL     1      -7.243  13.960  16.910  0.00  0.00    +0.000 C 
ATOM     17  C   UNL     1      -6.772  15.568  18.776  0.00  0.00    +0.000 C 
ENDBRANCH  14  15
ENDBRANCH   6   9
BRANCH   1  18
ATOM     18  C   UNL     1       0.047  11.335  18.893  0.00  0.00    +0.000 C 
ATOM     19  C   UNL     1       0.628  12.387  19.848  0.00  0.00    +0.000 C 
BRANCH  18  23
ATOM     20  C   UNL     1       2.029   7.480  19.459  0.00  0.00    +0.000 A 
ATOM     21  C   UNL     1       1.477   8.215  20.525  0.00  0.00    +0.000 A 
ATOM     22  C   UNL     1       0.941   9.492  20.343  0.00  0.00    +0.000 A 
ATOM     23  C   UNL     1       0.862  10.062  19.071  0.00  0.00    +0.000 A 
ATOM     24  C   UNL     1       1.419   9.358  17.992  0.00  0.00    +0.000 A 
ATOM     25  C   UNL     1       2.013   8.104  18.196  0.00  0.00    +0.000 A 
BRANCH  20  32
ATOM     26  C   UNL     1       4.444   6.283  17.897  0.00  0.00    +0.000 C 
ATOM     27  C   UNL     1       3.642   5.532  18.930  0.00  0.00    +0.000 A 
ATOM     28  C   UNL     1       4.040   4.202  19.186  0.00  0.00    +0.000 A 
ATOM     29  C   UNL     1       3.359   3.400  20.097  0.00  0.00    +0.000 A 
ATOM     30  C   UNL     1       2.278   3.921  20.789  0.00  0.00    +0.000 A 
ATOM     31  C   UNL     1       1.887   5.245  20.564  0.00  0.00    +0.000 A 
ATOM     32  C   UNL     1       2.542   6.089  19.634  0.00  0.00    +0.000 A 
ENDBRANCH  20  32
ENDBRANCH  18  23
ENDBRANCH   1  18
TORSDOF 5
ENDMDL
MODEL 2
REMARK VINA RESULT:      -8.6      4.859      6.474
REMARK  Name = 
REMARK  9 active torsions:
REMARK  status: ('A' for Active; 'I' for Inactive)
REMARK    1  A    between atoms: C_1  and  C_2
REMARK    2  A    between atoms: C_7  and  C_8
REMARK    3  A    between atoms: C_11  and  C_12
REMARK    4  A    between atoms: C_12  and  C_13
REMARK    5  A    between atoms: C_12  and  N_14
REMARK    6  A    between atoms: C_19  and  N_20
REMARK    7  A    between atoms: C_25  and  C_26
REMARK    8  A    between atoms: C_26  and  C_27
REMARK    9  A    between atoms: C_26  and  C_28
REMARK                            x       y       z     vdW  Elec       q    Type
REMARK                         _______ _______ _______ _____ _____    ______ ____
ROOT
ATOM      1  N   UNL     1       0.972  11.881  19.006  0.00  0.00    +0.000 N 
ATOM      2  C   UNL     1       1.386  13.021  19.661  0.00  0.00    +0.000 A 
ATOM      3  C   UNL     1       1.968  13.057  20.928  0.00  0.00    +0.000 A 
ATOM      4  N   UNL     1       2.523  14.171  21.465  0.00  0.00    +0.000 NA
ATOM      5  C   UNL     1       2.515  15.254  20.653  0.00  0.00    +0.000 A 
ATOM      6  C   UNL     1       1.900  15.258  19.404  0.00  0.00    +0.000 A 
ATOM      7  N   UNL     1       1.289  14.148  18.923  0.00  0.00    +0.000 NA
ATOM      8  H   UNL     1       0.501  12.144  18.151  0.00  0.00    +0.000 HD
ENDROOT
BRANCH   6   9
ATOM      9  N   UNL     1       1.891  16.416  18.608  0.00  0.00    +0.000 N 
ATOM     10  C   UNL     1       2.920  16.685  17.729  0.00  0.00    +0.000 C 
ATOM     11  O   UNL     1       4.037  16.186  17.714  0.00  0.00    +0.000 OA
ATOM     12  O   UNL     1       2.504  17.587  16.790  0.00  0.00    +0.000 OA
ATOM     13  C   UNL     1       1.205  18.059  17.165  0.00  0.00    +0.000 C 
ATOM     14  C   UNL     1       0.677  17.036  18.160  0.00  0.00    +0.000 C 
BRANCH  14  15
ATOM     15  C   UNL     1      -0.186  17.635  19.301  0.00  0.00    +0.000 C 
ATOM     16  C   UNL     1       0.577  18.630  20.190  0.00  0.00    +0.000 C 
ATOM     17  C   UNL     1      -1.457  18.297  18.762  0.00  0.00    +0.000 C 
ENDBRANCH  14  15
ENDBRANCH   6   9
BRANCH   1  18
ATOM     18  C   UNL     1       0.483  10.700  19.696  0.00  0.00    +0.000 C 
ATOM     19  C   UNL     1      -1.022  10.564  19.421  0.00  0.00    +0.000 C 
BRANCH  18  23
ATOM     20  C   UNL     1       2.743   7.233  18.288  0.00  0.00    +0.000 A 
ATOM     21  C   UNL     1       2.306   8.256  17.427  0.00  0.00    +0.000 A 
ATOM     22  C   UNL     1       1.496   9.304  17.874  0.00  0.00    +0.000 A 
ATOM     23  C   UNL     1       1.148   9.416  19.222  0.00  0.00    +0.000 A 
ATOM     24  C   UNL     1       1.557   8.401  20.100  0.00  0.00    +0.000 A 
ATOM     25  C   UNL     1       2.316   7.320  19.628  0.00  0.00    +0.000 A 
BRANCH  20  32
ATOM     26  C   UNL     1       1.873   4.290  17.755  0.00  0.00    +0.000 C 
ATOM     27  C   UNL     1       3.280   4.806  17.585  0.00  0.00    +0.000 A 
ATOM     28  C   UNL     1       4.242   3.868  17.150  0.00  0.00    +0.000 A 
ATOM     29  C   UNL     1       5.578   4.220  16.984  0.00  0.00    +0.000 A 
ATOM     30  C   UNL     1       5.976   5.524  17.228  0.00  0.00    +0.000 A 
ATOM     31  C   UNL     1       5.030   6.470  17.637  0.00  0.00    +0.000 A 
ATOM     32  C   UNL     1       3.664   6.149  17.834  0.00  0.00    +0.000 A 
ENDBRANCH  20  32
ENDBRANCH  18  23
ENDBRANCH   1  18
TORSDOF 5
ENDMDL
MODEL 3
REMARK VINA RESULT:      -8.4      4.586      6.117
REMARK  Name = 
REMARK  9 active torsions:
REMARK  status: ('A' for Active; 'I' for Inactive)
REMARK    1  A    between atoms: C_1  and  C_2
REMARK    2  A    between atoms: C_7  and  C_8
REMARK    3  A    between atoms: C_11  and  C_12
REMARK    4  A    between atoms: C_12  and  C_13
REMARK    5  A    between atoms: C_12  and  N_14
REMARK    6  A    between atoms: C_19  and  N_20
REMARK    7  A    between atoms: C_25  and  C_26
REMARK    8  A    between atoms: C_26  and  C_27
REMARK    9  A    between atoms: C_26  and  C_28
REMARK                            x       y       z     vdW  Elec       q    Type
REMARK                         _______ _______ _______ _____ _____    ______ ____
ROOT
ATOM      1  N   UNL     1       0.478  11.875  18.478  0.00  0.00    +0.000 N 
ATOM      2  C   UNL     1       0.910  12.908  19.282  0.00  0.00    +0.000 A 
ATOM      3  C   UNL     1       1.421  12.766  20.571  0.00  0.00    +0.000 A 
ATOM      4  N   UNL     1       2.000  13.778  21.263  0.00  0.00    +0.000 NA
ATOM      5  C   UNL     1       2.092  14.946  20.585  0.00  0.00    +0.000 A 
ATOM      6  C   UNL     1       1.549  15.127  19.316  0.00  0.00    +0.000 A 
ATOM      7  N   UNL     1       0.911  14.115  18.677  0.00  0.00    +0.000 NA
ATOM      8  H   UNL     1       0.069  12.260  17.637  0.00  0.00    +0.000 HD
ENDROOT
BRANCH   6   9
ATOM      9  N   UNL     1       1.642  16.367  18.662  0.00  0.00    +0.000 N 
ATOM     10  C   UNL     1       2.734  16.681  17.880  0.00  0.00    +0.000 C 
ATOM     11  O   UNL     1       3.826  16.130  17.869  0.00  0.00    +0.000 OA
ATOM     12  O   UNL     1       2.419  17.705  17.031  0.00  0.00    +0.000 OA
ATOM     13  C   UNL     1       1.122  18.198  17.385  0.00  0.00    +0.000 C 
ATOM     14  C   UNL     1       0.487  17.098  18.222  0.00  0.00    +0.000 C 
BRANCH  14  15
ATOM     15  C   UNL     1      -0.417  17.607  19.375  0.00  0.00    +0.000 C 
ATOM     16  C   UNL     1      -1.387  16.541  19.909  0.00  0.00    +0.000 C 
ATOM     17  C   UNL     1       0.408  18.178  20.531  0.00  0.00    +0.000 C 
ENDBRANCH  14  15
ENDBRANCH   6   9
BRANCH   1  18
ATOM     18  C   UNL     1      -0.107  10.652  18.999  0.00  0.00    +0.000 C 
ATOM     19  C   UNL     1      -1.238  10.214  18.058  0.00  0.00    +0.000 C 
BRANCH  18  23
ATOM     20  C   UNL     1       2.425   7.099  19.271  0.00  0.00    +0.000 A 
ATOM     21  C   UNL     1       1.799   7.674  20.392  0.00  0.00    +0.000 A 
ATOM     22  C   UNL     1       1.079   8.868  20.306  0.00  0.00    +0.000 A 
ATOM     23  C   UNL     1       0.888   9.503  19.077  0.00  0.00    +0.000 A 
ATOM     24  C   UNL     1       1.514   8.960  17.945  0.00  0.00    +0.000 A 
ATOM     25  C   UNL     1       2.288   7.795  18.054  0.00  0.00    +0.000 A 
BRANCH  20  32
ATOM     26  C   UNL     1       1.216   4.500  20.491  0.00  0.00    +0.000 C 
ATOM     27  C   UNL     1       2.597   4.597  19.892  0.00  0.00    +0.000 A 
ATOM     28  C   UNL     1       3.365   3.413  19.898  0.00  0.00    +0.000 A 
ATOM     29  C   UNL     1       4.665   3.386  19.399  0.00  0.00    +0.000 A 
ATOM     30  C   UNL     1       5.214   4.539  18.863  0.00  0.00    +0.000 A 
ATOM     31  C   UNL     1       4.456   5.714  18.829  0.00  0.00    +0.000 A 
ATOM     32  C   UNL     1       3.137   5.789  19.342  0.00  0.00    +0.000 A 
ENDBRANCH  20  32
ENDBRANCH  18  23
ENDBRANCH   1  18
TORSDOF 5
ENDMDL
MODEL 4
REMARK VINA RESULT:      -8.4      5.661     10.823
REMARK  Name = 
REMARK  9 active torsions:
REMARK  status: ('A' for Active; 'I' for Inactive)
REMARK    1  A    between atoms: C_1  and  C_2
REMARK    2  A    between atoms: C_7  and  C_8
REMARK    3  A    between atoms: C_11  and  C_12
REMARK    4  A    between atoms: C_12  and  C_13
REMARK    5  A    between atoms: C_12  and  N_14
REMARK    6  A    between atoms: C_19  and  N_20
REMARK    7  A    between atoms: C_25  and  C_26
REMARK    8  A    between atoms: C_26  and  C_27
REMARK    9  A    between atoms: C_26  and  C_28
REMARK                            x       y       z     vdW  Elec       q    Type
REMARK                         _______ _______ _______ _____ _____    ______ ____
ROOT
ATOM      1  N   UNL     1       2.096   7.865  19.365  0.00  0.00    +0.000 N 
ATOM      2  C   UNL     1       2.670   6.620  19.508  0.00  0.00    +0.000 A 
ATOM      3  C   UNL     1       2.042   5.501  20.054  0.00  0.00    +0.000 A 
ATOM      4  N   UNL     1       2.571   4.253  20.017  0.00  0.00    +0.000 NA
ATOM      5  C   UNL     1       3.751   4.159  19.361  0.00  0.00    +0.000 A 
ATOM      6  C   UNL     1       4.421   5.267  18.848  0.00  0.00    +0.000 A 
ATOM      7  N   UNL     1       3.901   6.513  18.964  0.00  0.00    +0.000 NA
ATOM      8  H   UNL     1       2.796   8.515  19.033  0.00  0.00    +0.000 HD
ENDROOT
BRANCH   6   9
ATOM      9  N   UNL     1       5.660   5.124  18.200  0.00  0.00    +0.000 N 
ATOM     10  C   UNL     1       6.840   5.112  18.912  0.00  0.00    +0.000 C 
ATOM     11  O   UNL     1       7.021   5.490  20.062  0.00  0.00    +0.000 OA
ATOM     12  O   UNL     1       7.832   4.546  18.159  0.00  0.00    +0.000 OA
ATOM     13  C   UNL     1       7.324   4.333  16.838  0.00  0.00    +0.000 C 
ATOM     14  C   UNL     1       5.810   4.396  16.972  0.00  0.00    +0.000 C 
BRANCH  14  15
ATOM     15  C   UNL     1       5.083   5.037  15.762  0.00  0.00    +0.000 C 
ATOM     16  C   UNL     1       5.262   6.562  15.677  0.00  0.00    +0.000 C 
ATOM     17  C   UNL     1       5.508   4.394  14.439  0.00  0.00    +0.000 C 
ENDBRANCH  14  15
ENDBRANCH   6   9
BRANCH   1  18
ATOM     18  C   UNL     1       1.086   8.384  20.270  0.00  0.00    +0.000 C 
ATOM     19  C   UNL     1       1.621   8.285  21.705  0.00  0.00    +0.000 C 
BRANCH  18  23
ATOM     20  C   UNL     1       0.534  12.661  19.550  0.00  0.00    +0.000 A 
ATOM     21  C   UNL     1       0.831  12.136  20.822  0.00  0.00    +0.000 A 
ATOM     22  C   UNL     1       0.900  10.761  21.056  0.00  0.00    +0.000 A 
ATOM     23  C   UNL     1       0.752   9.847  20.011  0.00  0.00    +0.000 A 
ATOM     24  C   UNL     1       0.440  10.342  18.736  0.00  0.00    +0.000 A 
ATOM     25  C   UNL     1       0.309  11.723  18.524  0.00  0.00    +0.000 A 
BRANCH  20  32
ATOM     26  C   UNL     1       2.961  14.259  18.427  0.00  0.00    +0.000 C 
ATOM     27  C   UNL     1       1.623  14.868  18.764  0.00  0.00    +0.000 A 
ATOM     28  C   UNL     1       1.494  16.256  18.541  0.00  0.00    +0.000 A 
ATOM     29  C   UNL     1       0.316  16.935  18.841  0.00  0.00    +0.000 A 
ATOM     30  C   UNL     1      -0.765  16.235  19.350  0.00  0.00    +0.000 A 
ATOM     31  C   UNL     1      -0.659  14.855  19.554  0.00  0.00    +0.000 A 
ATOM     32  C   UNL     1       0.526  14.129  19.278  0.00  0.00    +0.000 A 
ENDBRANCH  20  32
ENDBRANCH  18  23
ENDBRANCH   1  18
TORSDOF 5
ENDMDL
MODEL 5
REMARK VINA RESULT:      -8.4      2.069      3.123
REMARK  Name = 
REMARK  9 active torsions:
REMARK  status: ('A' for Active; 'I' for Inactive)
REMARK    1  A    between atoms: C_1  and  C_2
REMARK    2  A    between atoms: C_7  and  C_8
REMARK    3  A    between atoms: C_11  and  C_12
REMARK    4  A    between atoms: C_12  and  C_13
REMARK    5  A    between atoms: C_12  and  N_14
REMARK    6  A    between atoms: C_19  and  N_20
REMARK    7  A    between atoms: C_25  and  C_26
REMARK    8  A    between atoms: C_26  and  C_27
REMARK    9  A    between atoms: C_26  and  C_28
REMARK                            x       y       z     vdW  Elec       q    Type
REMARK                         _______ _______ _______ _____ _____    ______ ____
ROOT
ATOM      1  N   UNL     1      -0.847  10.766  20.105  0.00  0.00    +0.000 N 
ATOM      2  C   UNL     1      -1.520  11.930  20.408  0.00  0.00    +0.000 A 
ATOM      3  C   UNL     1      -0.952  13.203  20.445  0.00  0.00    +0.000 A 
ATOM      4  N   UNL     1      -1.675  14.343  20.571  0.00  0.00    +0.000 NA
ATOM      5  C   UNL     1      -3.016  14.159  20.612  0.00  0.00    +0.000 A 
ATOM      6  C   UNL     1      -3.605  12.898  20.624  0.00  0.00    +0.000 A 
ATOM      7  N   UNL     1      -2.851  11.773  20.570  0.00  0.00    +0.000 NA
ATOM      8  H   UNL     1      -1.468   9.980  20.244  0.00  0.00    +0.000 HD
ENDROOT
BRANCH   6   9
ATOM      9  N   UNL     1      -5.002  12.755  20.698  0.00  0.00    +0.000 N 
ATOM     10  C   UNL     1      -5.654  12.751  21.913  0.00  0.00    +0.000 C 
ATOM     11  O   UNL     1      -5.166  12.577  23.021  0.00  0.00    +0.000 OA
ATOM     12  O   UNL     1      -6.980  13.032  21.729  0.00  0.00    +0.000 OA
ATOM     13  C   UNL     1      -7.242  13.055  20.322  0.00  0.00    +0.000 C 
ATOM     14  C   UNL     1      -5.881  13.213  19.660  0.00  0.00    +0.000 C 
BRANCH  14  15
ATOM     15  C   UNL     1      -5.726  12.453  18.318  0.00  0.00    +0.000 C 
ATOM     16  C   UNL     1      -6.296  11.026  18.352  0.00  0.00    +0.000 C 
ATOM     17  C   UNL     1      -6.347  13.228  17.153  0.00  0.00    +0.000 C 
ENDBRANCH  14  15
ENDBRANCH   6   9
BRANCH   1  18
ATOM     18  C   UNL     1       0.560  10.559  20.403  0.00  0.00    +0.000 C 
ATOM     19  C   UNL     1       0.714  10.371  21.919  0.00  0.00    +0.000 C 
BRANCH  18  23
ATOM     20  C   UNL     1       2.559   7.209  18.431  0.00  0.00    +0.000 A 
ATOM     21  C   UNL     1       2.108   8.344  17.731  0.00  0.00    +0.000 A 
ATOM     22  C   UNL     1       1.378   9.357  18.357  0.00  0.00    +0.000 A 
ATOM     23  C   UNL     1       1.132   9.319  19.732  0.00  0.00    +0.000 A 
ATOM     24  C   UNL     1       1.558   8.192  20.451  0.00  0.00    +0.000 A 
ATOM     25  C   UNL     1       2.234   7.149  19.799  0.00  0.00    +0.000 A 
BRANCH  20  32
ATOM     26  C   UNL     1       1.687   4.242  18.063  0.00  0.00    +0.000 C 
ATOM     27  C   UNL     1       3.011   4.802  17.607  0.00  0.00    +0.000 A 
ATOM     28  C   UNL     1       3.888   3.897  16.972  0.00  0.00    +0.000 A 
ATOM     29  C   UNL     1       5.149   4.291  16.535  0.00  0.00    +0.000 A 
ATOM     30  C   UNL     1       5.550   5.606  16.702  0.00  0.00    +0.000 A 
ATOM     31  C   UNL     1       4.682   6.520  17.308  0.00  0.00    +0.000 A 
ATOM     32  C   UNL     1       3.397   6.157  17.783  0.00  0.00    +0.000 A 
ENDBRANCH  20  32
ENDBRANCH  18  23
ENDBRANCH   1  18
TORSDOF 5
ENDMDL
MODEL 6
REMARK VINA RESULT:      -8.3      4.796      6.193
REMARK  Name = 
REMARK  9 active torsions:
REMARK  status: ('A' for Active; 'I' for Inactive)
REMARK    1  A    between atoms: C_1  and  C_2
REMARK    2  A    between atoms: C_7  and  C_8
REMARK    3  A    between atoms: C_11  and  C_12
REMARK    4  A    between atoms: C_12  and  C_13
REMARK    5  A    between atoms: C_12  and  N_14
REMARK    6  A    between atoms: C_19  and  N_20
REMARK    7  A    between atoms: C_25  and  C_26
REMARK    8  A    between atoms: C_26  and  C_27
REMARK    9  A    between atoms: C_26  and  C_28
REMARK                            x       y       z     vdW  Elec       q    Type
REMARK                         _______ _______ _______ _____ _____    ______ ____
ROOT
ATOM      1  N   UNL     1       0.967  11.936  18.851  0.00  0.00    +0.000 N 
ATOM      2  C   UNL     1       1.274  13.073  19.568  0.00  0.00    +0.000 A 
ATOM      3  C   UNL     1       1.750  13.096  20.878  0.00  0.00    +0.000 A 
ATOM      4  N   UNL     1       2.208  14.216  21.489  0.00  0.00    +0.000 NA
ATOM      5  C   UNL     1       2.215  15.322  20.709  0.00  0.00    +0.000 A 
ATOM      6  C   UNL     1       1.702  15.337  19.415  0.00  0.00    +0.000 A 
ATOM      7  N   UNL     1       1.184  14.217  18.855  0.00  0.00    +0.000 NA
ATOM      8  H   UNL     1       0.554  12.205  17.967  0.00  0.00    +0.000 HD
ENDROOT
BRANCH   6   9
ATOM      9  N   UNL     1       1.703  16.518  18.652  0.00  0.00    +0.000 N 
ATOM     10  C   UNL     1       2.755  16.824  17.814  0.00  0.00    +0.000 C 
ATOM     11  O   UNL     1       3.879  16.340  17.820  0.00  0.00    +0.000 OA
ATOM     12  O   UNL     1       2.357  17.749  16.888  0.00  0.00    +0.000 OA
ATOM     13  C   UNL     1       1.042  18.194  17.236  0.00  0.00    +0.000 C 
ATOM     14  C   UNL     1       0.495  17.136  18.184  0.00  0.00    +0.000 C 
BRANCH  14  15
ATOM     15  C   UNL     1      -0.410  17.692  19.314  0.00  0.00    +0.000 C 
ATOM     16  C   UNL     1      -1.268  16.615  19.997  0.00  0.00    +0.000 C 
ATOM     17  C   UNL     1       0.401  18.450  20.368  0.00  0.00    +0.000 C 
ENDBRANCH  14  15
ENDBRANCH   6   9
BRANCH   1  18
ATOM     18  C   UNL     1       0.479  10.715  19.467  0.00  0.00    +0.000 C 
ATOM     19  C   UNL     1      -0.950  10.456  18.969  0.00  0.00    +0.000 C 
BRANCH  18  23
ATOM     20  C   UNL     1       2.519   6.989  18.433  0.00  0.00    +0.000 A 
ATOM     21  C   UNL     1       2.052   7.265  19.732  0.00  0.00    +0.000 A 
ATOM     22  C   UNL     1       1.497   8.501  20.071  0.00  0.00    +0.000 A 
ATOM     23  C   UNL     1       1.313   9.494  19.105  0.00  0.00    +0.000 A 
ATOM     24  C   UNL     1       1.783   9.251  17.806  0.00  0.00    +0.000 A 
ATOM     25  C   UNL     1       2.398   8.029  17.491  0.00  0.00    +0.000 A 
BRANCH  20  32
ATOM     26  C   UNL     1       5.458   6.443  17.556  0.00  0.00    +0.000 C 
ATOM     27  C   UNL     1       4.387   5.386  17.649  0.00  0.00    +0.000 A 
ATOM     28  C   UNL     1       4.776   4.071  17.312  0.00  0.00    +0.000 A 
ATOM     29  C   UNL     1       3.868   3.016  17.332  0.00  0.00    +0.000 A 
ATOM     30  C   UNL     1       2.557   3.250  17.712  0.00  0.00    +0.000 A 
ATOM     31  C   UNL     1       2.163   4.543  18.070  0.00  0.00    +0.000 A 
ATOM     32  C   UNL     1       3.050   5.648  18.047  0.00  0.00    +0.000 A 
ENDBRANCH  20  32
ENDBRANCH  18  23
ENDBRANCH   1  18
TORSDOF 5
ENDMDL
MODEL 7
REMARK VINA RESULT:      -8.3      4.053     10.372
REMARK  Name = 
REMARK  9 active torsions:
REMARK  status: ('A' for Active; 'I' for Inactive)
REMARK    1  A    between atoms: C_1  and  C_2
REMARK    2  A    between atoms: C_7  and  C_8
REMARK    3  A    between atoms: C_11  and  C_12
REMARK    4  A    between atoms: C_12  and  C_13
REMARK    5  A    between atoms: C_12  and  N_14
REMARK    6  A    between atoms: C_19  and  N_20
REMARK    7  A    between atoms: C_25  and  C_26
REMARK    8  A    between atoms: C_26  and  C_27
REMARK    9  A    between atoms: C_26  and  C_28
REMARK                            x       y       z     vdW  Elec       q    Type
REMARK                         _______ _______ _______ _____ _____    ______ ____
ROOT
ATOM      1  N   UNL     1       1.975   9.299  18.057  0.00  0.00    +0.000 N 
ATOM      2  C   UNL     1       2.384   8.150  18.700  0.00  0.00    +0.000 A 
ATOM      3  C   UNL     1       1.924   7.715  19.942  0.00  0.00    +0.000 A 
ATOM      4  N   UNL     1       2.213   6.497  20.463  0.00  0.00    +0.000 NA
ATOM      5  C   UNL     1       2.953   5.699  19.658  0.00  0.00    +0.000 A 
ATOM      6  C   UNL     1       3.463   6.126  18.435  0.00  0.00    +0.000 A 
ATOM      7  N   UNL     1       3.218   7.376  17.972  0.00  0.00    +0.000 NA
ATOM      8  H   UNL     1       2.533   9.426  17.223  0.00  0.00    +0.000 HD
ENDROOT
BRANCH   6   9
ATOM      9  N   UNL     1       4.253   5.272  17.646  0.00  0.00    +0.000 N 
ATOM     10  C   UNL     1       3.695   4.207  16.971  0.00  0.00    +0.000 C 
ATOM     11  O   UNL     1       2.603   3.691  17.164  0.00  0.00    +0.000 OA
ATOM     12  O   UNL     1       4.532   3.803  15.967  0.00  0.00    +0.000 OA
ATOM     13  C   UNL     1       5.764   4.522  16.094  0.00  0.00    +0.000 C 
ATOM     14  C   UNL     1       5.443   5.718  16.979  0.00  0.00    +0.000 C 
BRANCH  14  15
ATOM     15  C   UNL     1       6.589   6.133  17.938  0.00  0.00    +0.000 C 
ATOM     16  C   UNL     1       7.592   5.003  18.221  0.00  0.00    +0.000 C 
ATOM     17  C   UNL     1       7.335   7.369  17.428  0.00  0.00    +0.000 C 
ENDBRANCH  14  15
ENDBRANCH   6   9
BRANCH   1  18
ATOM     18  C   UNL     1       1.552  10.497  18.760  0.00  0.00    +0.000 C 
ATOM     19  C   UNL     1       2.141  11.718  18.040  0.00  0.00    +0.000 C 
BRANCH  18  23
ATOM     20  C   UNL     1      -2.734  11.349  18.611  0.00  0.00    +0.000 A 
ATOM     21  C   UNL     1      -1.852  12.032  19.470  0.00  0.00    +0.000 A 
ATOM     22  C   UNL     1      -0.505  11.677  19.582  0.00  0.00    +0.000 A 
ATOM     23  C   UNL     1       0.040  10.670  18.781  0.00  0.00    +0.000 A 
ATOM     24  C   UNL     1      -0.820   9.962  17.928  0.00  0.00    +0.000 A 
ATOM     25  C   UNL     1      -2.184  10.284  17.870  0.00  0.00    +0.000 A 
BRANCH  20  32
ATOM     26  C   UNL     1      -4.308  11.160  15.930  0.00  0.00    +0.000 C 
ATOM     27  C   UNL     1      -4.885  11.683  17.221  0.00  0.00    +0.000 A 
ATOM     28  C   UNL     1      -6.233  12.103  17.179  0.00  0.00    +0.000 A 
ATOM     29  C   UNL     1      -6.866  12.630  18.301  0.00  0.00    +0.000 A 
ATOM     30  C   UNL     1      -6.171  12.726  19.495  0.00  0.00    +0.000 A 
ATOM     31  C   UNL     1      -4.843  12.292  19.558  0.00  0.00    +0.000 A 
ATOM     32  C   UNL     1      -4.156  11.766  18.436  0.00  0.00    +0.000 A 
ENDBRANCH  20  32
ENDBRANCH  18  23
ENDBRANCH   1  18
TORSDOF 5
ENDMDL
MODEL 8
REMARK VINA RESULT:      -8.3      0.967      1.613
REMARK  Name = 
REMARK  9 active torsions:
REMARK  status: ('A' for Active; 'I' for Inactive)
REMARK    1  A    between atoms: C_1  and  C_2
REMARK    2  A    between atoms: C_7  and  C_8
REMARK    3  A    between atoms: C_11  and  C_12
REMARK    4  A    between atoms: C_12  and  C_13
REMARK    5  A    between atoms: C_12  and  N_14
REMARK    6  A    between atoms: C_19  and  N_20
REMARK    7  A    between atoms: C_25  and  C_26
REMARK    8  A    between atoms: C_26  and  C_27
REMARK    9  A    between atoms: C_26  and  C_28
REMARK                            x       y       z     vdW  Elec       q    Type
REMARK                         _______ _______ _______ _____ _____    ______ ____
ROOT
ATOM      1  N   UNL     1      -1.090  10.780  19.104  0.00  0.00    +0.000 N 
ATOM      2  C   UNL     1      -2.215  11.149  18.399  0.00  0.00    +0.000 A 
ATOM      3  C   UNL     1      -2.329  11.155  17.009  0.00  0.00    +0.000 A 
ATOM      4  N   UNL     1      -3.499  11.351  16.355  0.00  0.00    +0.000 NA
ATOM      5  C   UNL     1      -4.579  11.496  17.159  0.00  0.00    +0.000 A 
ATOM      6  C   UNL     1      -4.486  11.541  18.547  0.00  0.00    +0.000 A 
ATOM      7  N   UNL     1      -3.290  11.414  19.172  0.00  0.00    +0.000 NA
ATOM      8  H   UNL     1      -1.244  10.959  20.088  0.00  0.00    +0.000 HD
ENDROOT
BRANCH   6   9
ATOM      9  N   UNL     1      -5.631  11.724  19.341  0.00  0.00    +0.000 N 
ATOM     10  C   UNL     1      -6.577  10.729  19.467  0.00  0.00    +0.000 C 
ATOM     11  O   UNL     1      -6.729   9.749  18.751  0.00  0.00    +0.000 OA
ATOM     12  O   UNL     1      -7.339  10.951  20.581  0.00  0.00    +0.000 OA
ATOM     13  C   UNL     1      -6.990  12.233  21.115  0.00  0.00    +0.000 C 
ATOM     14  C   UNL     1      -5.640  12.572  20.499  0.00  0.00    +0.000 C 
BRANCH  14  15
ATOM     15  C   UNL     1      -5.438  14.077  20.184  0.00  0.00    +0.000 C 
ATOM     16  C   UNL     1      -6.602  14.701  19.397  0.00  0.00    +0.000 C 
ATOM     17  C   UNL     1      -5.179  14.892  21.453  0.00  0.00    +0.000 C 
ENDBRANCH  14  15
ENDBRANCH   6   9
BRANCH   1  18
ATOM     18  C   UNL     1       0.261  10.963  18.602  0.00  0.00    +0.000 C 
ATOM     19  C   UNL     1       0.911  12.127  19.363  0.00  0.00    +0.000 C 
BRANCH  18  23
ATOM     20  C   UNL     1       2.443   7.220  19.184  0.00  0.00    +0.000 A 
ATOM     21  C   UNL     1       1.696   7.831  20.207  0.00  0.00    +0.000 A 
ATOM     22  C   UNL     1       1.091   9.079  20.037  0.00  0.00    +0.000 A 
ATOM     23  C   UNL     1       1.142   9.739  18.807  0.00  0.00    +0.000 A 
ATOM     24  C   UNL     1       1.893   9.159  17.774  0.00  0.00    +0.000 A 
ATOM     25  C   UNL     1       2.550   7.936  17.976  0.00  0.00    +0.000 A 
BRANCH  20  32
ATOM     26  C   UNL     1       0.971   4.793  20.466  0.00  0.00    +0.000 C 
ATOM     27  C   UNL     1       2.374   4.743  19.915  0.00  0.00    +0.000 A 
ATOM     28  C   UNL     1       3.034   3.498  19.998  0.00  0.00    +0.000 A 
ATOM     29  C   UNL     1       4.342   3.337  19.549  0.00  0.00    +0.000 A 
ATOM     30  C   UNL     1       5.008   4.412  18.985  0.00  0.00    +0.000 A 
ATOM     31  C   UNL     1       4.358   5.646  18.875  0.00  0.00    +0.000 A 
ATOM     32  C   UNL     1       3.034   5.857  19.335  0.00  0.00    +0.000 A 
ENDBRANCH  20  32
ENDBRANCH  18  23
ENDBRANCH   1  18
TORSDOF 5
ENDMDL
MODEL 9
REMARK VINA RESULT:      -8.2      3.782     10.157
REMARK  Name = 
REMARK  9 active torsions:
REMARK  status: ('A' for Active; 'I' for Inactive)
REMARK    1  A    between atoms: C_1  and  C_2
REMARK    2  A    between atoms: C_7  and  C_8
REMARK    3  A    between atoms: C_11  and  C_12
REMARK    4  A    between atoms: C_12  and  C_13
REMARK    5  A    between atoms: C_12  and  N_14
REMARK    6  A    between atoms: C_19  and  N_20
REMARK    7  A    between atoms: C_25  and  C_26
REMARK    8  A    between atoms: C_26  and  C_27
REMARK    9  A    between atoms: C_26  and  C_28
REMARK                            x       y       z     vdW  Elec       q    Type
REMARK                         _______ _______ _______ _____ _____    ______ ____
ROOT
ATOM      1  N   UNL     1       1.567   9.640  18.273  0.00  0.00    +0.000 N 
ATOM      2  C   UNL     1       1.900   8.507  18.983  0.00  0.00    +0.000 A 
ATOM      3  C   UNL     1       1.456   8.202  20.269  0.00  0.00    +0.000 A 
ATOM      4  N   UNL     1       1.658   7.002  20.866  0.00  0.00    +0.000 NA
ATOM      5  C   UNL     1       2.292   6.087  20.096  0.00  0.00    +0.000 A 
ATOM      6  C   UNL     1       2.786   6.380  18.828  0.00  0.00    +0.000 A 
ATOM      7  N   UNL     1       2.633   7.612  18.285  0.00  0.00    +0.000 NA
ATOM      8  H   UNL     1       2.099   9.658  17.412  0.00  0.00    +0.000 HD
ENDROOT
BRANCH   6   9
ATOM      9  N   UNL     1       3.465   5.406  18.076  0.00  0.00    +0.000 N 
ATOM     10  C   UNL     1       2.804   4.307  17.571  0.00  0.00    +0.000 C 
ATOM     11  O   UNL     1       1.710   3.874  17.908  0.00  0.00    +0.000 OA
ATOM     12  O   UNL     1       3.531   3.755  16.553  0.00  0.00    +0.000 OA
ATOM     13  C   UNL     1       4.800   4.415  16.499  0.00  0.00    +0.000 C 
ATOM     14  C   UNL     1       4.612   5.713  17.269  0.00  0.00    +0.000 C 
BRANCH  14  15
ATOM     15  C   UNL     1       5.854   6.165  18.080  0.00  0.00    +0.000 C 
ATOM     16  C   UNL     1       6.261   5.174  19.182  0.00  0.00    +0.000 C 
ATOM     17  C   UNL     1       7.053   6.446  17.171  0.00  0.00    +0.000 C 
ENDBRANCH  14  15
ENDBRANCH   6   9
BRANCH   1  18
ATOM     18  C   UNL     1       1.280  10.918  18.901  0.00  0.00    +0.000 C 
ATOM     19  C   UNL     1       2.111  12.002  18.201  0.00  0.00    +0.000 C 
BRANCH  18  23
ATOM     20  C   UNL     1      -3.008  11.766  18.824  0.00  0.00    +0.000 A 
ATOM     21  C   UNL     1      -2.437  10.676  18.142  0.00  0.00    +0.000 A 
ATOM     22  C   UNL     1      -1.055  10.479  18.089  0.00  0.00    +0.000 A 
ATOM     23  C   UNL     1      -0.183  11.321  18.783  0.00  0.00    +0.000 A 
ATOM     24  C   UNL     1      -0.725  12.425  19.459  0.00  0.00    +0.000 A 
ATOM     25  C   UNL     1      -2.110  12.651  19.452  0.00  0.00    +0.000 A 
BRANCH  20  32
ATOM     26  C   UNL     1      -4.483  12.571  21.447  0.00  0.00    +0.000 C 
ATOM     27  C   UNL     1      -5.170  12.313  20.129  0.00  0.00    +0.000 A 
ATOM     28  C   UNL     1      -6.574  12.459  20.117  0.00  0.00    +0.000 A 
ATOM     29  C   UNL     1      -7.320  12.220  18.966  0.00  0.00    +0.000 A 
ATOM     30  C   UNL     1      -6.674  11.853  17.798  0.00  0.00    +0.000 A 
ATOM     31  C   UNL     1      -5.281  11.728  17.789  0.00  0.00    +0.000 A 
ATOM     32  C   UNL     1      -4.486  11.945  18.941  0.00  0.00    +0.000 A 
ENDBRANCH  20  32
ENDBRANCH  18  23
ENDBRANCH   1  18
TORSDOF 5
ENDMDL
