MODEL 1
REMARK VINA RESULT:      -6.1      0.000      0.000
REMARK  Name = 
REMARK  7 active torsions:
REMARK  status: ('A' for Active; 'I' for Inactive)
REMARK    1  A    between atoms: C_1  and  C_2
REMARK    2  A    between atoms: C_2  and  N_3
REMARK    3  A    between atoms: N_3  and  C_4
REMARK    4  A    between atoms: N_3  and  C_7
REMARK    5  A    between atoms: C_4  and  C_5
REMARK    6  A    between atoms: C_5  and  O_6
REMARK    7  A    between atoms: C_14  and  C_15
REMARK                            x       y       z     vdW  Elec       q    Type
REMARK                         _______ _______ _______ _____ _____    ______ ____
ROOT
ATOM      1  C   UNL     1       5.386   4.454  18.008  0.00  0.00    +0.000 A 
ATOM      2  N   UNL     1       5.796   4.763  19.267  0.00  0.00    +0.000 NA
ATOM      3  C   UNL     1       6.869   5.562  19.455  0.00  0.00    +0.000 A 
ATOM      4  N   UNL     1       7.651   6.100  18.513  0.00  0.00    +0.000 NA
ATOM      5  C   UNL     1       7.238   5.763  17.286  0.00  0.00    +0.000 A 
ATOM      6  O   UNL     1       7.858   6.167  16.145  0.00  0.00    +0.000 OA
ATOM      7  N   UNL     1       7.198   5.651  15.043  0.00  0.00    +0.000 NA
ATOM      8  C   UNL     1       6.175   4.942  15.534  0.00  0.00    +0.000 A 
ATOM      9  C   UNL     1       5.253   4.240  14.608  0.00  0.00    +0.000 C 
ATOM     10  C   UNL     1       6.150   4.967  16.951  0.00  0.00    +0.000 A 
ENDROOT
BRANCH   1  11
ATOM     11  N   UNL     1       4.218   3.656  17.808  0.00  0.00    +0.000 N 
BRANCH  11  13
ATOM     12  C   UNL     1       2.299   4.876  18.781  0.00  0.00    +0.000 C 
ATOM     13  C   UNL     1       3.063   4.533  17.512  0.00  0.00    +0.000 C 
ENDBRANCH  11  13
BRANCH  11  14
ATOM     14  C   UNL     1       4.085   2.762  18.992  0.00  0.00    +0.000 C 
BRANCH  14  15
ATOM     15  C   UNL     1       3.532   1.366  18.670  0.00  0.00    +0.000 C 
BRANCH  15  16
ATOM     16  O   UNL     1       2.110   1.331  18.674  0.00  0.00    +0.000 OA
ATOM     17  H   UNL     1       1.842   0.944  17.817  0.00  0.00    +0.000 HD
ENDBRANCH  15  16
ENDBRANCH  14  15
ENDBRANCH  11  14
ENDBRANCH   1  11
TORSDOF 5
ENDMDL
MODEL 2
REMARK VINA RESULT:      -6.1      1.014      1.023
REMARK  Name = 
REMARK  7 active torsions:
REMARK  status: ('A' for Active; 'I' for Inactive)
REMARK    1  A    between atoms: C_1  and  C_2
REMARK    2  A    between atoms: C_2  and  N_3
REMARK    3  A    between atoms: N_3  and  C_4
REMARK    4  A    between atoms: N_3  and  C_7
REMARK    5  A    between atoms: C_4  and  C_5
REMARK    6  A    between atoms: C_5  and  O_6
REMARK    7  A    between atoms: C_14  and  C_15
REMARK                            x       y       z     vdW  Elec       q    Type
REMARK                         _______ _______ _______ _____ _____    ______ ____
ROOT
ATOM      1  C   UNL     1       5.068   4.589  17.824  0.00  0.00    +0.000 A 
ATOM      2  N   UNL     1       5.425   4.873  19.105  0.00  0.00    +0.000 NA
ATOM      3  C   UNL     1       6.549   5.578  19.356  0.00  0.00    +0.000 A 
ATOM      4  N   UNL     1       7.431   6.038  18.462  0.00  0.00    +0.000 NA
ATOM      5  C   UNL     1       7.067   5.727  17.213  0.00  0.00    +0.000 A 
ATOM      6  O   UNL     1       7.789   6.065  16.112  0.00  0.00    +0.000 OA
ATOM      7  N   UNL     1       7.155   5.599  14.972  0.00  0.00    +0.000 NA
ATOM      8  C   UNL     1       6.046   4.986  15.402  0.00  0.00    +0.000 A 
ATOM      9  C   UNL     1       5.126   4.357  14.423  0.00  0.00    +0.000 C 
ATOM     10  C   UNL     1       5.937   5.025  16.814  0.00  0.00    +0.000 A 
ENDROOT
BRANCH   1  11
ATOM     11  N   UNL     1       3.849   3.894  17.555  0.00  0.00    +0.000 N 
BRANCH  11  13
ATOM     12  C   UNL     1       1.421   4.351  17.662  0.00  0.00    +0.000 C 
ATOM     13  C   UNL     1       2.759   4.469  18.374  0.00  0.00    +0.000 C 
ENDBRANCH  11  13
BRANCH  11  14
ATOM     14  C   UNL     1       4.119   2.441  17.737  0.00  0.00    +0.000 C 
BRANCH  14  15
ATOM     15  C   UNL     1       3.833   1.918  19.152  0.00  0.00    +0.000 C 
BRANCH  15  16
ATOM     16  O   UNL     1       5.003   1.874  19.961  0.00  0.00    +0.000 OA
ATOM     17  H   UNL     1       5.235   2.803  20.160  0.00  0.00    +0.000 HD
ENDBRANCH  15  16
ENDBRANCH  14  15
ENDBRANCH  11  14
ENDBRANCH   1  11
TORSDOF 5
ENDMDL
MODEL 3
REMARK VINA RESULT:      -6.0      2.401      5.199
REMARK  Name = 
REMARK  7 active torsions:
REMARK  status: ('A' for Active; 'I' for Inactive)
REMARK    1  A    between atoms: C_1  and  C_2
REMARK    2  A    between atoms: C_2  and  N_3
REMARK    3  A    between atoms: N_3  and  C_4
REMARK    4  A    between atoms: N_3  and  C_7
REMARK    5  A    between atoms: C_4  and  C_5
REMARK    6  A    between atoms: C_5  and  O_6
REMARK    7  A    between atoms: C_14  and  C_15
REMARK                            x       y       z     vdW  Elec       q    Type
REMARK                         _______ _______ _______ _____ _____    ______ ____
ROOT
ATOM      1  C   UNL     1       4.555   4.352  19.061  0.00  0.00    +0.000 A 
ATOM      2  N   UNL     1       5.020   3.114  19.380  0.00  0.00    +0.000 NA
ATOM      3  C   UNL     1       4.323   2.324  20.227  0.00  0.00    +0.000 A 
ATOM      4  N   UNL     1       3.183   2.624  20.857  0.00  0.00    +0.000 NA
ATOM      5  C   UNL     1       2.759   3.853  20.542  0.00  0.00    +0.000 A 
ATOM      6  O   UNL     1       1.629   4.413  21.049  0.00  0.00    +0.000 OA
ATOM      7  N   UNL     1       1.466   5.689  20.536  0.00  0.00    +0.000 NA
ATOM      8  C   UNL     1       2.503   5.883  19.715  0.00  0.00    +0.000 A 
ATOM      9  C   UNL     1       2.641   7.172  18.993  0.00  0.00    +0.000 C 
ATOM     10  C   UNL     1       3.365   4.758  19.680  0.00  0.00    +0.000 A 
ENDROOT
BRANCH   1  11
ATOM     11  N   UNL     1       5.261   5.164  18.122  0.00  0.00    +0.000 N 
BRANCH  11  13
ATOM     12  C   UNL     1       5.626   4.310  15.830  0.00  0.00    +0.000 C 
ATOM     13  C   UNL     1       4.661   5.003  16.778  0.00  0.00    +0.000 C 
ENDBRANCH  11  13
BRANCH  11  14
ATOM     14  C   UNL     1       6.707   4.830  18.247  0.00  0.00    +0.000 C 
BRANCH  14  15
ATOM     15  C   UNL     1       7.528   5.864  19.029  0.00  0.00    +0.000 C 
BRANCH  15  16
ATOM     16  O   UNL     1       7.833   5.430  20.349  0.00  0.00    +0.000 OA
ATOM     17  H   UNL     1       7.795   6.225  20.917  0.00  0.00    +0.000 HD
ENDBRANCH  15  16
ENDBRANCH  14  15
ENDBRANCH  11  14
ENDBRANCH   1  11
TORSDOF 5
ENDMDL
MODEL 4
REMARK VINA RESULT:      -5.9      2.318      5.240
REMARK  Name = 
REMARK  7 active torsions:
REMARK  status: ('A' for Active; 'I' for Inactive)
REMARK    1  A    between atoms: C_1  and  C_2
REMARK    2  A    between atoms: C_2  and  N_3
REMARK    3  A    between atoms: N_3  and  C_4
REMARK    4  A    between atoms: N_3  and  C_7
REMARK    5  A    between atoms: C_4  and  C_5
REMARK    6  A    between atoms: C_5  and  O_6
REMARK    7  A    between atoms: C_14  and  C_15
REMARK                            x       y       z     vdW  Elec       q    Type
REMARK                         _______ _______ _______ _____ _____    ______ ____
ROOT
ATOM      1  C   UNL     1       4.490   4.531  19.268  0.00  0.00    +0.000 A 
ATOM      2  N   UNL     1       5.032   3.296  19.447  0.00  0.00    +0.000 NA
ATOM      3  C   UNL     1       4.352   2.348  20.128  0.00  0.00    +0.000 A 
ATOM      4  N   UNL     1       3.156   2.475  20.712  0.00  0.00    +0.000 NA
ATOM      5  C   UNL     1       2.655   3.703  20.538  0.00  0.00    +0.000 A 
ATOM      6  O   UNL     1       1.456   4.105  21.036  0.00  0.00    +0.000 OA
ATOM      7  N   UNL     1       1.222   5.426  20.692  0.00  0.00    +0.000 NA
ATOM      8  C   UNL     1       2.288   5.807  19.978  0.00  0.00    +0.000 A 
ATOM      9  C   UNL     1       2.366   7.190  19.450  0.00  0.00    +0.000 C 
ATOM     10  C   UNL     1       3.237   4.761  19.852  0.00  0.00    +0.000 A 
ENDROOT
BRANCH   1  11
ATOM     11  N   UNL     1       5.183   5.515  18.499  0.00  0.00    +0.000 N 
BRANCH  11  13
ATOM     12  C   UNL     1       4.630   6.863  16.500  0.00  0.00    +0.000 C 
ATOM     13  C   UNL     1       4.717   5.467  17.095  0.00  0.00    +0.000 C 
ENDBRANCH  11  13
BRANCH  11  14
ATOM     14  C   UNL     1       6.641   5.304  18.720  0.00  0.00    +0.000 C 
BRANCH  14  15
ATOM     15  C   UNL     1       7.411   4.856  17.470  0.00  0.00    +0.000 C 
BRANCH  15  16
ATOM     16  O   UNL     1       8.471   3.958  17.779  0.00  0.00    +0.000 OA
ATOM     17  H   UNL     1       8.080   3.062  17.785  0.00  0.00    +0.000 HD
ENDBRANCH  15  16
ENDBRANCH  14  15
ENDBRANCH  11  14
ENDBRANCH   1  11
TORSDOF 5
ENDMDL
MODEL 5
REMARK VINA RESULT:      -5.9      2.352      4.816
REMARK  Name = 
REMARK  7 active torsions:
REMARK  status: ('A' for Active; 'I' for Inactive)
REMARK    1  A    between atoms: C_1  and  C_2
REMARK    2  A    between atoms: C_2  and  N_3
REMARK    3  A    between atoms: N_3  and  C_4
REMARK    4  A    between atoms: N_3  and  C_7
REMARK    5  A    between atoms: C_4  and  C_5
REMARK    6  A    between atoms: C_5  and  O_6
REMARK    7  A    between atoms: C_14  and  C_15
REMARK                            x       y       z     vdW  Elec       q    Type
REMARK                         _______ _______ _______ _____ _____    ______ ____
ROOT
ATOM      1  C   UNL     1       4.948   4.344  18.480  0.00  0.00    +0.000 A 
ATOM      2  N   UNL     1       5.122   3.138  19.084  0.00  0.00    +0.000 NA
ATOM      3  C   UNL     1       4.239   2.709  20.012  0.00  0.00    +0.000 A 
ATOM      4  N   UNL     1       3.165   3.362  20.468  0.00  0.00    +0.000 NA
ATOM      5  C   UNL     1       3.029   4.552  19.873  0.00  0.00    +0.000 A 
ATOM      6  O   UNL     1       2.026   5.425  20.156  0.00  0.00    +0.000 OA
ATOM      7  N   UNL     1       2.162   6.565  19.382  0.00  0.00    +0.000 NA
ATOM      8  C   UNL     1       3.249   6.363  18.629  0.00  0.00    +0.000 A 
ATOM      9  C   UNL     1       3.690   7.408  17.674  0.00  0.00    +0.000 C 
ATOM     10  C   UNL     1       3.849   5.107  18.900  0.00  0.00    +0.000 A 
ENDROOT
BRANCH   1  11
ATOM     11  N   UNL     1       5.849   4.774  17.459  0.00  0.00    +0.000 N 
BRANCH  11  13
ATOM     12  C   UNL     1       6.548   4.427  15.112  0.00  0.00    +0.000 C 
ATOM     13  C   UNL     1       5.610   3.992  16.225  0.00  0.00    +0.000 C 
ENDBRANCH  11  13
BRANCH  11  14
ATOM     14  C   UNL     1       7.225   4.710  18.026  0.00  0.00    +0.000 C 
BRANCH  14  15
ATOM     15  C   UNL     1       7.579   5.880  18.955  0.00  0.00    +0.000 C 
BRANCH  15  16
ATOM     16  O   UNL     1       7.836   5.455  20.289  0.00  0.00    +0.000 OA
ATOM     17  H   UNL     1       8.556   6.026  20.625  0.00  0.00    +0.000 HD
ENDBRANCH  15  16
ENDBRANCH  14  15
ENDBRANCH  11  14
ENDBRANCH   1  11
TORSDOF 5
ENDMDL
MODEL 6
REMARK VINA RESULT:      -5.8      1.276      1.454
REMARK  Name = 
REMARK  7 active torsions:
REMARK  status: ('A' for Active; 'I' for Inactive)
REMARK    1  A    between atoms: C_1  and  C_2
REMARK    2  A    between atoms: C_2  and  N_3
REMARK    3  A    between atoms: N_3  and  C_4
REMARK    4  A    between atoms: N_3  and  C_7
REMARK    5  A    between atoms: C_4  and  C_5
REMARK    6  A    between atoms: C_5  and  O_6
REMARK    7  A    between atoms: C_14  and  C_15
REMARK                            x       y       z     vdW  Elec       q    Type
REMARK                         _______ _______ _______ _____ _____    ______ ____
ROOT
ATOM      1  C   UNL     1       4.708   4.978  17.905  0.00  0.00    +0.000 A 
ATOM      2  N   UNL     1       4.987   5.132  19.228  0.00  0.00    +0.000 NA
ATOM      3  C   UNL     1       6.269   5.147  19.654  0.00  0.00    +0.000 A 
ATOM      4  N   UNL     1       7.369   4.990  18.910  0.00  0.00    +0.000 NA
ATOM      5  C   UNL     1       7.066   4.820  17.618  0.00  0.00    +0.000 A 
ATOM      6  O   UNL     1       7.995   4.629  16.644  0.00  0.00    +0.000 OA
ATOM      7  N   UNL     1       7.368   4.481  15.419  0.00  0.00    +0.000 NA
ATOM      8  C   UNL     1       6.058   4.591  15.667  0.00  0.00    +0.000 A 
ATOM      9  C   UNL     1       5.084   4.473  14.555  0.00  0.00    +0.000 C 
ATOM     10  C   UNL     1       5.800   4.799  17.046  0.00  0.00    +0.000 A 
ENDROOT
BRANCH   1  11
ATOM     11  N   UNL     1       3.355   5.021  17.447  0.00  0.00    +0.000 N 
BRANCH  11  13
ATOM     12  C   UNL     1       2.724   7.375  17.866  0.00  0.00    +0.000 C 
ATOM     13  C   UNL     1       2.568   5.930  18.310  0.00  0.00    +0.000 C 
ENDBRANCH  11  13
BRANCH  11  14
ATOM     14  C   UNL     1       2.875   3.614  17.354  0.00  0.00    +0.000 C 
BRANCH  14  15
ATOM     15  C   UNL     1       1.848   3.225  18.427  0.00  0.00    +0.000 C 
BRANCH  15  16
ATOM     16  O   UNL     1       1.567   1.831  18.429  0.00  0.00    +0.000 OA
ATOM     17  H   UNL     1       2.420   1.378  18.585  0.00  0.00    +0.000 HD
ENDBRANCH  15  16
ENDBRANCH  14  15
ENDBRANCH  11  14
ENDBRANCH   1  11
TORSDOF 5
ENDMDL
MODEL 7
REMARK VINA RESULT:      -5.8      2.127      5.521
REMARK  Name = 
REMARK  7 active torsions:
REMARK  status: ('A' for Active; 'I' for Inactive)
REMARK    1  A    between atoms: C_1  and  C_2
REMARK    2  A    between atoms: C_2  and  N_3
REMARK    3  A    between atoms: N_3  and  C_4
REMARK    4  A    between atoms: N_3  and  C_7
REMARK    5  A    between atoms: C_4  and  C_5
REMARK    6  A    between atoms: C_5  and  O_6
REMARK    7  A    between atoms: C_14  and  C_15
REMARK                            x       y       z     vdW  Elec       q    Type
REMARK                         _______ _______ _______ _____ _____    ______ ____
ROOT
ATOM      1  C   UNL     1       3.918   4.064  18.421  0.00  0.00    +0.000 A 
ATOM      2  N   UNL     1       4.228   2.851  17.890  0.00  0.00    +0.000 NA
ATOM      3  C   UNL     1       3.377   1.811  18.027  0.00  0.00    +0.000 A 
ATOM      4  N   UNL     1       2.211   1.803  18.680  0.00  0.00    +0.000 NA
ATOM      5  C   UNL     1       1.940   3.001  19.211  0.00  0.00    +0.000 A 
ATOM      6  O   UNL     1       0.821   3.269  19.935  0.00  0.00    +0.000 OA
ATOM      7  N   UNL     1       0.833   4.591  20.348  0.00  0.00    +0.000 NA
ATOM      8  C   UNL     1       1.963   5.111  19.858  0.00  0.00    +0.000 A 
ATOM      9  C   UNL     1       2.297   6.532  20.124  0.00  0.00    +0.000 C 
ATOM     10  C   UNL     1       2.714   4.152  19.134  0.00  0.00    +0.000 A 
ENDROOT
BRANCH   1  11
ATOM     11  N   UNL     1       4.791   5.178  18.228  0.00  0.00    +0.000 N 
BRANCH  11  13
ATOM     12  C   UNL     1       5.129   6.225  16.013  0.00  0.00    +0.000 C 
ATOM     13  C   UNL     1       5.471   5.054  16.919  0.00  0.00    +0.000 C 
ENDBRANCH  11  13
BRANCH  11  14
ATOM     14  C   UNL     1       5.671   5.265  19.426  0.00  0.00    +0.000 C 
BRANCH  14  15
ATOM     15  C   UNL     1       7.135   5.603  19.111  0.00  0.00    +0.000 C 
BRANCH  15  16
ATOM     16  O   UNL     1       7.971   5.518  20.260  0.00  0.00    +0.000 OA
ATOM     17  H   UNL     1       8.242   6.433  20.471  0.00  0.00    +0.000 HD
ENDBRANCH  15  16
ENDBRANCH  14  15
ENDBRANCH  11  14
ENDBRANCH   1  11
TORSDOF 5
ENDMDL
MODEL 8
REMARK VINA RESULT:      -5.8      2.209      5.417
REMARK  Name = 
REMARK  7 active torsions:
REMARK  status: ('A' for Active; 'I' for Inactive)
REMARK    1  A    between atoms: C_1  and  C_2
REMARK    2  A    between atoms: C_2  and  N_3
REMARK    3  A    between atoms: N_3  and  C_4
REMARK    4  A    between atoms: N_3  and  C_7
REMARK    5  A    between atoms: C_4  and  C_5
REMARK    6  A    between atoms: C_5  and  O_6
REMARK    7  A    between atoms: C_14  and  C_15
REMARK                            x       y       z     vdW  Elec       q    Type
REMARK                         _______ _______ _______ _____ _____    ______ ____
ROOT
ATOM      1  C   UNL     1       3.923   4.281  18.717  0.00  0.00    +0.000 A 
ATOM      2  N   UNL     1       4.429   3.215  18.041  0.00  0.00    +0.000 NA
ATOM      3  C   UNL     1       3.719   2.070  17.948  0.00  0.00    +0.000 A 
ATOM      4  N   UNL     1       2.524   1.815  18.491  0.00  0.00    +0.000 NA
ATOM      5  C   UNL     1       2.059   2.871  19.167  0.00  0.00    +0.000 A 
ATOM      6  O   UNL     1       0.869   2.881  19.824  0.00  0.00    +0.000 OA
ATOM      7  N   UNL     1       0.674   4.112  20.427  0.00  0.00    +0.000 NA
ATOM      8  C   UNL     1       1.754   4.839  20.120  0.00  0.00    +0.000 A 
ATOM      9  C   UNL     1       1.873   6.230  20.620  0.00  0.00    +0.000 C 
ATOM     10  C   UNL     1       2.674   4.106  19.328  0.00  0.00    +0.000 A 
ENDROOT
BRANCH   1  11
ATOM     11  N   UNL     1       4.648   5.511  18.766  0.00  0.00    +0.000 N 
BRANCH  11  13
ATOM     12  C   UNL     1       3.604   7.387  17.538  0.00  0.00    +0.000 C 
ATOM     13  C   UNL     1       4.548   6.198  17.459  0.00  0.00    +0.000 C 
ENDBRANCH  11  13
BRANCH  11  14
ATOM     14  C   UNL     1       6.022   5.196  19.246  0.00  0.00    +0.000 C 
BRANCH  14  15
ATOM     15  C   UNL     1       7.108   5.306  18.167  0.00  0.00    +0.000 C 
BRANCH  15  16
ATOM     16  O   UNL     1       7.597   4.035  17.757  0.00  0.00    +0.000 OA
ATOM     17  H   UNL     1       6.812   3.464  17.635  0.00  0.00    +0.000 HD
ENDBRANCH  15  16
ENDBRANCH  14  15
ENDBRANCH  11  14
ENDBRANCH   1  11
TORSDOF 5
ENDMDL
MODEL 9
REMARK VINA RESULT:      -5.7      2.259      2.648
REMARK  Name = 
REMARK  7 active torsions:
REMARK  status: ('A' for Active; 'I' for Inactive)
REMARK    1  A    between atoms: C_1  and  C_2
REMARK    2  A    between atoms: C_2  and  N_3
REMARK    3  A    between atoms: N_3  and  C_4
REMARK    4  A    between atoms: N_3  and  C_7
REMARK    5  A    between atoms: C_4  and  C_5
REMARK    6  A    between atoms: C_5  and  O_6
REMARK    7  A    between atoms: C_14  and  C_15
REMARK                            x       y       z     vdW  Elec       q    Type
REMARK                         _______ _______ _______ _____ _____    ______ ____
ROOT
ATOM      1  C   UNL     1       3.494   4.944  18.154  0.00  0.00    +0.000 A 
ATOM      2  N   UNL     1       2.740   5.843  18.842  0.00  0.00    +0.000 NA
ATOM      3  C   UNL     1       2.776   7.153  18.512  0.00  0.00    +0.000 A 
ATOM      4  N   UNL     1       3.522   7.727  17.563  0.00  0.00    +0.000 NA
ATOM      5  C   UNL     1       4.269   6.824  16.916  0.00  0.00    +0.000 A 
ATOM      6  O   UNL     1       5.127   7.138  15.909  0.00  0.00    +0.000 OA
ATOM      7  N   UNL     1       5.754   5.991  15.451  0.00  0.00    +0.000 NA
ATOM      8  C   UNL     1       5.258   4.990  16.187  0.00  0.00    +0.000 A 
ATOM      9  C   UNL     1       5.729   3.603  15.957  0.00  0.00    +0.000 C 
ATOM     10  C   UNL     1       4.318   5.454  17.141  0.00  0.00    +0.000 A 
ENDROOT
BRANCH   1  11
ATOM     11  N   UNL     1       3.413   3.552  18.464  0.00  0.00    +0.000 N 
BRANCH  11  13
ATOM     12  C   UNL     1       1.121   2.626  18.536  0.00  0.00    +0.000 C 
ATOM     13  C   UNL     1       2.331   2.929  17.668  0.00  0.00    +0.000 C 
ENDBRANCH  11  13
BRANCH  11  14
ATOM     14  C   UNL     1       3.299   3.433  19.944  0.00  0.00    +0.000 C 
BRANCH  14  15
ATOM     15  C   UNL     1       4.085   2.260  20.546  0.00  0.00    +0.000 C 
BRANCH  15  16
ATOM     16  O   UNL     1       5.232   1.923  19.776  0.00  0.00    +0.000 OA
ATOM     17  H   UNL     1       5.837   2.690  19.832  0.00  0.00    +0.000 HD
ENDBRANCH  15  16
ENDBRANCH  14  15
ENDBRANCH  11  14
ENDBRANCH   1  11
TORSDOF 5
ENDMDL
