MODEL 1
REMARK VINA RESULT:      -7.8      0.000      0.000
REMARK  Name = 
REMARK  3 active torsions:
REMARK  status: ('A' for Active; 'I' for Inactive)
REMARK    1  A    between atoms: C_4  and  C_5
REMARK    2  A    between atoms: C_7  and  N_8
REMARK    3  A    between atoms: C_18  and  C_19
REMARK                            x       y       z     vdW  Elec       q    Type
REMARK                         _______ _______ _______ _____ _____    ______ ____
ROOT
ATOM      1  C   UNL     1       2.451   5.958  17.662  0.00  0.00    +0.000 C 
ATOM      2  C   UNL     1       2.256   4.569  18.307  0.00  0.00    +0.000 C 
ATOM      3  C   UNL     1       3.580   3.842  18.663  0.00  0.00    +0.000 C 
ATOM      4  C   UNL     1       4.507   4.810  19.516  0.00  0.00    +0.000 C 
ATOM      5  N   UNL     1       5.454   5.708  18.857  0.00  0.00    +0.000 NA
ATOM      6  C   UNL     1       4.963   6.570  17.797  0.00  0.00    +0.000 C 
ATOM      7  C   UNL     1       3.834   6.032  16.908  0.00  0.00    +0.000 C 
ATOM      8  C   UNL     1       4.206   4.656  16.273  0.00  0.00    +0.000 C 
ATOM      9  C   UNL     1       4.249   3.510  17.309  0.00  0.00    +0.000 C 
ATOM     10  H   UNL     1       6.263   5.187  18.544  0.00  0.00    +0.000 HD
ENDROOT
BRANCH   1  14
ATOM     11  C   UNL     1       1.423   9.307  20.289  0.00  0.00    +0.000 A 
ATOM     12  C   UNL     1       1.590   9.533  18.930  0.00  0.00    +0.000 A 
ATOM     13  C   UNL     1       1.928   8.474  18.083  0.00  0.00    +0.000 A 
ATOM     14  C   UNL     1       2.109   7.163  18.563  0.00  0.00    +0.000 A 
ATOM     15  C   UNL     1       1.973   6.972  19.949  0.00  0.00    +0.000 A 
ATOM     16  C   UNL     1       1.617   8.027  20.799  0.00  0.00    +0.000 A 
ENDBRANCH   1  14
BRANCH   3  17
ATOM     17  N   UNL     1       3.349   2.627  19.515  0.00  0.00    +0.000 NA
ATOM     18  C   UNL     1       3.523   2.722  20.975  0.00  0.00    +0.000 C 
ATOM     19  C   UNL     1       2.309   3.305  21.705  0.00  0.00    +0.000 C 
ATOM     20  O   UNL     1       1.138   2.516  21.468  0.00  0.00    +0.000 OA
ATOM     21  C   UNL     1       0.864   2.357  20.072  0.00  0.00    +0.000 C 
ATOM     22  C   UNL     1       2.094   1.875  19.267  0.00  0.00    +0.000 C 
ENDBRANCH   3  17
BRANCH   8  23
ATOM     23  C   UNL     1       5.435   4.629  15.351  0.00  0.00    +0.000 A 
ATOM     24  C   UNL     1       5.401   4.057  14.066  0.00  0.00    +0.000 A 
ATOM     25  C   UNL     1       6.506   4.104  13.212  0.00  0.00    +0.000 A 
ATOM     26  C   UNL     1       7.675   4.734  13.623  0.00  0.00    +0.000 A 
ATOM     27  C   UNL     1       7.732   5.301  14.896  0.00  0.00    +0.000 A 
ATOM     28  C   UNL     1       6.624   5.250  15.752  0.00  0.00    +0.000 A 
ENDBRANCH   8  23
TORSDOF 3
ENDMDL
MODEL 2
REMARK VINA RESULT:      -7.6      2.341      6.361
REMARK  Name = 
REMARK  3 active torsions:
REMARK  status: ('A' for Active; 'I' for Inactive)
REMARK    1  A    between atoms: C_4  and  C_5
REMARK    2  A    between atoms: C_7  and  N_8
REMARK    3  A    between atoms: C_18  and  C_19
REMARK                            x       y       z     vdW  Elec       q    Type
REMARK                         _______ _______ _______ _____ _____    ______ ____
ROOT
ATOM      1  C   UNL     1       2.589   4.954  17.404  0.00  0.00    +0.000 C 
ATOM      2  C   UNL     1       3.932   5.343  16.746  0.00  0.00    +0.000 C 
ATOM      3  C   UNL     1       4.779   6.344  17.575  0.00  0.00    +0.000 C 
ATOM      4  C   UNL     1       4.938   5.806  19.062  0.00  0.00    +0.000 C 
ATOM      5  N   UNL     1       3.956   6.153  20.089  0.00  0.00    +0.000 NA
ATOM      6  C   UNL     1       2.551   5.928  19.803  0.00  0.00    +0.000 C 
ATOM      7  C   UNL     1       2.082   6.107  18.353  0.00  0.00    +0.000 C 
ATOM      8  C   UNL     1       2.465   7.512  17.793  0.00  0.00    +0.000 C 
ATOM      9  C   UNL     1       3.985   7.671  17.564  0.00  0.00    +0.000 C 
ATOM     10  H   UNL     1       4.106   7.103  20.402  0.00  0.00    +0.000 HD
ENDROOT
BRANCH   1  14
ATOM     11  C   UNL     1       2.324   0.937  19.125  0.00  0.00    +0.000 A 
ATOM     12  C   UNL     1       3.514   1.352  18.544  0.00  0.00    +0.000 A 
ATOM     13  C   UNL     1       3.609   2.629  17.983  0.00  0.00    +0.000 A 
ATOM     14  C   UNL     1       2.523   3.526  17.983  0.00  0.00    +0.000 A 
ATOM     15  C   UNL     1       1.319   3.063  18.542  0.00  0.00    +0.000 A 
ATOM     16  C   UNL     1       1.225   1.791  19.121  0.00  0.00    +0.000 A 
ENDBRANCH   1  14
BRANCH   3  17
ATOM     17  N   UNL     1       6.172   6.491  17.034  0.00  0.00    +0.000 NA
ATOM     18  C   UNL     1       7.322   6.365  17.947  0.00  0.00    +0.000 C 
ATOM     19  C   UNL     1       7.726   4.916  18.234  0.00  0.00    +0.000 C 
ATOM     20  O   UNL     1       8.066   4.228  17.025  0.00  0.00    +0.000 OA
ATOM     21  C   UNL     1       7.015   4.280  16.055  0.00  0.00    +0.000 C 
ATOM     22  C   UNL     1       6.492   5.715  15.811  0.00  0.00    +0.000 C 
ENDBRANCH   3  17
BRANCH   8  23
ATOM     23  C   UNL     1       1.873   8.731  18.517  0.00  0.00    +0.000 A 
ATOM     24  C   UNL     1       1.309   8.642  19.803  0.00  0.00    +0.000 A 
ATOM     25  C   UNL     1       0.839   9.772  20.478  0.00  0.00    +0.000 A 
ATOM     26  C   UNL     1       0.931  11.025  19.882  0.00  0.00    +0.000 A 
ATOM     27  C   UNL     1       1.480  11.133  18.606  0.00  0.00    +0.000 A 
ATOM     28  C   UNL     1       1.948   9.999  17.928  0.00  0.00    +0.000 A 
ENDBRANCH   8  23
TORSDOF 3
ENDMDL
MODEL 3
REMARK VINA RESULT:      -7.5      0.117      1.310
REMARK  Name = 
REMARK  3 active torsions:
REMARK  status: ('A' for Active; 'I' for Inactive)
REMARK    1  A    between atoms: C_4  and  C_5
REMARK    2  A    between atoms: C_7  and  N_8
REMARK    3  A    between atoms: C_18  and  C_19
REMARK                            x       y       z     vdW  Elec       q    Type
REMARK                         _______ _______ _______ _____ _____    ______ ____
ROOT
ATOM      1  C   UNL     1       2.380   6.023  17.716  0.00  0.00    +0.000 C 
ATOM      2  C   UNL     1       2.191   4.619  18.332  0.00  0.00    +0.000 C 
ATOM      3  C   UNL     1       3.518   3.895  18.680  0.00  0.00    +0.000 C 
ATOM      4  C   UNL     1       4.434   4.851  19.559  0.00  0.00    +0.000 C 
ATOM      5  N   UNL     1       5.378   5.769  18.922  0.00  0.00    +0.000 NA
ATOM      6  C   UNL     1       4.887   6.649  17.877  0.00  0.00    +0.000 C 
ATOM      7  C   UNL     1       3.766   6.121  16.972  0.00  0.00    +0.000 C 
ATOM      8  C   UNL     1       4.152   4.761  16.311  0.00  0.00    +0.000 C 
ATOM      9  C   UNL     1       4.197   3.594  17.324  0.00  0.00    +0.000 C 
ATOM     10  H   UNL     1       6.193   5.260  18.604  0.00  0.00    +0.000 HD
ENDROOT
BRANCH   1  14
ATOM     11  C   UNL     1       1.429   9.453  20.266  0.00  0.00    +0.000 A 
ATOM     12  C   UNL     1       1.598   8.203  20.841  0.00  0.00    +0.000 A 
ATOM     13  C   UNL     1       1.892   7.098  20.037  0.00  0.00    +0.000 A 
ATOM     14  C   UNL     1       2.025   7.206  18.639  0.00  0.00    +0.000 A 
ATOM     15  C   UNL     1       1.808   8.478  18.080  0.00  0.00    +0.000 A 
ATOM     16  C   UNL     1       1.531   9.591  18.884  0.00  0.00    +0.000 A 
ENDBRANCH   1  14
BRANCH   3  17
ATOM     17  N   UNL     1       3.290   2.661  19.506  0.00  0.00    +0.000 NA
ATOM     18  C   UNL     1       3.499   2.716  20.964  0.00  0.00    +0.000 C 
ATOM     19  C   UNL     1       2.310   3.296  21.736  0.00  0.00    +0.000 C 
ATOM     20  O   UNL     1       1.124   2.528  21.506  0.00  0.00    +0.000 OA
ATOM     21  C   UNL     1       0.816   2.407  20.113  0.00  0.00    +0.000 C 
ATOM     22  C   UNL     1       2.021   1.931  19.268  0.00  0.00    +0.000 C 
ENDBRANCH   3  17
BRANCH   8  23
ATOM     23  C   UNL     1       5.386   4.761  15.396  0.00  0.00    +0.000 A 
ATOM     24  C   UNL     1       6.630   5.272  15.809  0.00  0.00    +0.000 A 
ATOM     25  C   UNL     1       7.761   5.200  14.992  0.00  0.00    +0.000 A 
ATOM     26  C   UNL     1       7.675   4.606  13.738  0.00  0.00    +0.000 A 
ATOM     27  C   UNL     1       6.450   4.101  13.307  0.00  0.00    +0.000 A 
ATOM     28  C   UNL     1       5.316   4.176  14.126  0.00  0.00    +0.000 A 
ENDBRANCH   8  23
TORSDOF 3
ENDMDL
MODEL 4
REMARK VINA RESULT:      -7.0      5.860      9.356
REMARK  Name = 
REMARK  3 active torsions:
REMARK  status: ('A' for Active; 'I' for Inactive)
REMARK    1  A    between atoms: C_4  and  C_5
REMARK    2  A    between atoms: C_7  and  N_8
REMARK    3  A    between atoms: C_18  and  C_19
REMARK                            x       y       z     vdW  Elec       q    Type
REMARK                         _______ _______ _______ _____ _____    ______ ____
ROOT
ATOM      1  C   UNL     1      -0.092  13.564  18.725  0.00  0.00    +0.000 C 
ATOM      2  C   UNL     1      -1.420  13.290  19.464  0.00  0.00    +0.000 C 
ATOM      3  C   UNL     1      -1.280  12.357  20.696  0.00  0.00    +0.000 C 
ATOM      4  C   UNL     1      -0.129  12.899  21.648  0.00  0.00    +0.000 C 
ATOM      5  N   UNL     1       1.256  12.468  21.461  0.00  0.00    +0.000 NA
ATOM      6  C   UNL     1       1.841  12.579  20.138  0.00  0.00    +0.000 C 
ATOM      7  C   UNL     1       0.916  12.369  18.931  0.00  0.00    +0.000 C 
ATOM      8  C   UNL     1       0.165  11.003  19.010  0.00  0.00    +0.000 C 
ATOM      9  C   UNL     1      -0.902  10.970  20.128  0.00  0.00    +0.000 C 
ATOM     10  H   UNL     1       1.378  11.531  21.825  0.00  0.00    +0.000 HD
ENDROOT
BRANCH   1  14
ATOM     11  C   UNL     1       1.461  17.625  19.247  0.00  0.00    +0.000 A 
ATOM     12  C   UNL     1       2.258  16.663  18.643  0.00  0.00    +0.000 A 
ATOM     13  C   UNL     1       1.777  15.360  18.479  0.00  0.00    +0.000 A 
ATOM     14  C   UNL     1       0.492  14.979  18.912  0.00  0.00    +0.000 A 
ATOM     15  C   UNL     1      -0.276  15.965  19.557  0.00  0.00    +0.000 A 
ATOM     16  C   UNL     1       0.195  17.275  19.707  0.00  0.00    +0.000 A 
ENDBRANCH   1  14
BRANCH   3  17
ATOM     17  N   UNL     1      -2.530  12.327  21.529  0.00  0.00    +0.000 NA
ATOM     18  C   UNL     1      -2.423  12.345  22.998  0.00  0.00    +0.000 C 
ATOM     19  C   UNL     1      -2.220  13.745  23.586  0.00  0.00    +0.000 C 
ATOM     20  O   UNL     1      -3.300  14.614  23.230  0.00  0.00    +0.000 OA
ATOM     21  C   UNL     1      -3.499  14.680  21.813  0.00  0.00    +0.000 C 
ATOM     22  C   UNL     1      -3.598  13.285  21.153  0.00  0.00    +0.000 C 
ENDBRANCH   3  17
BRANCH   8  23
ATOM     23  C   UNL     1       1.035   9.736  19.023  0.00  0.00    +0.000 A 
ATOM     24  C   UNL     1       1.134   8.902  20.152  0.00  0.00    +0.000 A 
ATOM     25  C   UNL     1       1.871   7.716  20.125  0.00  0.00    +0.000 A 
ATOM     26  C   UNL     1       2.524   7.330  18.960  0.00  0.00    +0.000 A 
ATOM     27  C   UNL     1       2.444   8.146  17.833  0.00  0.00    +0.000 A 
ATOM     28  C   UNL     1       1.707   9.337  17.862  0.00  0.00    +0.000 A 
ENDBRANCH   8  23
TORSDOF 3
ENDMDL
MODEL 5
REMARK VINA RESULT:      -7.0      7.508     11.516
REMARK  Name = 
REMARK  3 active torsions:
REMARK  status: ('A' for Active; 'I' for Inactive)
REMARK    1  A    between atoms: C_4  and  C_5
REMARK    2  A    between atoms: C_7  and  N_8
REMARK    3  A    between atoms: C_18  and  C_19
REMARK                            x       y       z     vdW  Elec       q    Type
REMARK                         _______ _______ _______ _____ _____    ______ ____
ROOT
ATOM      1  C   UNL     1      -0.058  13.040  21.925  0.00  0.00    +0.000 C 
ATOM      2  C   UNL     1      -1.169  13.600  22.840  0.00  0.00    +0.000 C 
ATOM      3  C   UNL     1      -2.346  14.264  22.077  0.00  0.00    +0.000 C 
ATOM      4  C   UNL     1      -2.889  13.269  20.963  0.00  0.00    +0.000 C 
ATOM      5  N   UNL     1      -2.321  13.278  19.615  0.00  0.00    +0.000 NA
ATOM      6  C   UNL     1      -0.880  13.179  19.473  0.00  0.00    +0.000 C 
ATOM      7  C   UNL     1      -0.012  13.828  20.560  0.00  0.00    +0.000 C 
ATOM      8  C   UNL     1      -0.372  15.333  20.763  0.00  0.00    +0.000 C 
ATOM      9  C   UNL     1      -1.755  15.535  21.423  0.00  0.00    +0.000 C 
ATOM     10  H   UNL     1      -2.675  14.072  19.097  0.00  0.00    +0.000 HD
ENDROOT
BRANCH   1  14
ATOM     11  C   UNL     1       0.116   8.685  21.505  0.00  0.00    +0.000 A 
ATOM     12  C   UNL     1      -0.611   9.240  22.548  0.00  0.00    +0.000 A 
ATOM     13  C   UNL     1      -0.667  10.629  22.699  0.00  0.00    +0.000 A 
ATOM     14  C   UNL     1       0.000  11.502  21.818  0.00  0.00    +0.000 A 
ATOM     15  C   UNL     1       0.762  10.909  20.795  0.00  0.00    +0.000 A 
ATOM     16  C   UNL     1       0.805   9.519  20.630  0.00  0.00    +0.000 A 
ENDBRANCH   1  14
BRANCH   3  17
ATOM     17  N   UNL     1      -3.511  14.558  22.977  0.00  0.00    +0.000 NA
ATOM     18  C   UNL     1      -4.883  14.410  22.460  0.00  0.00    +0.000 C 
ATOM     19  C   UNL     1      -5.398  12.967  22.479  0.00  0.00    +0.000 C 
ATOM     20  O   UNL     1      -5.387  12.435  23.808  0.00  0.00    +0.000 OA
ATOM     21  C   UNL     1      -4.094  12.522  24.417  0.00  0.00    +0.000 C 
ATOM     22  C   UNL     1      -3.478  13.938  24.325  0.00  0.00    +0.000 C 
ENDBRANCH   3  17
BRANCH   8  23
ATOM     23  C   UNL     1      -0.185  16.259  19.551  0.00  0.00    +0.000 A 
ATOM     24  C   UNL     1      -1.239  17.022  19.017  0.00  0.00    +0.000 A 
ATOM     25  C   UNL     1      -1.037  17.913  17.960  0.00  0.00    +0.000 A 
ATOM     26  C   UNL     1       0.233  18.068  17.415  0.00  0.00    +0.000 A 
ATOM     27  C   UNL     1       1.289  17.316  17.925  0.00  0.00    +0.000 A 
ATOM     28  C   UNL     1       1.085  16.420  18.984  0.00  0.00    +0.000 A 
ENDBRANCH   8  23
TORSDOF 3
ENDMDL
MODEL 6
REMARK VINA RESULT:      -7.0      8.325     10.405
REMARK  Name = 
REMARK  3 active torsions:
REMARK  status: ('A' for Active; 'I' for Inactive)
REMARK    1  A    between atoms: C_4  and  C_5
REMARK    2  A    between atoms: C_7  and  N_8
REMARK    3  A    between atoms: C_18  and  C_19
REMARK                            x       y       z     vdW  Elec       q    Type
REMARK                         _______ _______ _______ _____ _____    ______ ____
ROOT
ATOM      1  C   UNL     1      -1.506  11.885  21.896  0.00  0.00    +0.000 C 
ATOM      2  C   UNL     1       0.008  11.889  21.590  0.00  0.00    +0.000 C 
ATOM      3  C   UNL     1       0.382  12.560  20.242  0.00  0.00    +0.000 C 
ATOM      4  C   UNL     1      -0.282  14.001  20.160  0.00  0.00    +0.000 C 
ATOM      5  N   UNL     1      -1.622  14.174  19.603  0.00  0.00    +0.000 NA
ATOM      6  C   UNL     1      -2.696  13.344  20.118  0.00  0.00    +0.000 C 
ATOM      7  C   UNL     1      -2.343  11.918  20.559  0.00  0.00    +0.000 C 
ATOM      8  C   UNL     1      -1.626  11.123  19.423  0.00  0.00    +0.000 C 
ATOM      9  C   UNL     1      -0.196  11.638  19.143  0.00  0.00    +0.000 C 
ATOM     10  H   UNL     1      -1.585  14.120  18.593  0.00  0.00    +0.000 HD
ENDROOT
BRANCH   1  14
ATOM     11  C   UNL     1      -2.912  14.640  24.996  0.00  0.00    +0.000 A 
ATOM     12  C   UNL     1      -1.643  14.807  24.459  0.00  0.00    +0.000 A 
ATOM     13  C   UNL     1      -1.179  13.929  23.476  0.00  0.00    +0.000 A 
ATOM     14  C   UNL     1      -1.963  12.860  23.000  0.00  0.00    +0.000 A 
ATOM     15  C   UNL     1      -3.228  12.691  23.591  0.00  0.00    +0.000 A 
ATOM     16  C   UNL     1      -3.704  13.580  24.564  0.00  0.00    +0.000 A 
ENDBRANCH   1  14
BRANCH   3  17
ATOM     17  N   UNL     1       1.862  12.774  20.107  0.00  0.00    +0.000 NA
ATOM     18  C   UNL     1       2.466  12.843  18.765  0.00  0.00    +0.000 C 
ATOM     19  C   UNL     1       2.338  14.218  18.101  0.00  0.00    +0.000 C 
ATOM     20  O   UNL     1       2.958  15.233  18.898  0.00  0.00    +0.000 OA
ATOM     21  C   UNL     1       2.445  15.264  20.234  0.00  0.00    +0.000 C 
ATOM     22  C   UNL     1       2.447  13.874  20.912  0.00  0.00    +0.000 C 
ENDBRANCH   3  17
BRANCH   8  23
ATOM     23  C   UNL     1      -2.415  10.913  18.121  0.00  0.00    +0.000 A 
ATOM     24  C   UNL     1      -3.677  11.496  17.903  0.00  0.00    +0.000 A 
ATOM     25  C   UNL     1      -4.350  11.355  16.687  0.00  0.00    +0.000 A 
ATOM     26  C   UNL     1      -3.769  10.630  15.652  0.00  0.00    +0.000 A 
ATOM     27  C   UNL     1      -2.523  10.039  15.851  0.00  0.00    +0.000 A 
ATOM     28  C   UNL     1      -1.850  10.178  17.072  0.00  0.00    +0.000 A 
ENDBRANCH   8  23
TORSDOF 3
ENDMDL
MODEL 7
REMARK VINA RESULT:      -7.0      7.997     12.276
REMARK  Name = 
REMARK  3 active torsions:
REMARK  status: ('A' for Active; 'I' for Inactive)
REMARK    1  A    between atoms: C_4  and  C_5
REMARK    2  A    between atoms: C_7  and  N_8
REMARK    3  A    between atoms: C_18  and  C_19
REMARK                            x       y       z     vdW  Elec       q    Type
REMARK                         _______ _______ _______ _____ _____    ______ ____
ROOT
ATOM      1  C   UNL     1      -3.532  13.535  24.094  0.00  0.00    +0.000 C 
ATOM      2  C   UNL     1      -2.606  14.771  24.060  0.00  0.00    +0.000 C 
ATOM      3  C   UNL     1      -1.817  14.937  22.734  0.00  0.00    +0.000 C 
ATOM      4  C   UNL     1      -2.819  14.865  21.503  0.00  0.00    +0.000 C 
ATOM      5  N   UNL     1      -3.139  13.583  20.876  0.00  0.00    +0.000 NA
ATOM      6  C   UNL     1      -3.578  12.491  21.725  0.00  0.00    +0.000 C 
ATOM      7  C   UNL     1      -2.986  12.406  23.138  0.00  0.00    +0.000 C 
ATOM      8  C   UNL     1      -1.425  12.393  23.110  0.00  0.00    +0.000 C 
ATOM      9  C   UNL     1      -0.823  13.753  22.690  0.00  0.00    +0.000 C 
ATOM     10  H   UNL     1      -2.372  13.288  20.286  0.00  0.00    +0.000 HD
ENDROOT
BRANCH   1  14
ATOM     11  C   UNL     1      -7.799  14.485  23.847  0.00  0.00    +0.000 A 
ATOM     12  C   UNL     1      -7.405  13.175  24.074  0.00  0.00    +0.000 A 
ATOM     13  C   UNL     1      -6.045  12.857  24.145  0.00  0.00    +0.000 A 
ATOM     14  C   UNL     1      -5.041  13.833  23.992  0.00  0.00    +0.000 A 
ATOM     15  C   UNL     1      -5.471  15.145  23.724  0.00  0.00    +0.000 A 
ATOM     16  C   UNL     1      -6.832  15.471  23.669  0.00  0.00    +0.000 A 
ENDBRANCH   1  14
BRANCH   3  17
ATOM     17  N   UNL     1      -1.138  16.274  22.642  0.00  0.00    +0.000 NA
ATOM     18  C   UNL     1       0.199  16.450  23.234  0.00  0.00    +0.000 C 
ATOM     19  C   UNL     1       1.340  15.955  22.339  0.00  0.00    +0.000 C 
ATOM     20  O   UNL     1       1.340  16.637  21.081  0.00  0.00    +0.000 OA
ATOM     21  C   UNL     1       0.081  16.532  20.406  0.00  0.00    +0.000 C 
ATOM     22  C   UNL     1      -1.118  16.914  21.305  0.00  0.00    +0.000 C 
ENDBRANCH   3  17
BRANCH   8  23
ATOM     23  C   UNL     1      -0.756  11.226  22.367  0.00  0.00    +0.000 A 
ATOM     24  C   UNL     1      -0.150  11.384  21.107  0.00  0.00    +0.000 A 
ATOM     25  C   UNL     1       0.516  10.330  20.476  0.00  0.00    +0.000 A 
ATOM     26  C   UNL     1       0.600   9.089  21.098  0.00  0.00    +0.000 A 
ATOM     27  C   UNL     1      -0.001   8.911  22.343  0.00  0.00    +0.000 A 
ATOM     28  C   UNL     1      -0.672   9.967  22.974  0.00  0.00    +0.000 A 
ENDBRANCH   8  23
TORSDOF 3
ENDMDL
MODEL 8
REMARK VINA RESULT:      -6.9      7.239     11.236
REMARK  Name = 
REMARK  3 active torsions:
REMARK  status: ('A' for Active; 'I' for Inactive)
REMARK    1  A    between atoms: C_4  and  C_5
REMARK    2  A    between atoms: C_7  and  N_8
REMARK    3  A    between atoms: C_18  and  C_19
REMARK                            x       y       z     vdW  Elec       q    Type
REMARK                         _______ _______ _______ _____ _____    ______ ____
ROOT
ATOM      1  C   UNL     1       0.083  12.854  21.578  0.00  0.00    +0.000 C 
ATOM      2  C   UNL     1      -1.139  13.390  22.355  0.00  0.00    +0.000 C 
ATOM      3  C   UNL     1      -2.221  14.052  21.460  0.00  0.00    +0.000 C 
ATOM      4  C   UNL     1      -2.609  13.066  20.276  0.00  0.00    +0.000 C 
ATOM      5  N   UNL     1      -1.880  13.099  19.009  0.00  0.00    +0.000 NA
ATOM      6  C   UNL     1      -0.431  13.019  19.045  0.00  0.00    +0.000 C 
ATOM      7  C   UNL     1       0.288  13.661  20.239  0.00  0.00    +0.000 C 
ATOM      8  C   UNL     1      -0.113  15.160  20.414  0.00  0.00    +0.000 C 
ATOM      9  C   UNL     1      -1.569  15.337  20.900  0.00  0.00    +0.000 C 
ATOM     10  H   UNL     1      -2.177  13.897  18.461  0.00  0.00    +0.000 HD
ENDROOT
BRANCH   1  14
ATOM     11  C   UNL     1       0.333   8.488  21.356  0.00  0.00    +0.000 A 
ATOM     12  C   UNL     1       0.975   9.257  20.396  0.00  0.00    +0.000 A 
ATOM     13  C   UNL     1       0.895  10.651  20.450  0.00  0.00    +0.000 A 
ATOM     14  C   UNL     1       0.173  11.319  21.459  0.00  0.00    +0.000 A 
ATOM     15  C   UNL     1      -0.499  10.513  22.395  0.00  0.00    +0.000 A 
ATOM     16  C   UNL     1      -0.406   9.115  22.354  0.00  0.00    +0.000 A 
ENDBRANCH   1  14
BRANCH   3  17
ATOM     17  N   UNL     1      -3.492  14.320  22.214  0.00  0.00    +0.000 NA
ATOM     18  C   UNL     1      -4.305  13.188  22.691  0.00  0.00    +0.000 C 
ATOM     19  C   UNL     1      -3.806  12.582  24.007  0.00  0.00    +0.000 C 
ATOM     20  O   UNL     1      -3.789  13.561  25.050  0.00  0.00    +0.000 OA
ATOM     21  C   UNL     1      -3.019  14.716  24.699  0.00  0.00    +0.000 C 
ATOM     22  C   UNL     1      -3.409  15.303  23.322  0.00  0.00    +0.000 C 
ENDBRANCH   3  17
BRANCH   8  23
ATOM     23  C   UNL     1       0.211  16.104  19.246  0.00  0.00    +0.000 A 
ATOM     24  C   UNL     1      -0.785  16.824  18.561  0.00  0.00    +0.000 A 
ATOM     25  C   UNL     1      -0.468  17.733  17.548  0.00  0.00    +0.000 A 
ATOM     26  C   UNL     1       0.860  17.950  17.200  0.00  0.00    +0.000 A 
ATOM     27  C   UNL     1       1.861  17.241  17.862  0.00  0.00    +0.000 A 
ATOM     28  C   UNL     1       1.542  16.327  18.875  0.00  0.00    +0.000 A 
ENDBRANCH   8  23
TORSDOF 3
ENDMDL
MODEL 9
REMARK VINA RESULT:      -6.9      8.147     12.390
REMARK  Name = 
REMARK  3 active torsions:
REMARK  status: ('A' for Active; 'I' for Inactive)
REMARK    1  A    between atoms: C_4  and  C_5
REMARK    2  A    between atoms: C_7  and  N_8
REMARK    3  A    between atoms: C_18  and  C_19
REMARK                            x       y       z     vdW  Elec       q    Type
REMARK                         _______ _______ _______ _____ _____    ______ ____
ROOT
ATOM      1  C   UNL     1      -3.553  13.626  24.116  0.00  0.00    +0.000 C 
ATOM      2  C   UNL     1      -2.644  14.875  24.083  0.00  0.00    +0.000 C 
ATOM      3  C   UNL     1      -1.840  15.039  22.765  0.00  0.00    +0.000 C 
ATOM      4  C   UNL     1      -2.826  14.944  21.523  0.00  0.00    +0.000 C 
ATOM      5  N   UNL     1      -3.120  13.652  20.903  0.00  0.00    +0.000 NA
ATOM      6  C   UNL     1      -3.555  12.561  21.756  0.00  0.00    +0.000 C 
ATOM      7  C   UNL     1      -2.980  12.496  23.177  0.00  0.00    +0.000 C 
ATOM      8  C   UNL     1      -1.419  12.504  23.169  0.00  0.00    +0.000 C 
ATOM      9  C   UNL     1      -0.830  13.869  22.744  0.00  0.00    +0.000 C 
ATOM     10  H   UNL     1      -2.342  13.362  20.325  0.00  0.00    +0.000 HD
ENDROOT
BRANCH   1  14
ATOM     11  C   UNL     1      -7.860  14.306  23.722  0.00  0.00    +0.000 A 
ATOM     12  C   UNL     1      -6.987  15.377  23.595  0.00  0.00    +0.000 A 
ATOM     13  C   UNL     1      -5.610  15.175  23.728  0.00  0.00    +0.000 A 
ATOM     14  C   UNL     1      -5.065  13.903  23.993  0.00  0.00    +0.000 A 
ATOM     15  C   UNL     1      -5.977  12.845  24.156  0.00  0.00    +0.000 A 
ATOM     16  C   UNL     1      -7.356  13.041  24.005  0.00  0.00    +0.000 A 
ENDBRANCH   1  14
BRANCH   3  17
ATOM     17  N   UNL     1      -1.178  16.385  22.670  0.00  0.00    +0.000 NA
ATOM     18  C   UNL     1      -0.989  17.188  23.891  0.00  0.00    +0.000 C 
ATOM     19  C   UNL     1       0.241  16.785  24.710  0.00  0.00    +0.000 C 
ATOM     20  O   UNL     1       1.437  16.905  23.934  0.00  0.00    +0.000 OA
ATOM     21  C   UNL     1       1.372  16.158  22.715  0.00  0.00    +0.000 C 
ATOM     22  C   UNL     1       0.088  16.446  21.901  0.00  0.00    +0.000 C 
ENDBRANCH   3  17
BRANCH   8  23
ATOM     23  C   UNL     1      -0.725  11.340  22.445  0.00  0.00    +0.000 A 
ATOM     24  C   UNL     1      -0.062  11.506  21.214  0.00  0.00    +0.000 A 
ATOM     25  C   UNL     1       0.625  10.454  20.604  0.00  0.00    +0.000 A 
ATOM     26  C   UNL     1       0.672   9.207  21.216  0.00  0.00    +0.000 A 
ATOM     27  C   UNL     1       0.016   9.020  22.431  0.00  0.00    +0.000 A 
ATOM     28  C   UNL     1      -0.676  10.075  23.042  0.00  0.00    +0.000 A 
ENDBRANCH   8  23
TORSDOF 3
ENDMDL
