MODEL 1
REMARK VINA RESULT:      -7.2      0.000      0.000
REMARK  Name = 
REMARK  8 active torsions:
REMARK  status: ('A' for Active; 'I' for Inactive)
REMARK    1  A    between atoms: C_1  and  O_2
REMARK    2  A    between atoms: O_2  and  C_3
REMARK    3  A    between atoms: C_6  and  C_7
REMARK    4  A    between atoms: C_9  and  N_10
REMARK    5  A    between atoms: C_11  and  C_13
REMARK    6  A    between atoms: C_18  and  O_20
REMARK    7  A    between atoms: O_20  and  C_21
REMARK    8  A    between atoms: C_21  and  C_22
REMARK                            x       y       z     vdW  Elec       q    Type
REMARK                         _______ _______ _______ _____ _____    ______ ____
ROOT
ATOM      1  C   UNL     1       2.210   8.020  18.227  0.00  0.00    +0.000 C 
ATOM      2  C   UNL     1       2.116   9.475  17.714  0.00  0.00    +0.000 C 
ATOM      3  C   UNL     1       0.872  10.028  18.385  0.00  0.00    +0.000 C 
ATOM      4  C   UNL     1       0.791   9.267  19.696  0.00  0.00    +0.000 C 
ATOM      5  N   UNL     1       1.772   8.191  19.610  0.00  0.00    +0.000 N 
ATOM      6  C   UNL     1       1.688   7.204  20.565  0.00  0.00    +0.000 C 
ATOM      7  O   UNL     1       1.059   7.340  21.613  0.00  0.00    +0.000 OA
ENDROOT
BRANCH   1   9
ATOM      8  N   UNL     1       3.757   6.115  17.619  0.00  0.00    +0.000 N 
ATOM      9  C   UNL     1       3.562   7.478  17.699  0.00  0.00    +0.000 C 
ATOM     10  O   UNL     1       4.395   8.322  17.350  0.00  0.00    +0.000 OA
ATOM     11  H   UNL     1       3.013   5.506  17.951  0.00  0.00    +0.000 HD
BRANCH   8  18
ATOM     12  C   UNL     1       6.007   5.133  17.773  0.00  0.00    +0.000 A 
ATOM     13  C   UNL     1       7.058   4.403  17.190  0.00  0.00    +0.000 A 
ATOM     14  C   UNL     1       7.009   4.006  15.854  0.00  0.00    +0.000 A 
ATOM     15  C   UNL     1       5.907   4.342  15.074  0.00  0.00    +0.000 A 
ATOM     16  C   UNL     1       5.801   3.892  13.650  0.00  0.00    +0.000 C 
ATOM     17  C   UNL     1       4.851   5.055  15.659  0.00  0.00    +0.000 A 
ATOM     18  C   UNL     1       4.864   5.449  17.010  0.00  0.00    +0.000 A 
BRANCH  12  20
ATOM     19  C   UNL     1       7.332   5.671  19.663  0.00  0.00    +0.000 C 
ATOM     20  O   UNL     1       6.029   5.554  19.088  0.00  0.00    +0.000 OA
ENDBRANCH  12  20
ENDBRANCH   8  18
ENDBRANCH   1   9
BRANCH   6  21
ATOM     21  O   UNL     1       2.426   6.117  20.252  0.00  0.00    +0.000 OA
BRANCH  21  22
ATOM     22  C   UNL     1       1.834   4.853  20.572  0.00  0.00    +0.000 C 
BRANCH  22  23
ATOM     23  C   UNL     1       2.385   3.758  19.694  0.00  0.00    +0.000 A 
ATOM     24  C   UNL     1       1.756   3.413  18.491  0.00  0.00    +0.000 A 
ATOM     25  C   UNL     1       2.333   2.469  17.639  0.00  0.00    +0.000 A 
ATOM     26  C   UNL     1       3.542   1.863  17.979  0.00  0.00    +0.000 A 
ATOM     27  C   UNL     1       4.167   2.187  19.182  0.00  0.00    +0.000 A 
ATOM     28  C   UNL     1       3.591   3.127  20.036  0.00  0.00    +0.000 A 
ENDBRANCH  22  23
ENDBRANCH  21  22
ENDBRANCH   6  21
TORSDOF 6
ENDMDL
MODEL 2
REMARK VINA RESULT:      -6.4      1.877      4.894
REMARK  Name = 
REMARK  8 active torsions:
REMARK  status: ('A' for Active; 'I' for Inactive)
REMARK    1  A    between atoms: C_1  and  O_2
REMARK    2  A    between atoms: O_2  and  C_3
REMARK    3  A    between atoms: C_6  and  C_7
REMARK    4  A    between atoms: C_9  and  N_10
REMARK    5  A    between atoms: C_11  and  C_13
REMARK    6  A    between atoms: C_18  and  O_20
REMARK    7  A    between atoms: O_20  and  C_21
REMARK    8  A    between atoms: C_21  and  C_22
REMARK                            x       y       z     vdW  Elec       q    Type
REMARK                         _______ _______ _______ _____ _____    ______ ____
ROOT
ATOM      1  C   UNL     1       3.940   3.388  19.512  0.00  0.00    +0.000 C 
ATOM      2  C   UNL     1       4.235   1.955  20.010  0.00  0.00    +0.000 C 
ATOM      3  C   UNL     1       3.635   1.913  21.404  0.00  0.00    +0.000 C 
ATOM      4  C   UNL     1       2.472   2.887  21.334  0.00  0.00    +0.000 C 
ATOM      5  N   UNL     1       2.607   3.601  20.069  0.00  0.00    +0.000 N 
ATOM      6  C   UNL     1       1.828   4.724  19.911  0.00  0.00    +0.000 C 
ATOM      7  O   UNL     1       0.851   4.965  20.618  0.00  0.00    +0.000 OA
ENDROOT
BRANCH   1   9
ATOM      8  N   UNL     1       5.101   4.494  17.557  0.00  0.00    +0.000 N 
ATOM      9  C   UNL     1       4.385   3.414  18.028  0.00  0.00    +0.000 C 
ATOM     10  O   UNL     1       4.084   2.427  17.345  0.00  0.00    +0.000 OA
ATOM     11  H   UNL     1       5.280   5.264  18.197  0.00  0.00    +0.000 HD
BRANCH   8  18
ATOM     12  C   UNL     1       6.999   5.203  16.162  0.00  0.00    +0.000 A 
ATOM     13  C   UNL     1       7.646   5.236  14.914  0.00  0.00    +0.000 A 
ATOM     14  C   UNL     1       7.039   4.717  13.771  0.00  0.00    +0.000 A 
ATOM     15  C   UNL     1       5.767   4.160  13.857  0.00  0.00    +0.000 A 
ATOM     16  C   UNL     1       5.106   3.551  12.659  0.00  0.00    +0.000 C 
ATOM     17  C   UNL     1       5.129   4.110  15.105  0.00  0.00    +0.000 A 
ATOM     18  C   UNL     1       5.726   4.608  16.277  0.00  0.00    +0.000 A 
BRANCH  12  20
ATOM     19  C   UNL     1       7.484   7.142  17.436  0.00  0.00    +0.000 C 
ATOM     20  O   UNL     1       7.565   5.721  17.311  0.00  0.00    +0.000 OA
ENDBRANCH  12  20
ENDBRANCH   8  18
ENDBRANCH   1   9
BRANCH   6  21
ATOM     21  O   UNL     1       2.215   5.478  18.859  0.00  0.00    +0.000 OA
BRANCH  21  22
ATOM     22  C   UNL     1       2.953   6.662  19.183  0.00  0.00    +0.000 C 
BRANCH  22  23
ATOM     23  C   UNL     1       2.062   7.878  19.164  0.00  0.00    +0.000 A 
ATOM     24  C   UNL     1       1.487   8.370  20.343  0.00  0.00    +0.000 A 
ATOM     25  C   UNL     1       0.747   9.553  20.327  0.00  0.00    +0.000 A 
ATOM     26  C   UNL     1       0.576  10.257  19.135  0.00  0.00    +0.000 A 
ATOM     27  C   UNL     1       1.128   9.766  17.953  0.00  0.00    +0.000 A 
ATOM     28  C   UNL     1       1.865   8.582  17.966  0.00  0.00    +0.000 A 
ENDBRANCH  22  23
ENDBRANCH  21  22
ENDBRANCH   6  21
TORSDOF 6
ENDMDL
MODEL 3
REMARK VINA RESULT:      -6.4      4.899      9.931
REMARK  Name = 
REMARK  8 active torsions:
REMARK  status: ('A' for Active; 'I' for Inactive)
REMARK    1  A    between atoms: C_1  and  O_2
REMARK    2  A    between atoms: O_2  and  C_3
REMARK    3  A    between atoms: C_6  and  C_7
REMARK    4  A    between atoms: C_9  and  N_10
REMARK    5  A    between atoms: C_11  and  C_13
REMARK    6  A    between atoms: C_18  and  O_20
REMARK    7  A    between atoms: O_20  and  C_21
REMARK    8  A    between atoms: C_21  and  C_22
REMARK                            x       y       z     vdW  Elec       q    Type
REMARK                         _______ _______ _______ _____ _____    ______ ____
ROOT
ATOM      1  C   UNL     1       0.773  10.268  19.070  0.00  0.00    +0.000 C 
ATOM      2  C   UNL     1       1.016   9.310  17.882  0.00  0.00    +0.000 C 
ATOM      3  C   UNL     1       2.108   8.376  18.373  0.00  0.00    +0.000 C 
ATOM      4  C   UNL     1       1.889   8.310  19.873  0.00  0.00    +0.000 C 
ATOM      5  N   UNL     1       0.916   9.349  20.195  0.00  0.00    +0.000 N 
ATOM      6  C   UNL     1       0.768   9.661  21.527  0.00  0.00    +0.000 C 
ATOM      7  O   UNL     1       1.167   8.933  22.433  0.00  0.00    +0.000 OA
ENDROOT
BRANCH   1   9
ATOM      8  N   UNL     1      -1.653  10.501  18.395  0.00  0.00    +0.000 N 
ATOM      9  C   UNL     1      -0.455  11.126  18.670  0.00  0.00    +0.000 C 
ATOM     10  O   UNL     1      -0.287  12.350  18.644  0.00  0.00    +0.000 OA
ATOM     11  H   UNL     1      -1.680   9.484  18.427  0.00  0.00    +0.000 HD
BRANCH   8  18
ATOM     12  C   UNL     1      -3.430  11.247  16.867  0.00  0.00    +0.000 A 
ATOM     13  C   UNL     1      -4.708  11.797  16.664  0.00  0.00    +0.000 A 
ATOM     14  C   UNL     1      -5.470  12.270  17.733  0.00  0.00    +0.000 A 
ATOM     15  C   UNL     1      -4.961  12.205  19.026  0.00  0.00    +0.000 A 
ATOM     16  C   UNL     1      -5.771  12.659  20.200  0.00  0.00    +0.000 C 
ATOM     17  C   UNL     1      -3.694  11.640  19.230  0.00  0.00    +0.000 A 
ATOM     18  C   UNL     1      -2.913  11.137  18.174  0.00  0.00    +0.000 A 
BRANCH  12  20
ATOM     19  C   UNL     1      -3.359  10.182  14.751  0.00  0.00    +0.000 C 
ATOM     20  O   UNL     1      -2.643  10.784  15.831  0.00  0.00    +0.000 OA
ENDBRANCH  12  20
ENDBRANCH   8  18
ENDBRANCH   1   9
BRANCH   6  21
ATOM     21  O   UNL     1       0.079  10.808  21.715  0.00  0.00    +0.000 OA
BRANCH  21  22
ATOM     22  C   UNL     1      -0.864  10.795  22.793  0.00  0.00    +0.000 C 
BRANCH  22  23
ATOM     23  C   UNL     1      -1.818  11.958  22.692  0.00  0.00    +0.000 A 
ATOM     24  C   UNL     1      -2.977  12.010  23.477  0.00  0.00    +0.000 A 
ATOM     25  C   UNL     1      -3.799  13.138  23.447  0.00  0.00    +0.000 A 
ATOM     26  C   UNL     1      -3.471  14.224  22.635  0.00  0.00    +0.000 A 
ATOM     27  C   UNL     1      -2.330  14.174  21.837  0.00  0.00    +0.000 A 
ATOM     28  C   UNL     1      -1.509  13.047  21.862  0.00  0.00    +0.000 A 
ENDBRANCH  22  23
ENDBRANCH  21  22
ENDBRANCH   6  21
TORSDOF 6
ENDMDL
MODEL 4
REMARK VINA RESULT:      -6.4      1.935      4.903
REMARK  Name = 
REMARK  8 active torsions:
REMARK  status: ('A' for Active; 'I' for Inactive)
REMARK    1  A    between atoms: C_1  and  O_2
REMARK    2  A    between atoms: O_2  and  C_3
REMARK    3  A    between atoms: C_6  and  C_7
REMARK    4  A    between atoms: C_9  and  N_10
REMARK    5  A    between atoms: C_11  and  C_13
REMARK    6  A    between atoms: C_18  and  O_20
REMARK    7  A    between atoms: O_20  and  C_21
REMARK    8  A    between atoms: C_21  and  C_22
REMARK                            x       y       z     vdW  Elec       q    Type
REMARK                         _______ _______ _______ _____ _____    ______ ____
ROOT
ATOM      1  C   UNL     1       3.645   3.269  18.600  0.00  0.00    +0.000 C 
ATOM      2  C   UNL     1       3.681   1.767  18.238  0.00  0.00    +0.000 C 
ATOM      3  C   UNL     1       2.912   1.093  19.360  0.00  0.00    +0.000 C 
ATOM      4  C   UNL     1       1.908   2.143  19.800  0.00  0.00    +0.000 C 
ATOM      5  N   UNL     1       2.294   3.386  19.141  0.00  0.00    +0.000 N 
ATOM      6  C   UNL     1       1.697   4.537  19.601  0.00  0.00    +0.000 C 
ATOM      7  O   UNL     1       0.682   4.533  20.294  0.00  0.00    +0.000 OA
ENDROOT
BRANCH   1   9
ATOM      8  N   UNL     1       5.351   3.442  16.742  0.00  0.00    +0.000 N 
ATOM      9  C   UNL     1       4.271   4.005  17.389  0.00  0.00    +0.000 C 
ATOM     10  O   UNL     1       3.735   5.068  17.053  0.00  0.00    +0.000 OA
ATOM     11  H   UNL     1       5.728   2.573  17.111  0.00  0.00    +0.000 HD
BRANCH   8  18
ATOM     12  C   UNL     1       7.042   4.775  15.554  0.00  0.00    +0.000 A 
ATOM     13  C   UNL     1       7.674   5.150  14.355  0.00  0.00    +0.000 A 
ATOM     14  C   UNL     1       7.213   4.691  13.121  0.00  0.00    +0.000 A 
ATOM     15  C   UNL     1       6.105   3.852  13.066  0.00  0.00    +0.000 A 
ATOM     16  C   UNL     1       5.613   3.303  11.763  0.00  0.00    +0.000 C 
ATOM     17  C   UNL     1       5.486   3.463  14.263  0.00  0.00    +0.000 A 
ATOM     18  C   UNL     1       5.942   3.894  15.522  0.00  0.00    +0.000 A 
BRANCH  12  20
ATOM     19  C   UNL     1       7.108   6.572  17.098  0.00  0.00    +0.000 C 
ATOM     20  O   UNL     1       7.463   5.223  16.791  0.00  0.00    +0.000 OA
ENDBRANCH  12  20
ENDBRANCH   8  18
ENDBRANCH   1   9
BRANCH   6  21
ATOM     21  O   UNL     1       2.310   5.653  19.149  0.00  0.00    +0.000 OA
BRANCH  21  22
ATOM     22  C   UNL     1       2.495   6.693  20.116  0.00  0.00    +0.000 C 
BRANCH  22  23
ATOM     23  C   UNL     1       1.923   7.998  19.624  0.00  0.00    +0.000 A 
ATOM     24  C   UNL     1       2.113   8.416  18.301  0.00  0.00    +0.000 A 
ATOM     25  C   UNL     1       1.493   9.575  17.831  0.00  0.00    +0.000 A 
ATOM     26  C   UNL     1       0.678  10.327  18.676  0.00  0.00    +0.000 A 
ATOM     27  C   UNL     1       0.497   9.930  20.000  0.00  0.00    +0.000 A 
ATOM     28  C   UNL     1       1.117   8.773  20.473  0.00  0.00    +0.000 A 
ENDBRANCH  22  23
ENDBRANCH  21  22
ENDBRANCH   6  21
TORSDOF 6
ENDMDL
MODEL 5
REMARK VINA RESULT:      -6.2      1.806      4.777
REMARK  Name = 
REMARK  8 active torsions:
REMARK  status: ('A' for Active; 'I' for Inactive)
REMARK    1  A    between atoms: C_1  and  O_2
REMARK    2  A    between atoms: O_2  and  C_3
REMARK    3  A    between atoms: C_6  and  C_7
REMARK    4  A    between atoms: C_9  and  N_10
REMARK    5  A    between atoms: C_11  and  C_13
REMARK    6  A    between atoms: C_18  and  O_20
REMARK    7  A    between atoms: O_20  and  C_21
REMARK    8  A    between atoms: C_21  and  C_22
REMARK                            x       y       z     vdW  Elec       q    Type
REMARK                         _______ _______ _______ _____ _____    ______ ____
ROOT
ATOM      1  C   UNL     1       3.358   3.380  18.620  0.00  0.00    +0.000 C 
ATOM      2  C   UNL     1       2.997   1.984  18.063  0.00  0.00    +0.000 C 
ATOM      3  C   UNL     1       2.147   1.355  19.152  0.00  0.00    +0.000 C 
ATOM      4  C   UNL     1       1.464   2.538  19.815  0.00  0.00    +0.000 C 
ATOM      5  N   UNL     1       2.111   3.735  19.292  0.00  0.00    +0.000 N 
ATOM      6  C   UNL     1       1.848   4.914  19.951  0.00  0.00    +0.000 C 
ATOM      7  O   UNL     1       0.904   5.051  20.726  0.00  0.00    +0.000 OA
ENDROOT
BRANCH   1   9
ATOM      8  N   UNL     1       5.214   3.559  16.914  0.00  0.00    +0.000 N 
ATOM      9  C   UNL     1       4.079   4.117  17.463  0.00  0.00    +0.000 C 
ATOM     10  O   UNL     1       3.566   5.174  17.078  0.00  0.00    +0.000 OA
ATOM     11  H   UNL     1       5.566   2.694  17.317  0.00  0.00    +0.000 HD
BRANCH   8  18
ATOM     12  C   UNL     1       6.974   4.923  15.867  0.00  0.00    +0.000 A 
ATOM     13  C   UNL     1       7.704   5.299  14.725  0.00  0.00    +0.000 A 
ATOM     14  C   UNL     1       7.372   4.811  13.461  0.00  0.00    +0.000 A 
ATOM     15  C   UNL     1       6.295   3.941  13.318  0.00  0.00    +0.000 A 
ATOM     16  C   UNL     1       5.942   3.362  11.983  0.00  0.00    +0.000 C 
ATOM     17  C   UNL     1       5.579   3.552  14.458  0.00  0.00    +0.000 A 
ATOM     18  C   UNL     1       5.905   4.012  15.747  0.00  0.00    +0.000 A 
BRANCH  12  20
ATOM     19  C   UNL     1       6.955   6.776  17.344  0.00  0.00    +0.000 C 
ATOM     20  O   UNL     1       7.266   5.398  17.130  0.00  0.00    +0.000 OA
ENDBRANCH  12  20
ENDBRANCH   8  18
ENDBRANCH   1   9
BRANCH   6  21
ATOM     21  O   UNL     1       2.694   5.905  19.595  0.00  0.00    +0.000 OA
BRANCH  21  22
ATOM     22  C   UNL     1       2.625   7.095  20.390  0.00  0.00    +0.000 C 
BRANCH  22  23
ATOM     23  C   UNL     1       1.784   8.149  19.716  0.00  0.00    +0.000 A 
ATOM     24  C   UNL     1       0.838   8.888  20.438  0.00  0.00    +0.000 A 
ATOM     25  C   UNL     1       0.138   9.929  19.826  0.00  0.00    +0.000 A 
ATOM     26  C   UNL     1       0.377  10.242  18.488  0.00  0.00    +0.000 A 
ATOM     27  C   UNL     1       1.303   9.501  17.755  0.00  0.00    +0.000 A 
ATOM     28  C   UNL     1       2.001   8.459  18.364  0.00  0.00    +0.000 A 
ENDBRANCH  22  23
ENDBRANCH  21  22
ENDBRANCH   6  21
TORSDOF 6
ENDMDL
MODEL 6
REMARK VINA RESULT:      -6.0      1.700      6.539
REMARK  Name = 
REMARK  8 active torsions:
REMARK  status: ('A' for Active; 'I' for Inactive)
REMARK    1  A    between atoms: C_1  and  O_2
REMARK    2  A    between atoms: O_2  and  C_3
REMARK    3  A    between atoms: C_6  and  C_7
REMARK    4  A    between atoms: C_9  and  N_10
REMARK    5  A    between atoms: C_11  and  C_13
REMARK    6  A    between atoms: C_18  and  O_20
REMARK    7  A    between atoms: O_20  and  C_21
REMARK    8  A    between atoms: C_21  and  C_22
REMARK                            x       y       z     vdW  Elec       q    Type
REMARK                         _______ _______ _______ _____ _____    ______ ____
ROOT
ATOM      1  C   UNL     1       2.144   4.436  19.260  0.00  0.00    +0.000 C 
ATOM      2  C   UNL     1       0.882   3.544  19.287  0.00  0.00    +0.000 C 
ATOM      3  C   UNL     1       1.309   2.270  18.582  0.00  0.00    +0.000 C 
ATOM      4  C   UNL     1       2.795   2.165  18.879  0.00  0.00    +0.000 C 
ATOM      5  N   UNL     1       3.187   3.437  19.475  0.00  0.00    +0.000 N 
ATOM      6  C   UNL     1       4.538   3.679  19.574  0.00  0.00    +0.000 C 
ATOM      7  O   UNL     1       5.384   2.793  19.475  0.00  0.00    +0.000 OA
ENDROOT
BRANCH   1   9
ATOM      8  N   UNL     1       1.919   6.935  19.571  0.00  0.00    +0.000 N 
ATOM      9  C   UNL     1       1.797   5.676  20.121  0.00  0.00    +0.000 C 
ATOM     10  O   UNL     1       1.399   5.455  21.271  0.00  0.00    +0.000 OA
ATOM     11  H   UNL     1       2.274   7.009  18.621  0.00  0.00    +0.000 HD
BRANCH   8  18
ATOM     12  C   UNL     1       1.450   9.342  19.385  0.00  0.00    +0.000 A 
ATOM     13  C   UNL     1       0.948  10.531  19.943  0.00  0.00    +0.000 A 
ATOM     14  C   UNL     1       0.514  10.580  21.268  0.00  0.00    +0.000 A 
ATOM     15  C   UNL     1       0.583   9.438  22.060  0.00  0.00    +0.000 A 
ATOM     16  C   UNL     1       0.082   9.444  23.471  0.00  0.00    +0.000 C 
ATOM     17  C   UNL     1       1.066   8.249  21.497  0.00  0.00    +0.000 A 
ATOM     18  C   UNL     1       1.491   8.165  20.159  0.00  0.00    +0.000 A 
BRANCH  12  20
ATOM     19  C   UNL     1       2.326  10.502  17.512  0.00  0.00    +0.000 C 
ATOM     20  O   UNL     1       1.901   9.263  18.082  0.00  0.00    +0.000 OA
ENDBRANCH  12  20
ENDBRANCH   8  18
ENDBRANCH   1   9
BRANCH   6  21
ATOM     21  O   UNL     1       4.813   4.971  19.860  0.00  0.00    +0.000 OA
BRANCH  21  22
ATOM     22  C   UNL     1       6.029   5.483  19.304  0.00  0.00    +0.000 C 
BRANCH  22  23
ATOM     23  C   UNL     1       6.004   5.423  17.798  0.00  0.00    +0.000 A 
ATOM     24  C   UNL     1       5.085   6.180  17.061  0.00  0.00    +0.000 A 
ATOM     25  C   UNL     1       5.139   6.193  15.666  0.00  0.00    +0.000 A 
ATOM     26  C   UNL     1       6.112   5.452  14.995  0.00  0.00    +0.000 A 
ATOM     27  C   UNL     1       7.020   4.682  15.719  0.00  0.00    +0.000 A 
ATOM     28  C   UNL     1       6.966   4.665  17.112  0.00  0.00    +0.000 A 
ENDBRANCH  22  23
ENDBRANCH  21  22
ENDBRANCH   6  21
TORSDOF 6
ENDMDL
MODEL 7
REMARK VINA RESULT:      -6.0      7.633     10.592
REMARK  Name = 
REMARK  8 active torsions:
REMARK  status: ('A' for Active; 'I' for Inactive)
REMARK    1  A    between atoms: C_1  and  O_2
REMARK    2  A    between atoms: O_2  and  C_3
REMARK    3  A    between atoms: C_6  and  C_7
REMARK    4  A    between atoms: C_9  and  N_10
REMARK    5  A    between atoms: C_11  and  C_13
REMARK    6  A    between atoms: C_18  and  O_20
REMARK    7  A    between atoms: O_20  and  C_21
REMARK    8  A    between atoms: C_21  and  C_22
REMARK                            x       y       z     vdW  Elec       q    Type
REMARK                         _______ _______ _______ _____ _____    ______ ____
ROOT
ATOM      1  C   UNL     1      -4.961  13.810  22.433  0.00  0.00    +0.000 C 
ATOM      2  C   UNL     1      -6.105  14.805  22.132  0.00  0.00    +0.000 C 
ATOM      3  C   UNL     1      -5.989  15.851  23.227  0.00  0.00    +0.000 C 
ATOM      4  C   UNL     1      -4.508  15.872  23.560  0.00  0.00    +0.000 C 
ATOM      5  N   UNL     1      -3.915  14.726  22.881  0.00  0.00    +0.000 N 
ATOM      6  C   UNL     1      -2.637  14.381  23.257  0.00  0.00    +0.000 C 
ATOM      7  O   UNL     1      -1.897  15.138  23.882  0.00  0.00    +0.000 OA
ENDROOT
BRANCH   1   9
ATOM      8  N   UNL     1      -4.110  13.082  20.167  0.00  0.00    +0.000 N 
ATOM      9  C   UNL     1      -4.940  12.824  21.238  0.00  0.00    +0.000 C 
ATOM     10  O   UNL     1      -5.668  11.830  21.331  0.00  0.00    +0.000 OA
ATOM     11  H   UNL     1      -3.564  13.940  20.181  0.00  0.00    +0.000 HD
BRANCH   8  18
ATOM     12  C   UNL     1      -4.780  12.080  18.023  0.00  0.00    +0.000 A 
ATOM     13  C   UNL     1      -4.476  11.285  16.903  0.00  0.00    +0.000 A 
ATOM     14  C   UNL     1      -3.271  10.587  16.818  0.00  0.00    +0.000 A 
ATOM     15  C   UNL     1      -2.351  10.669  17.858  0.00  0.00    +0.000 A 
ATOM     16  C   UNL     1      -1.029   9.971  17.778  0.00  0.00    +0.000 C 
ATOM     17  C   UNL     1      -2.646  11.476  18.966  0.00  0.00    +0.000 A 
ATOM     18  C   UNL     1      -3.844  12.207  19.068  0.00  0.00    +0.000 A 
BRANCH  12  20
ATOM     19  C   UNL     1      -7.146  11.964  18.099  0.00  0.00    +0.000 C 
ATOM     20  O   UNL     1      -5.969  12.772  18.145  0.00  0.00    +0.000 OA
ENDBRANCH  12  20
ENDBRANCH   8  18
ENDBRANCH   1   9
BRANCH   6  21
ATOM     21  O   UNL     1      -2.276  13.161  22.803  0.00  0.00    +0.000 OA
BRANCH  21  22
ATOM     22  C   UNL     1      -0.995  13.091  22.166  0.00  0.00    +0.000 C 
BRANCH  22  23
ATOM     23  C   UNL     1      -0.488  11.672  22.125  0.00  0.00    +0.000 A 
ATOM     24  C   UNL     1      -0.946  10.715  23.040  0.00  0.00    +0.000 A 
ATOM     25  C   UNL     1      -0.545   9.382  22.927  0.00  0.00    +0.000 A 
ATOM     26  C   UNL     1       0.315   8.993  21.901  0.00  0.00    +0.000 A 
ATOM     27  C   UNL     1       0.791   9.940  20.997  0.00  0.00    +0.000 A 
ATOM     28  C   UNL     1       0.394  11.273  21.109  0.00  0.00    +0.000 A 
ENDBRANCH  22  23
ENDBRANCH  21  22
ENDBRANCH   6  21
TORSDOF 6
ENDMDL
MODEL 8
REMARK VINA RESULT:      -6.0      1.651      6.478
REMARK  Name = 
REMARK  8 active torsions:
REMARK  status: ('A' for Active; 'I' for Inactive)
REMARK    1  A    between atoms: C_1  and  O_2
REMARK    2  A    between atoms: O_2  and  C_3
REMARK    3  A    between atoms: C_6  and  C_7
REMARK    4  A    between atoms: C_9  and  N_10
REMARK    5  A    between atoms: C_11  and  C_13
REMARK    6  A    between atoms: C_18  and  O_20
REMARK    7  A    between atoms: O_20  and  C_21
REMARK    8  A    between atoms: C_21  and  C_22
REMARK                            x       y       z     vdW  Elec       q    Type
REMARK                         _______ _______ _______ _____ _____    ______ ____
ROOT
ATOM      1  C   UNL     1       2.097   4.243  19.111  0.00  0.00    +0.000 C 
ATOM      2  C   UNL     1       0.882   3.290  19.197  0.00  0.00    +0.000 C 
ATOM      3  C   UNL     1       1.370   2.004  18.555  0.00  0.00    +0.000 C 
ATOM      4  C   UNL     1       2.861   1.991  18.843  0.00  0.00    +0.000 C 
ATOM      5  N   UNL     1       3.192   3.311  19.368  0.00  0.00    +0.000 N 
ATOM      6  C   UNL     1       4.529   3.626  19.442  0.00  0.00    +0.000 C 
ATOM      7  O   UNL     1       5.419   2.780  19.381  0.00  0.00    +0.000 OA
ENDROOT
BRANCH   1   9
ATOM      8  N   UNL     1       2.017   6.751  19.413  0.00  0.00    +0.000 N 
ATOM      9  C   UNL     1       1.693   5.507  19.911  0.00  0.00    +0.000 C 
ATOM     10  O   UNL     1       1.067   5.319  20.960  0.00  0.00    +0.000 OA
ATOM     11  H   UNL     1       2.552   6.796  18.548  0.00  0.00    +0.000 HD
BRANCH   8  18
ATOM     12  C   UNL     1       1.402   9.106  19.057  0.00  0.00    +0.000 A 
ATOM     13  C   UNL     1       0.895  10.320  19.555  0.00  0.00    +0.000 A 
ATOM     14  C   UNL     1       0.597  10.478  20.908  0.00  0.00    +0.000 A 
ATOM     15  C   UNL     1       0.808   9.422  21.790  0.00  0.00    +0.000 A 
ATOM     16  C   UNL     1       0.454   9.542  23.240  0.00  0.00    +0.000 C 
ATOM     17  C   UNL     1       1.295   8.206  21.290  0.00  0.00    +0.000 A 
ATOM     18  C   UNL     1       1.585   8.012  19.927  0.00  0.00    +0.000 A 
BRANCH  12  20
ATOM     19  C   UNL     1       3.110   8.713  17.461  0.00  0.00    +0.000 C 
ATOM     20  O   UNL     1       1.721   8.921  17.726  0.00  0.00    +0.000 OA
ENDBRANCH  12  20
ENDBRANCH   8  18
ENDBRANCH   1   9
BRANCH   6  21
ATOM     21  O   UNL     1       4.739   4.943  19.657  0.00  0.00    +0.000 OA
BRANCH  21  22
ATOM     22  C   UNL     1       6.015   5.443  19.243  0.00  0.00    +0.000 C 
BRANCH  22  23
ATOM     23  C   UNL     1       6.141   5.427  17.741  0.00  0.00    +0.000 A 
ATOM     24  C   UNL     1       7.160   4.702  17.109  0.00  0.00    +0.000 A 
ATOM     25  C   UNL     1       7.204   4.614  15.717  0.00  0.00    +0.000 A 
ATOM     26  C   UNL     1       6.232   5.247  14.943  0.00  0.00    +0.000 A 
ATOM     27  C   UNL     1       5.225   5.986  15.560  0.00  0.00    +0.000 A 
ATOM     28  C   UNL     1       5.180   6.078  16.951  0.00  0.00    +0.000 A 
ENDBRANCH  22  23
ENDBRANCH  21  22
ENDBRANCH   6  21
TORSDOF 6
ENDMDL
MODEL 9
REMARK VINA RESULT:      -6.0      1.868      6.645
REMARK  Name = 
REMARK  8 active torsions:
REMARK  status: ('A' for Active; 'I' for Inactive)
REMARK    1  A    between atoms: C_1  and  O_2
REMARK    2  A    between atoms: O_2  and  C_3
REMARK    3  A    between atoms: C_6  and  C_7
REMARK    4  A    between atoms: C_9  and  N_10
REMARK    5  A    between atoms: C_11  and  C_13
REMARK    6  A    between atoms: C_18  and  O_20
REMARK    7  A    between atoms: O_20  and  C_21
REMARK    8  A    between atoms: C_21  and  C_22
REMARK                            x       y       z     vdW  Elec       q    Type
REMARK                         _______ _______ _______ _____ _____    ______ ____
ROOT
ATOM      1  C   UNL     1       2.319   3.920  20.397  0.00  0.00    +0.000 C 
ATOM      2  C   UNL     1       2.005   3.064  21.645  0.00  0.00    +0.000 C 
ATOM      3  C   UNL     1       2.961   1.889  21.541  0.00  0.00    +0.000 C 
ATOM      4  C   UNL     1       4.166   2.457  20.813  0.00  0.00    +0.000 C 
ATOM      5  N   UNL     1       3.769   3.773  20.323  0.00  0.00    +0.000 N 
ATOM      6  C   UNL     1       4.602   4.361  19.400  0.00  0.00    +0.000 C 
ATOM      7  O   UNL     1       5.759   3.990  19.210  0.00  0.00    +0.000 OA
ENDROOT
BRANCH   1   9
ATOM      8  N   UNL     1       2.128   6.401  20.844  0.00  0.00    +0.000 N 
ATOM      9  C   UNL     1       1.484   5.216  20.559  0.00  0.00    +0.000 C 
ATOM     10  O   UNL     1       0.263   5.108  20.396  0.00  0.00    +0.000 OA
ATOM     11  H   UNL     1       3.136   6.378  20.978  0.00  0.00    +0.000 HD
BRANCH   8  18
ATOM     12  C   UNL     1       1.600   8.524  19.719  0.00  0.00    +0.000 A 
ATOM     13  C   UNL     1       0.948   9.770  19.716  0.00  0.00    +0.000 A 
ATOM     14  C   UNL     1       0.264  10.231  20.841  0.00  0.00    +0.000 A 
ATOM     15  C   UNL     1       0.228   9.453  21.994  0.00  0.00    +0.000 A 
ATOM     16  C   UNL     1      -0.537   9.897  23.202  0.00  0.00    +0.000 C 
ATOM     17  C   UNL     1       0.862   8.203  21.991  0.00  0.00    +0.000 A 
ATOM     18  C   UNL     1       1.541   7.704  20.864  0.00  0.00    +0.000 A 
BRANCH  12  20
ATOM     19  C   UNL     1       2.303   8.906  17.488  0.00  0.00    +0.000 C 
ATOM     20  O   UNL     1       2.298   8.045  18.628  0.00  0.00    +0.000 OA
ENDBRANCH  12  20
ENDBRANCH   8  18
ENDBRANCH   1   9
BRANCH   6  21
ATOM     21  O   UNL     1       4.030   5.422  18.790  0.00  0.00    +0.000 OA
BRANCH  21  22
ATOM     22  C   UNL     1       3.606   5.206  17.439  0.00  0.00    +0.000 C 
BRANCH  22  23
ATOM     23  C   UNL     1       4.788   5.125  16.507  0.00  0.00    +0.000 A 
ATOM     24  C   UNL     1       5.801   6.093  16.539  0.00  0.00    +0.000 A 
ATOM     25  C   UNL     1       6.938   5.951  15.742  0.00  0.00    +0.000 A 
ATOM     26  C   UNL     1       7.075   4.843  14.907  0.00  0.00    +0.000 A 
ATOM     27  C   UNL     1       6.066   3.884  14.854  0.00  0.00    +0.000 A 
ATOM     28  C   UNL     1       4.927   4.025  15.647  0.00  0.00    +0.000 A 
ENDBRANCH  22  23
ENDBRANCH  21  22
ENDBRANCH   6  21
TORSDOF 6
ENDMDL
