MODEL 1
REMARK VINA RESULT:      -8.5      0.000      0.000
REMARK  Name = 
REMARK  5 active torsions:
REMARK  status: ('A' for Active; 'I' for Inactive)
REMARK    1  A    between atoms: N_1  and  S_2
REMARK    2  A    between atoms: S_2  and  C_5
REMARK    3  A    between atoms: C_8  and  N_9
REMARK    4  A    between atoms: N_9  and  C_10
REMARK    5  A    between atoms: C_10  and  C_11
REMARK                            x       y       z     vdW  Elec       q    Type
REMARK                         _______ _______ _______ _____ _____    ______ ____
ROOT
ATOM      1  C   UNL     1       1.830   5.030  20.347  0.00  0.00    +0.000 A 
ATOM      2  C   UNL     1       0.861   4.029  20.560  0.00  0.00    +0.000 A 
ATOM      3  C   UNL     1       0.997   2.759  19.993  0.00  0.00    +0.000 A 
ATOM      4  C   UNL     1       2.054   2.500  19.127  0.00  0.00    +0.000 A 
ATOM      5  C   UNL     1       2.992   3.503  18.874  0.00  0.00    +0.000 A 
ATOM      6  C   UNL     1       3.977   3.332  17.799  0.00  0.00    +0.000 A 
ATOM      7  O   UNL     1       4.049   2.304  17.141  0.00  0.00    +0.000 OA
ATOM      8  C   UNL     1       4.861   4.472  17.533  0.00  0.00    +0.000 A 
ATOM      9  C   UNL     1       5.685   4.494  16.405  0.00  0.00    +0.000 A 
ATOM     10  C   UNL     1       6.626   5.514  16.268  0.00  0.00    +0.000 A 
ATOM     11  C   UNL     1       6.761   6.468  17.278  0.00  0.00    +0.000 A 
ATOM     12 CL   UNL     1       8.013   7.641  17.173  0.00  0.00    +0.000 Cl
ATOM     13  C   UNL     1       5.888   6.480  18.369  0.00  0.00    +0.000 A 
ATOM     14  C   UNL     1       4.891   5.509  18.461  0.00  0.00    +0.000 A 
ATOM     15  O   UNL     1       3.952   5.662  19.452  0.00  0.00    +0.000 OA
ATOM     16  C   UNL     1       2.940   4.730  19.541  0.00  0.00    +0.000 A 
ENDROOT
BRANCH   1  17
ATOM     17  C   UNL     1       1.582   6.428  20.880  0.00  0.00    +0.000 C 
BRANCH  17  18
ATOM     18  N   UNL     1       2.052   7.400  19.892  0.00  0.00    +0.000 N 
ATOM     19  H   UNL     1       3.061   7.530  19.950  0.00  0.00    +0.000 HD
BRANCH  18  23
ATOM     20  C   UNL     1      -0.072  10.996  19.279  0.00  0.00    +0.000 A 
ATOM     21  C   UNL     1       0.780  10.501  18.293  0.00  0.00    +0.000 A 
ATOM     22  C   UNL     1       1.483   9.312  18.527  0.00  0.00    +0.000 A 
ATOM     23  C   UNL     1       1.387   8.624  19.749  0.00  0.00    +0.000 A 
ATOM     24  C   UNL     1       0.506   9.133  20.713  0.00  0.00    +0.000 A 
ATOM     25  C   UNL     1      -0.213  10.315  20.489  0.00  0.00    +0.000 A 
BRANCH  20  26
ATOM     26  S   UNL     1      -1.004  12.471  18.984  0.00  0.00    +0.000 S 
ATOM     27  O   UNL     1      -0.101  13.604  19.022  0.00  0.00    +0.000 OA
ATOM     28  O   UNL     1      -2.226  12.426  19.750  0.00  0.00    +0.000 OA
BRANCH  26  29
ATOM     29  N   UNL     1      -1.478  12.293  17.382  0.00  0.00    +0.000 NA
ATOM     30  H   UNL     1      -2.368  11.799  17.342  0.00  0.00    +0.000 HD
ATOM     31  H   UNL     1      -0.734  11.843  16.851  0.00  0.00    +0.000 HD
ENDBRANCH  26  29
ENDBRANCH  20  26
ENDBRANCH  18  23
ENDBRANCH  17  18
ENDBRANCH   1  17
TORSDOF 5
ENDMDL
MODEL 2
REMARK VINA RESULT:      -8.4      2.388      3.464
REMARK  Name = 
REMARK  5 active torsions:
REMARK  status: ('A' for Active; 'I' for Inactive)
REMARK    1  A    between atoms: N_1  and  S_2
REMARK    2  A    between atoms: S_2  and  C_5
REMARK    3  A    between atoms: C_8  and  N_9
REMARK    4  A    between atoms: N_9  and  C_10
REMARK    5  A    between atoms: C_10  and  C_11
REMARK                            x       y       z     vdW  Elec       q    Type
REMARK                         _______ _______ _______ _____ _____    ______ ____
ROOT
ATOM      1  C   UNL     1       1.866   8.507  18.911  0.00  0.00    +0.000 A 
ATOM      2  C   UNL     1       1.082   8.582  20.079  0.00  0.00    +0.000 A 
ATOM      3  C   UNL     1       1.120   7.571  21.042  0.00  0.00    +0.000 A 
ATOM      4  C   UNL     1       1.869   6.423  20.808  0.00  0.00    +0.000 A 
ATOM      5  C   UNL     1       2.611   6.320  19.630  0.00  0.00    +0.000 A 
ATOM      6  C   UNL     1       3.221   5.037  19.257  0.00  0.00    +0.000 A 
ATOM      7  O   UNL     1       3.154   4.051  19.977  0.00  0.00    +0.000 OA
ATOM      8  C   UNL     1       3.899   4.988  17.957  0.00  0.00    +0.000 A 
ATOM      9  C   UNL     1       4.327   3.774  17.415  0.00  0.00    +0.000 A 
ATOM     10  C   UNL     1       5.107   3.779  16.260  0.00  0.00    +0.000 A 
ATOM     11  C   UNL     1       5.486   4.996  15.690  0.00  0.00    +0.000 A 
ATOM     12 CL   UNL     1       6.561   5.004  14.348  0.00  0.00    +0.000 Cl
ATOM     13  C   UNL     1       4.998   6.203  16.195  0.00  0.00    +0.000 A 
ATOM     14  C   UNL     1       4.148   6.191  17.301  0.00  0.00    +0.000 A 
ATOM     15  O   UNL     1       3.556   7.380  17.654  0.00  0.00    +0.000 OA
ATOM     16  C   UNL     1       2.688   7.382  18.725  0.00  0.00    +0.000 A 
ENDROOT
BRANCH   1  17
ATOM     17  C   UNL     1       1.703   9.565  17.838  0.00  0.00    +0.000 C 
BRANCH  17  18
ATOM     18  N   UNL     1       1.099  10.756  18.438  0.00  0.00    +0.000 N 
ATOM     19  H   UNL     1       1.507  10.960  19.348  0.00  0.00    +0.000 HD
BRANCH  18  23
ATOM     20  C   UNL     1      -3.075  11.385  18.433  0.00  0.00    +0.000 A 
ATOM     21  C   UNL     1      -2.248  12.133  19.269  0.00  0.00    +0.000 A 
ATOM     22  C   UNL     1      -0.868  11.895  19.261  0.00  0.00    +0.000 A 
ATOM     23  C   UNL     1      -0.295  10.890  18.462  0.00  0.00    +0.000 A 
ATOM     24  C   UNL     1      -1.148  10.169  17.616  0.00  0.00    +0.000 A 
ATOM     25  C   UNL     1      -2.530  10.404  17.604  0.00  0.00    +0.000 A 
BRANCH  20  26
ATOM     26  S   UNL     1      -4.816  11.702  18.396  0.00  0.00    +0.000 S 
ATOM     27  O   UNL     1      -5.116  12.749  19.352  0.00  0.00    +0.000 OA
ATOM     28  O   UNL     1      -5.530  10.449  18.366  0.00  0.00    +0.000 OA
BRANCH  26  29
ATOM     29  N   UNL     1      -5.035  12.373  16.871  0.00  0.00    +0.000 NA
ATOM     30  H   UNL     1      -4.142  12.715  16.517  0.00  0.00    +0.000 HD
ATOM     31  H   UNL     1      -5.762  13.086  16.909  0.00  0.00    +0.000 HD
ENDBRANCH  26  29
ENDBRANCH  20  26
ENDBRANCH  18  23
ENDBRANCH  17  18
ENDBRANCH   1  17
TORSDOF 5
ENDMDL
MODEL 3
REMARK VINA RESULT:      -8.4      0.896      1.324
REMARK  Name = 
REMARK  5 active torsions:
REMARK  status: ('A' for Active; 'I' for Inactive)
REMARK    1  A    between atoms: N_1  and  S_2
REMARK    2  A    between atoms: S_2  and  C_5
REMARK    3  A    between atoms: C_8  and  N_9
REMARK    4  A    between atoms: N_9  and  C_10
REMARK    5  A    between atoms: C_10  and  C_11
REMARK                            x       y       z     vdW  Elec       q    Type
REMARK                         _______ _______ _______ _____ _____    ______ ____
ROOT
ATOM      1  C   UNL     1       1.960   4.299  19.933  0.00  0.00    +0.000 A 
ATOM      2  C   UNL     1       0.966   3.331  19.686  0.00  0.00    +0.000 A 
ATOM      3  C   UNL     1       1.158   2.322  18.738  0.00  0.00    +0.000 A 
ATOM      4  C   UNL     1       2.307   2.321  17.955  0.00  0.00    +0.000 A 
ATOM      5  C   UNL     1       3.275   3.307  18.161  0.00  0.00    +0.000 A 
ATOM      6  C   UNL     1       4.378   3.462  17.204  0.00  0.00    +0.000 A 
ATOM      7  O   UNL     1       4.519   2.714  16.247  0.00  0.00    +0.000 OA
ATOM      8  C   UNL     1       5.295   4.582  17.439  0.00  0.00    +0.000 A 
ATOM      9  C   UNL     1       6.246   4.946  16.482  0.00  0.00    +0.000 A 
ATOM     10  C   UNL     1       7.204   5.907  16.802  0.00  0.00    +0.000 A 
ATOM     11  C   UNL     1       7.226   6.456  18.085  0.00  0.00    +0.000 A 
ATOM     12 CL   UNL     1       8.491   7.537  18.522  0.00  0.00    +0.000 Cl
ATOM     13  C   UNL     1       6.232   6.140  19.015  0.00  0.00    +0.000 A 
ATOM     14  C   UNL     1       5.225   5.243  18.663  0.00  0.00    +0.000 A 
ATOM     15  O   UNL     1       4.177   5.096  19.540  0.00  0.00    +0.000 OA
ATOM     16  C   UNL     1       3.155   4.237  19.197  0.00  0.00    +0.000 A 
ENDROOT
BRANCH   1  17
ATOM     17  C   UNL     1       1.662   5.445  20.880  0.00  0.00    +0.000 C 
BRANCH  17  18
ATOM     18  N   UNL     1       2.418   6.622  20.449  0.00  0.00    +0.000 N 
ATOM     19  H   UNL     1       3.164   6.844  21.105  0.00  0.00    +0.000 HD
BRANCH  18  23
ATOM     20  C   UNL     1       0.482  10.219  19.384  0.00  0.00    +0.000 A 
ATOM     21  C   UNL     1       0.333   9.687  20.664  0.00  0.00    +0.000 A 
ATOM     22  C   UNL     1       0.975   8.485  20.987  0.00  0.00    +0.000 A 
ATOM     23  C   UNL     1       1.735   7.775  20.041  0.00  0.00    +0.000 A 
ATOM     24  C   UNL     1       1.886   8.344  18.770  0.00  0.00    +0.000 A 
ATOM     25  C   UNL     1       1.258   9.553  18.435  0.00  0.00    +0.000 A 
BRANCH  20  26
ATOM     26  S   UNL     1      -0.285  11.760  18.971  0.00  0.00    +0.000 S 
ATOM     27  O   UNL     1       0.748  12.703  18.592  0.00  0.00    +0.000 OA
ATOM     28  O   UNL     1      -1.297  12.069  19.952  0.00  0.00    +0.000 OA
BRANCH  26  29
ATOM     29  N   UNL     1      -1.128  11.386  17.567  0.00  0.00    +0.000 NA
ATOM     30  H   UNL     1      -0.493  10.964  16.890  0.00  0.00    +0.000 HD
ATOM     31  H   UNL     1      -1.606  12.217  17.220  0.00  0.00    +0.000 HD
ENDBRANCH  26  29
ENDBRANCH  20  26
ENDBRANCH  18  23
ENDBRANCH  17  18
ENDBRANCH   1  17
TORSDOF 5
ENDMDL
MODEL 4
REMARK VINA RESULT:      -8.3      2.431      3.304
REMARK  Name = 
REMARK  5 active torsions:
REMARK  status: ('A' for Active; 'I' for Inactive)
REMARK    1  A    between atoms: N_1  and  S_2
REMARK    2  A    between atoms: S_2  and  C_5
REMARK    3  A    between atoms: C_8  and  N_9
REMARK    4  A    between atoms: N_9  and  C_10
REMARK    5  A    between atoms: C_10  and  C_11
REMARK                            x       y       z     vdW  Elec       q    Type
REMARK                         _______ _______ _______ _____ _____    ______ ____
ROOT
ATOM      1  C   UNL     1       1.982   8.221  19.042  0.00  0.00    +0.000 A 
ATOM      2  C   UNL     1       1.202   8.195  20.215  0.00  0.00    +0.000 A 
ATOM      3  C   UNL     1       1.247   7.107  21.091  0.00  0.00    +0.000 A 
ATOM      4  C   UNL     1       2.001   5.986  20.759  0.00  0.00    +0.000 A 
ATOM      5  C   UNL     1       2.738   5.985  19.573  0.00  0.00    +0.000 A 
ATOM      6  C   UNL     1       3.352   4.741  19.093  0.00  0.00    +0.000 A 
ATOM      7  O   UNL     1       3.291   3.698  19.728  0.00  0.00    +0.000 OA
ATOM      8  C   UNL     1       4.025   4.803  17.791  0.00  0.00    +0.000 A 
ATOM      9  C   UNL     1       4.456   3.640  17.148  0.00  0.00    +0.000 A 
ATOM     10  C   UNL     1       5.231   3.745  15.995  0.00  0.00    +0.000 A 
ATOM     11  C   UNL     1       5.603   5.007  15.526  0.00  0.00    +0.000 A 
ATOM     12 CL   UNL     1       6.673   5.132  14.186  0.00  0.00    +0.000 Cl
ATOM     13  C   UNL     1       5.112   6.166  16.133  0.00  0.00    +0.000 A 
ATOM     14  C   UNL     1       4.266   6.057  17.236  0.00  0.00    +0.000 A 
ATOM     15  O   UNL     1       3.671   7.210  17.690  0.00  0.00    +0.000 OA
ATOM     16  C   UNL     1       2.807   7.120  18.760  0.00  0.00    +0.000 A 
ENDROOT
BRANCH   1  17
ATOM     17  C   UNL     1       1.810   9.365  18.061  0.00  0.00    +0.000 C 
BRANCH  17  18
ATOM     18  N   UNL     1       1.198  10.496  18.760  0.00  0.00    +0.000 N 
ATOM     19  H   UNL     1       1.408  10.474  19.757  0.00  0.00    +0.000 HD
BRANCH  18  23
ATOM     20  C   UNL     1      -2.911  11.228  18.129  0.00  0.00    +0.000 A 
ATOM     21  C   UNL     1      -2.247  10.245  17.398  0.00  0.00    +0.000 A 
ATOM     22  C   UNL     1      -0.880  10.031  17.617  0.00  0.00    +0.000 A 
ATOM     23  C   UNL     1      -0.146  10.812  18.527  0.00  0.00    +0.000 A 
ATOM     24  C   UNL     1      -0.844  11.779  19.263  0.00  0.00    +0.000 A 
ATOM     25  C   UNL     1      -2.214  11.996  19.063  0.00  0.00    +0.000 A 
BRANCH  20  26
ATOM     26  S   UNL     1      -4.647  11.482  17.898  0.00  0.00    +0.000 S 
ATOM     27  O   UNL     1      -5.360  10.369  18.494  0.00  0.00    +0.000 OA
ATOM     28  O   UNL     1      -4.890  11.927  16.547  0.00  0.00    +0.000 OA
BRANCH  26  29
ATOM     29  N   UNL     1      -4.955  12.819  18.867  0.00  0.00    +0.000 NA
ATOM     30  H   UNL     1      -5.118  12.515  19.827  0.00  0.00    +0.000 HD
ATOM     31  H   UNL     1      -5.722  13.362  18.472  0.00  0.00    +0.000 HD
ENDBRANCH  26  29
ENDBRANCH  20  26
ENDBRANCH  18  23
ENDBRANCH  17  18
ENDBRANCH   1  17
TORSDOF 5
ENDMDL
MODEL 5
REMARK VINA RESULT:      -8.3      4.224      8.979
REMARK  Name = 
REMARK  5 active torsions:
REMARK  status: ('A' for Active; 'I' for Inactive)
REMARK    1  A    between atoms: N_1  and  S_2
REMARK    2  A    between atoms: S_2  and  C_5
REMARK    3  A    between atoms: C_8  and  N_9
REMARK    4  A    between atoms: N_9  and  C_10
REMARK    5  A    between atoms: C_10  and  C_11
REMARK                            x       y       z     vdW  Elec       q    Type
REMARK                         _______ _______ _______ _____ _____    ______ ____
ROOT
ATOM      1  C   UNL     1       0.729  10.422  19.286  0.00  0.00    +0.000 A 
ATOM      2  C   UNL     1       1.091  10.828  20.587  0.00  0.00    +0.000 A 
ATOM      3  C   UNL     1       0.144  11.351  21.471  0.00  0.00    +0.000 A 
ATOM      4  C   UNL     1      -1.161  11.565  21.037  0.00  0.00    +0.000 A 
ATOM      5  C   UNL     1      -1.514  11.210  19.734  0.00  0.00    +0.000 A 
ATOM      6  C   UNL     1      -2.809  11.632  19.184  0.00  0.00    +0.000 A 
ATOM      7  O   UNL     1      -3.630  12.245  19.852  0.00  0.00    +0.000 OA
ATOM      8  C   UNL     1      -3.061  11.303  17.777  0.00  0.00    +0.000 A 
ATOM      9  C   UNL     1      -4.161  11.837  17.101  0.00  0.00    +0.000 A 
ATOM     10  C   UNL     1      -4.460  11.379  15.818  0.00  0.00    +0.000 A 
ATOM     11  C   UNL     1      -3.687  10.366  15.250  0.00  0.00    +0.000 A 
ATOM     12 CL   UNL     1      -4.141   9.707  13.727  0.00  0.00    +0.000 Cl
ATOM     13  C   UNL     1      -2.548   9.886  15.902  0.00  0.00    +0.000 A 
ATOM     14  C   UNL     1      -2.201  10.407  17.148  0.00  0.00    +0.000 A 
ATOM     15  O   UNL     1      -0.986  10.034  17.671  0.00  0.00    +0.000 OA
ATOM     16  C   UNL     1      -0.611  10.561  18.887  0.00  0.00    +0.000 A 
ENDROOT
BRANCH   1  17
ATOM     17  C   UNL     1       1.810   9.974  18.321  0.00  0.00    +0.000 C 
BRANCH  17  18
ATOM     18  N   UNL     1       1.540   8.592  17.920  0.00  0.00    +0.000 N 
ATOM     19  H   UNL     1       0.637   8.274  18.268  0.00  0.00    +0.000 HD
BRANCH  18  23
ATOM     20  C   UNL     1       4.676   5.819  18.465  0.00  0.00    +0.000 A 
ATOM     21  C   UNL     1       4.686   6.694  17.380  0.00  0.00    +0.000 A 
ATOM     22  C   UNL     1       3.626   7.596  17.215  0.00  0.00    +0.000 A 
ATOM     23  C   UNL     1       2.527   7.614  18.092  0.00  0.00    +0.000 A 
ATOM     24  C   UNL     1       2.555   6.738  19.185  0.00  0.00    +0.000 A 
ATOM     25  C   UNL     1       3.614   5.838  19.370  0.00  0.00    +0.000 A 
BRANCH  20  26
ATOM     26  S   UNL     1       6.028   4.704  18.715  0.00  0.00    +0.000 S 
ATOM     27  O   UNL     1       6.822   5.184  19.829  0.00  0.00    +0.000 OA
ATOM     28  O   UNL     1       6.606   4.359  17.439  0.00  0.00    +0.000 OA
BRANCH  26  29
ATOM     29  N   UNL     1       5.259   3.308  19.246  0.00  0.00    +0.000 NA
ATOM     30  H   UNL     1       4.863   2.812  18.448  0.00  0.00    +0.000 HD
ATOM     31  H   UNL     1       4.575   3.542  19.964  0.00  0.00    +0.000 HD
ENDBRANCH  26  29
ENDBRANCH  20  26
ENDBRANCH  18  23
ENDBRANCH  17  18
ENDBRANCH   1  17
TORSDOF 5
ENDMDL
MODEL 6
REMARK VINA RESULT:      -8.3      2.427      3.245
REMARK  Name = 
REMARK  5 active torsions:
REMARK  status: ('A' for Active; 'I' for Inactive)
REMARK    1  A    between atoms: N_1  and  S_2
REMARK    2  A    between atoms: S_2  and  C_5
REMARK    3  A    between atoms: C_8  and  N_9
REMARK    4  A    between atoms: N_9  and  C_10
REMARK    5  A    between atoms: C_10  and  C_11
REMARK                            x       y       z     vdW  Elec       q    Type
REMARK                         _______ _______ _______ _____ _____    ______ ____
ROOT
ATOM      1  C   UNL     1       2.218   7.922  18.782  0.00  0.00    +0.000 A 
ATOM      2  C   UNL     1       1.462   7.842  19.969  0.00  0.00    +0.000 A 
ATOM      3  C   UNL     1       1.565   6.739  20.820  0.00  0.00    +0.000 A 
ATOM      4  C   UNL     1       2.355   5.655  20.451  0.00  0.00    +0.000 A 
ATOM      5  C   UNL     1       3.070   5.707  19.253  0.00  0.00    +0.000 A 
ATOM      6  C   UNL     1       3.722   4.497  18.736  0.00  0.00    +0.000 A 
ATOM      7  O   UNL     1       3.714   3.440  19.350  0.00  0.00    +0.000 OA
ATOM      8  C   UNL     1       4.368   4.613  17.424  0.00  0.00    +0.000 A 
ATOM      9  C   UNL     1       4.832   3.481  16.749  0.00  0.00    +0.000 A 
ATOM     10  C   UNL     1       5.581   3.639  15.584  0.00  0.00    +0.000 A 
ATOM     11  C   UNL     1       5.895   4.924  15.136  0.00  0.00    +0.000 A 
ATOM     12 CL   UNL     1       6.934   5.118  13.780  0.00  0.00    +0.000 Cl
ATOM     13  C   UNL     1       5.371   6.050  15.775  0.00  0.00    +0.000 A 
ATOM     14  C   UNL     1       4.551   5.886  16.891  0.00  0.00    +0.000 A 
ATOM     15  O   UNL     1       3.920   7.005  17.380  0.00  0.00    +0.000 OA
ATOM     16  C   UNL     1       3.080   6.860  18.463  0.00  0.00    +0.000 A 
ENDROOT
BRANCH   1  17
ATOM     17  C   UNL     1       1.984   9.078  17.829  0.00  0.00    +0.000 C 
BRANCH  17  18
ATOM     18  N   UNL     1       1.326  10.164  18.558  0.00  0.00    +0.000 N 
ATOM     19  H   UNL     1       1.602  10.173  19.538  0.00  0.00    +0.000 HD
BRANCH  18  23
ATOM     20  C   UNL     1      -2.784  10.983  18.054  0.00  0.00    +0.000 A 
ATOM     21  C   UNL     1      -2.033  11.684  18.995  0.00  0.00    +0.000 A 
ATOM     22  C   UNL     1      -0.674  11.384  19.152  0.00  0.00    +0.000 A 
ATOM     23  C   UNL     1      -0.053  10.361  18.414  0.00  0.00    +0.000 A 
ATOM     24  C   UNL     1      -0.827   9.687  17.460  0.00  0.00    +0.000 A 
ATOM     25  C   UNL     1      -2.185   9.985  17.283  0.00  0.00    +0.000 A 
BRANCH  20  26
ATOM     26  S   UNL     1      -4.492  11.379  17.809  0.00  0.00    +0.000 S 
ATOM     27  O   UNL     1      -5.299  10.346  18.427  0.00  0.00    +0.000 OA
ATOM     28  O   UNL     1      -4.691  11.813  16.448  0.00  0.00    +0.000 OA
BRANCH  26  29
ATOM     29  N   UNL     1      -4.686  12.760  18.747  0.00  0.00    +0.000 NA
ATOM     30  H   UNL     1      -5.632  12.785  19.126  0.00  0.00    +0.000 HD
ATOM     31  H   UNL     1      -4.441  13.585  18.200  0.00  0.00    +0.000 HD
ENDBRANCH  26  29
ENDBRANCH  20  26
ENDBRANCH  18  23
ENDBRANCH  17  18
ENDBRANCH   1  17
TORSDOF 5
ENDMDL
MODEL 7
REMARK VINA RESULT:      -8.3      1.447      1.800
REMARK  Name = 
REMARK  5 active torsions:
REMARK  status: ('A' for Active; 'I' for Inactive)
REMARK    1  A    between atoms: N_1  and  S_2
REMARK    2  A    between atoms: S_2  and  C_5
REMARK    3  A    between atoms: C_8  and  N_9
REMARK    4  A    between atoms: N_9  and  C_10
REMARK    5  A    between atoms: C_10  and  C_11
REMARK                            x       y       z     vdW  Elec       q    Type
REMARK                         _______ _______ _______ _____ _____    ______ ____
ROOT
ATOM      1  C   UNL     1       2.007   4.616  20.400  0.00  0.00    +0.000 A 
ATOM      2  C   UNL     1       1.051   3.586  20.501  0.00  0.00    +0.000 A 
ATOM      3  C   UNL     1       1.159   2.421  19.736  0.00  0.00    +0.000 A 
ATOM      4  C   UNL     1       2.173   2.309  18.790  0.00  0.00    +0.000 A 
ATOM      5  C   UNL     1       3.095   3.348  18.651  0.00  0.00    +0.000 A 
ATOM      6  C   UNL     1       4.025   3.355  17.514  0.00  0.00    +0.000 A 
ATOM      7  O   UNL     1       4.066   2.443  16.701  0.00  0.00    +0.000 OA
ATOM      8  C   UNL     1       4.894   4.530  17.386  0.00  0.00    +0.000 A 
ATOM      9  C   UNL     1       5.660   4.736  16.237  0.00  0.00    +0.000 A 
ATOM     10  C   UNL     1       6.592   5.773  16.214  0.00  0.00    +0.000 A 
ATOM     11  C   UNL     1       6.776   6.559  17.353  0.00  0.00    +0.000 A 
ATOM     12 CL   UNL     1       8.021   7.745  17.372  0.00  0.00    +0.000 Cl
ATOM     13  C   UNL     1       5.959   6.393  18.474  0.00  0.00    +0.000 A 
ATOM     14  C   UNL     1       4.969   5.411  18.463  0.00  0.00    +0.000 A 
ATOM     15  O   UNL     1       4.081   5.399  19.511  0.00  0.00    +0.000 OA
ATOM     16  C   UNL     1       3.076   4.455  19.503  0.00  0.00    +0.000 A 
ENDROOT
BRANCH   1  17
ATOM     17  C   UNL     1       1.784   5.912  21.156  0.00  0.00    +0.000 C 
BRANCH  17  18
ATOM     18  N   UNL     1       1.947   7.033  20.228  0.00  0.00    +0.000 N 
ATOM     19  H   UNL     1       2.921   7.149  19.955  0.00  0.00    +0.000 HD
BRANCH  18  23
ATOM     20  C   UNL     1       0.319  10.794  21.239  0.00  0.00    +0.000 A 
ATOM     21  C   UNL     1       0.502   9.817  22.215  0.00  0.00    +0.000 A 
ATOM     22  C   UNL     1       1.031   8.573  21.851  0.00  0.00    +0.000 A 
ATOM     23  C   UNL     1       1.346   8.265  20.516  0.00  0.00    +0.000 A 
ATOM     24  C   UNL     1       1.172   9.274  19.559  0.00  0.00    +0.000 A 
ATOM     25  C   UNL     1       0.654  10.528  19.911  0.00  0.00    +0.000 A 
BRANCH  20  26
ATOM     26  S   UNL     1      -0.306  12.388  21.687  0.00  0.00    +0.000 S 
ATOM     27  O   UNL     1      -0.640  12.374  23.097  0.00  0.00    +0.000 OA
ATOM     28  O   UNL     1      -1.228  12.842  20.674  0.00  0.00    +0.000 OA
BRANCH  26  29
ATOM     29  N   UNL     1       1.046  13.372  21.528  0.00  0.00    +0.000 NA
ATOM     30  H   UNL     1       1.891  12.809  21.620  0.00  0.00    +0.000 HD
ATOM     31  H   UNL     1       0.992  14.143  22.192  0.00  0.00    +0.000 HD
ENDBRANCH  26  29
ENDBRANCH  20  26
ENDBRANCH  18  23
ENDBRANCH  17  18
ENDBRANCH   1  17
TORSDOF 5
ENDMDL
MODEL 8
REMARK VINA RESULT:      -8.2      2.500      3.843
REMARK  Name = 
REMARK  5 active torsions:
REMARK  status: ('A' for Active; 'I' for Inactive)
REMARK    1  A    between atoms: N_1  and  S_2
REMARK    2  A    between atoms: S_2  and  C_5
REMARK    3  A    between atoms: C_8  and  N_9
REMARK    4  A    between atoms: N_9  and  C_10
REMARK    5  A    between atoms: C_10  and  C_11
REMARK                            x       y       z     vdW  Elec       q    Type
REMARK                         _______ _______ _______ _____ _____    ______ ____
ROOT
ATOM      1  C   UNL     1       1.450   9.079  19.341  0.00  0.00    +0.000 A 
ATOM      2  C   UNL     1       0.660   9.191  20.502  0.00  0.00    +0.000 A 
ATOM      3  C   UNL     1       0.656   8.187  21.474  0.00  0.00    +0.000 A 
ATOM      4  C   UNL     1       1.369   7.013  21.256  0.00  0.00    +0.000 A 
ATOM      5  C   UNL     1       2.116   6.876  20.084  0.00  0.00    +0.000 A 
ATOM      6  C   UNL     1       2.685   5.570  19.727  0.00  0.00    +0.000 A 
ATOM      7  O   UNL     1       2.580   4.593  20.455  0.00  0.00    +0.000 OA
ATOM      8  C   UNL     1       3.371   5.487  18.433  0.00  0.00    +0.000 A 
ATOM      9  C   UNL     1       3.762   4.254  17.904  0.00  0.00    +0.000 A 
ATOM     10  C   UNL     1       4.550   4.224  16.755  0.00  0.00    +0.000 A 
ATOM     11  C   UNL     1       4.973   5.422  16.178  0.00  0.00    +0.000 A 
ATOM     12 CL   UNL     1       6.058   5.382  14.844  0.00  0.00    +0.000 Cl
ATOM     13  C   UNL     1       4.522   6.649  16.669  0.00  0.00    +0.000 A 
ATOM     14  C   UNL     1       3.664   6.675  17.768  0.00  0.00    +0.000 A 
ATOM     15  O   UNL     1       3.110   7.886  18.107  0.00  0.00    +0.000 OA
ATOM     16  C   UNL     1       2.235   7.927  19.171  0.00  0.00    +0.000 A 
ENDROOT
BRANCH   1  17
ATOM     17  C   UNL     1       1.330  10.133  18.257  0.00  0.00    +0.000 C 
BRANCH  17  18
ATOM     18  N   UNL     1       0.207   9.786  17.384  0.00  0.00    +0.000 N 
ATOM     19  H   UNL     1       0.466   9.855  16.402  0.00  0.00    +0.000 HD
BRANCH  18  23
ATOM     20  C   UNL     1      -3.664  11.266  18.193  0.00  0.00    +0.000 A 
ATOM     21  C   UNL     1      -3.483  10.195  17.319  0.00  0.00    +0.000 A 
ATOM     22  C   UNL     1      -2.188   9.732  17.058  0.00  0.00    +0.000 A 
ATOM     23  C   UNL     1      -1.055  10.346  17.621  0.00  0.00    +0.000 A 
ATOM     24  C   UNL     1      -1.268  11.406  18.513  0.00  0.00    +0.000 A 
ATOM     25  C   UNL     1      -2.559  11.873  18.793  0.00  0.00    +0.000 A 
BRANCH  20  26
ATOM     26  S   UNL     1      -5.296  11.835  18.571  0.00  0.00    +0.000 S 
ATOM     27  O   UNL     1      -5.221  12.731  19.708  0.00  0.00    +0.000 OA
ATOM     28  O   UNL     1      -6.215  10.724  18.517  0.00  0.00    +0.000 OA
BRANCH  26  29
ATOM     29  N   UNL     1      -5.672  12.787  17.238  0.00  0.00    +0.000 NA
ATOM     30  H   UNL     1      -4.886  12.789  16.588  0.00  0.00    +0.000 HD
ATOM     31  H   UNL     1      -5.953  13.716  17.547  0.00  0.00    +0.000 HD
ENDBRANCH  26  29
ENDBRANCH  20  26
ENDBRANCH  18  23
ENDBRANCH  17  18
ENDBRANCH   1  17
TORSDOF 5
ENDMDL
MODEL 9
REMARK VINA RESULT:      -8.2      1.589      1.996
REMARK  Name = 
REMARK  5 active torsions:
REMARK  status: ('A' for Active; 'I' for Inactive)
REMARK    1  A    between atoms: N_1  and  S_2
REMARK    2  A    between atoms: S_2  and  C_5
REMARK    3  A    between atoms: C_8  and  N_9
REMARK    4  A    between atoms: N_9  and  C_10
REMARK    5  A    between atoms: C_10  and  C_11
REMARK                            x       y       z     vdW  Elec       q    Type
REMARK                         _______ _______ _______ _____ _____    ______ ____
ROOT
ATOM      1  C   UNL     1       1.996   4.389  19.872  0.00  0.00    +0.000 A 
ATOM      2  C   UNL     1       1.016   3.406  19.631  0.00  0.00    +0.000 A 
ATOM      3  C   UNL     1       1.224   2.391  18.693  0.00  0.00    +0.000 A 
ATOM      4  C   UNL     1       2.376   2.398  17.914  0.00  0.00    +0.000 A 
ATOM      5  C   UNL     1       3.331   3.397  18.115  0.00  0.00    +0.000 A 
ATOM      6  C   UNL     1       4.435   3.558  17.160  0.00  0.00    +0.000 A 
ATOM      7  O   UNL     1       4.589   2.804  16.210  0.00  0.00    +0.000 OA
ATOM      8  C   UNL     1       5.337   4.693  17.388  0.00  0.00    +0.000 A 
ATOM      9  C   UNL     1       6.286   5.060  16.431  0.00  0.00    +0.000 A 
ATOM     10  C   UNL     1       7.230   6.035  16.746  0.00  0.00    +0.000 A 
ATOM     11  C   UNL     1       7.241   6.597  18.024  0.00  0.00    +0.000 A 
ATOM     12 CL   UNL     1       8.491   7.697  18.455  0.00  0.00    +0.000 Cl
ATOM     13  C   UNL     1       6.248   6.277  18.953  0.00  0.00    +0.000 A 
ATOM     14  C   UNL     1       5.253   5.363  18.606  0.00  0.00    +0.000 A 
ATOM     15  O   UNL     1       4.204   5.211  19.480  0.00  0.00    +0.000 OA
ATOM     16  C   UNL     1       3.195   4.335  19.141  0.00  0.00    +0.000 A 
ENDROOT
BRANCH   1  17
ATOM     17  C   UNL     1       1.680   5.539  20.808  0.00  0.00    +0.000 C 
BRANCH  17  18
ATOM     18  N   UNL     1       2.162   6.783  20.205  0.00  0.00    +0.000 N 
ATOM     19  H   UNL     1       3.169   6.885  20.319  0.00  0.00    +0.000 HD
BRANCH  18  23
ATOM     20  C   UNL     1       0.323  10.464  21.149  0.00  0.00    +0.000 A 
ATOM     21  C   UNL     1       0.494   9.487  22.128  0.00  0.00    +0.000 A 
ATOM     22  C   UNL     1       1.095   8.269  21.785  0.00  0.00    +0.000 A 
ATOM     23  C   UNL     1       1.494   7.986  20.467  0.00  0.00    +0.000 A 
ATOM     24  C   UNL     1       1.330   8.995  19.509  0.00  0.00    +0.000 A 
ATOM     25  C   UNL     1       0.740  10.223  19.839  0.00  0.00    +0.000 A 
BRANCH  20  26
ATOM     26  S   UNL     1      -0.393  12.026  21.572  0.00  0.00    +0.000 S 
ATOM     27  O   UNL     1      -1.555  12.245  20.734  0.00  0.00    +0.000 OA
ATOM     28  O   UNL     1       0.654  13.008  21.720  0.00  0.00    +0.000 OA
BRANCH  26  29
ATOM     29  N   UNL     1      -0.970  11.757  23.127  0.00  0.00    +0.000 NA
ATOM     30  H   UNL     1      -0.649  10.848  23.458  0.00  0.00    +0.000 HD
ATOM     31  H   UNL     1      -1.984  11.865  23.142  0.00  0.00    +0.000 HD
ENDBRANCH  26  29
ENDBRANCH  20  26
ENDBRANCH  18  23
ENDBRANCH  17  18
ENDBRANCH   1  17
TORSDOF 5
ENDMDL
