MODEL 1
REMARK VINA RESULT:      -8.0      0.000      0.000
REMARK  Name = 
REMARK  8 active torsions:
REMARK  status: ('A' for Active; 'I' for Inactive)
REMARK    1  A    between atoms: C_1  and  C_2
REMARK    2  A    between atoms: C_2  and  C_3
REMARK    3  A    between atoms: C_3  and  S_4
REMARK    4  A    between atoms: S_4  and  N_7
REMARK    5  A    between atoms: N_7  and  C_8
REMARK    6  A    between atoms: C_12  and  O_13
REMARK    7  A    between atoms: O_13  and  C_14
REMARK    8  A    between atoms: C_14  and  C_15
REMARK                            x       y       z     vdW  Elec       q    Type
REMARK                         _______ _______ _______ _____ _____    ______ ____
ROOT
ATOM      1  C   UNL     1       4.548   4.030  18.171  0.00  0.00    +0.000 A 
ATOM      2  C   UNL     1       3.849   2.950  17.632  0.00  0.00    +0.000 A 
ATOM      3  C   UNL     1       2.474   3.054  17.420  0.00  0.00    +0.000 A 
ATOM      4  C   UNL     1       1.802   4.225  17.775  0.00  0.00    +0.000 A 
ATOM      5  C   UNL     1       2.494   5.285  18.368  0.00  0.00    +0.000 A 
ATOM      6  C   UNL     1       3.876   5.193  18.549  0.00  0.00    +0.000 A 
ENDROOT
BRANCH   1   7
ATOM      7  N   UNL     1       5.960   3.946  18.379  0.00  0.00    +0.000 N 
ATOM      8  H   UNL     1       6.264   4.426  19.231  0.00  0.00    +0.000 HD
BRANCH   7   9
ATOM      9  S   UNL     1       6.954   4.501  17.115  0.00  0.00    +0.000 S 
ATOM     10  O   UNL     1       6.313   4.029  15.906  0.00  0.00    +0.000 OA
ATOM     11  O   UNL     1       8.342   4.220  17.404  0.00  0.00    +0.000 OA
BRANCH   9  12
ATOM     12  C   UNL     1       6.689   6.271  17.236  0.00  0.00    +0.000 C 
BRANCH  12  14
ATOM     13  C   UNL     1       7.997   8.354  17.796  0.00  0.00    +0.000 C 
ATOM     14  C   UNL     1       7.705   6.913  18.175  0.00  0.00    +0.000 C 
ENDBRANCH  12  14
ENDBRANCH   9  12
ENDBRANCH   7   9
ENDBRANCH   1   7
BRANCH   5  15
ATOM     15  O   UNL     1       1.722   6.360  18.719  0.00  0.00    +0.000 OA
BRANCH  15  16
ATOM     16  C   UNL     1       2.409   7.611  18.820  0.00  0.00    +0.000 C 
BRANCH  16  17
ATOM     17  C   UNL     1       1.577   8.530  19.661  0.00  0.00    +0.000 A 
ATOM     18  N   UNL     1       1.307   8.296  20.928  0.00  0.00    +0.000 NA
ATOM     19  C   UNL     1       0.494   9.292  21.431  0.00  0.00    +0.000 A 
ATOM     20  C   UNL     1      -0.024   9.340  22.741  0.00  0.00    +0.000 A 
ATOM     21  C   UNL     1      -0.858  10.395  23.118  0.00  0.00    +0.000 A 
ATOM     22  C   UNL     1      -1.166  11.406  22.214  0.00  0.00    +0.000 A 
ATOM     23  C   UNL     1      -0.649  11.389  20.913  0.00  0.00    +0.000 A 
ATOM     24  C   UNL     1       0.177  10.316  20.539  0.00  0.00    +0.000 A 
ATOM     25  S   UNL     1       0.946   9.997  19.029  0.00  0.00    +0.000 S 
ENDBRANCH  16  17
ENDBRANCH  15  16
ENDBRANCH   5  15
TORSDOF 7
ENDMDL
MODEL 2
REMARK VINA RESULT:      -7.8      1.203      1.420
REMARK  Name = 
REMARK  8 active torsions:
REMARK  status: ('A' for Active; 'I' for Inactive)
REMARK    1  A    between atoms: C_1  and  C_2
REMARK    2  A    between atoms: C_2  and  C_3
REMARK    3  A    between atoms: C_3  and  S_4
REMARK    4  A    between atoms: S_4  and  N_7
REMARK    5  A    between atoms: N_7  and  C_8
REMARK    6  A    between atoms: C_12  and  O_13
REMARK    7  A    between atoms: O_13  and  C_14
REMARK    8  A    between atoms: C_14  and  C_15
REMARK                            x       y       z     vdW  Elec       q    Type
REMARK                         _______ _______ _______ _____ _____    ______ ____
ROOT
ATOM      1  C   UNL     1       4.560   5.557  17.363  0.00  0.00    +0.000 A 
ATOM      2  C   UNL     1       3.816   4.405  17.107  0.00  0.00    +0.000 A 
ATOM      3  C   UNL     1       2.494   4.326  17.544  0.00  0.00    +0.000 A 
ATOM      4  C   UNL     1       1.933   5.385  18.259  0.00  0.00    +0.000 A 
ATOM      5  C   UNL     1       2.696   6.515  18.564  0.00  0.00    +0.000 A 
ATOM      6  C   UNL     1       4.010   6.608  18.096  0.00  0.00    +0.000 A 
ENDROOT
BRANCH   1   7
ATOM      7  N   UNL     1       5.911   5.662  16.907  0.00  0.00    +0.000 N 
ATOM      8  H   UNL     1       6.056   5.222  15.995  0.00  0.00    +0.000 HD
BRANCH   7   9
ATOM      9  S   UNL     1       7.118   5.063  17.945  0.00  0.00    +0.000 S 
ATOM     10  O   UNL     1       8.015   4.324  17.082  0.00  0.00    +0.000 OA
ATOM     11  O   UNL     1       6.524   4.467  19.119  0.00  0.00    +0.000 OA
BRANCH   9  12
ATOM     12  C   UNL     1       7.932   6.588  18.425  0.00  0.00    +0.000 C 
BRANCH  12  14
ATOM     13  C   UNL     1       8.120   9.057  17.942  0.00  0.00    +0.000 C 
ATOM     14  C   UNL     1       7.581   7.720  17.464  0.00  0.00    +0.000 C 
ENDBRANCH  12  14
ENDBRANCH   9  12
ENDBRANCH   7   9
ENDBRANCH   1   7
BRANCH   5  15
ATOM     15  O   UNL     1       2.056   7.465  19.312  0.00  0.00    +0.000 OA
BRANCH  15  16
ATOM     16  C   UNL     1       1.721   8.675  18.624  0.00  0.00    +0.000 C 
BRANCH  16  17
ATOM     17  C   UNL     1       0.872   9.507  19.536  0.00  0.00    +0.000 A 
ATOM     18  N   UNL     1       0.747   9.261  20.822  0.00  0.00    +0.000 NA
ATOM     19  C   UNL     1      -0.122  10.167  21.397  0.00  0.00    +0.000 A 
ATOM     20  C   UNL     1      -0.520  10.174  22.748  0.00  0.00    +0.000 A 
ATOM     21  C   UNL     1      -1.428  11.135  23.199  0.00  0.00    +0.000 A 
ATOM     22  C   UNL     1      -1.929  12.094  22.324  0.00  0.00    +0.000 A 
ATOM     23  C   UNL     1      -1.535  12.118  20.981  0.00  0.00    +0.000 A 
ATOM     24  C   UNL     1      -0.632  11.137  20.534  0.00  0.00    +0.000 A 
ATOM     25  S   UNL     1       0.025  10.886  18.961  0.00  0.00    +0.000 S 
ENDBRANCH  16  17
ENDBRANCH  15  16
ENDBRANCH   5  15
TORSDOF 7
ENDMDL
MODEL 3
REMARK VINA RESULT:      -7.8      1.683      2.216
REMARK  Name = 
REMARK  8 active torsions:
REMARK  status: ('A' for Active; 'I' for Inactive)
REMARK    1  A    between atoms: C_1  and  C_2
REMARK    2  A    between atoms: C_2  and  C_3
REMARK    3  A    between atoms: C_3  and  S_4
REMARK    4  A    between atoms: S_4  and  N_7
REMARK    5  A    between atoms: N_7  and  C_8
REMARK    6  A    between atoms: C_12  and  O_13
REMARK    7  A    between atoms: O_13  and  C_14
REMARK    8  A    between atoms: C_14  and  C_15
REMARK                            x       y       z     vdW  Elec       q    Type
REMARK                         _______ _______ _______ _____ _____    ______ ____
ROOT
ATOM      1  C   UNL     1       4.656   4.305  18.361  0.00  0.00    +0.000 A 
ATOM      2  C   UNL     1       3.938   3.119  18.205  0.00  0.00    +0.000 A 
ATOM      3  C   UNL     1       2.572   3.170  17.926  0.00  0.00    +0.000 A 
ATOM      4  C   UNL     1       1.926   4.404  17.834  0.00  0.00    +0.000 A 
ATOM      5  C   UNL     1       2.635   5.590  18.046  0.00  0.00    +0.000 A 
ATOM      6  C   UNL     1       4.010   5.540  18.292  0.00  0.00    +0.000 A 
ENDROOT
BRANCH   1   7
ATOM      7  N   UNL     1       6.059   4.272  18.630  0.00  0.00    +0.000 N 
ATOM      8  H   UNL     1       6.312   4.786  19.477  0.00  0.00    +0.000 HD
BRANCH   7   9
ATOM      9  S   UNL     1       7.090   4.817  17.391  0.00  0.00    +0.000 S 
ATOM     10  O   UNL     1       8.302   4.042  17.550  0.00  0.00    +0.000 OA
ATOM     11  O   UNL     1       7.107   6.261  17.348  0.00  0.00    +0.000 OA
BRANCH   9  12
ATOM     12  C   UNL     1       6.222   4.209  15.944  0.00  0.00    +0.000 C 
BRANCH  12  14
ATOM     13  C   UNL     1       6.366   3.924  13.442  0.00  0.00    +0.000 C 
ATOM     14  C   UNL     1       6.941   4.620  14.662  0.00  0.00    +0.000 C 
ENDBRANCH  12  14
ENDBRANCH   9  12
ENDBRANCH   7   9
ENDBRANCH   1   7
BRANCH   5  15
ATOM     15  O   UNL     1       1.886   6.734  17.980  0.00  0.00    +0.000 OA
BRANCH  15  16
ATOM     16  C   UNL     1       2.538   7.928  18.426  0.00  0.00    +0.000 C 
BRANCH  16  17
ATOM     17  C   UNL     1       1.695   8.541  19.502  0.00  0.00    +0.000 A 
ATOM     18  N   UNL     1       1.126   9.722  19.383  0.00  0.00    +0.000 NA
ATOM     19  C   UNL     1       0.445  10.040  20.541  0.00  0.00    +0.000 A 
ATOM     20  C   UNL     1      -0.245  11.245  20.778  0.00  0.00    +0.000 A 
ATOM     21  C   UNL     1      -0.877  11.452  22.007  0.00  0.00    +0.000 A 
ATOM     22  C   UNL     1      -0.841  10.469  22.991  0.00  0.00    +0.000 A 
ATOM     23  C   UNL     1      -0.177   9.256  22.771  0.00  0.00    +0.000 A 
ATOM     24  C   UNL     1       0.467   9.064  21.537  0.00  0.00    +0.000 A 
ATOM     25  S   UNL     1       1.373   7.711  20.971  0.00  0.00    +0.000 S 
ENDBRANCH  16  17
ENDBRANCH  15  16
ENDBRANCH   5  15
TORSDOF 7
ENDMDL
MODEL 4
REMARK VINA RESULT:      -7.7      3.769      8.393
REMARK  Name = 
REMARK  8 active torsions:
REMARK  status: ('A' for Active; 'I' for Inactive)
REMARK    1  A    between atoms: C_1  and  C_2
REMARK    2  A    between atoms: C_2  and  C_3
REMARK    3  A    between atoms: C_3  and  S_4
REMARK    4  A    between atoms: S_4  and  N_7
REMARK    5  A    between atoms: N_7  and  C_8
REMARK    6  A    between atoms: C_12  and  O_13
REMARK    7  A    between atoms: O_13  and  C_14
REMARK    8  A    between atoms: C_14  and  C_15
REMARK                            x       y       z     vdW  Elec       q    Type
REMARK                         _______ _______ _______ _____ _____    ______ ____
ROOT
ATOM      1  C   UNL     1       2.951   5.245  20.241  0.00  0.00    +0.000 A 
ATOM      2  C   UNL     1       2.329   6.250  19.500  0.00  0.00    +0.000 A 
ATOM      3  C   UNL     1       2.981   6.797  18.394  0.00  0.00    +0.000 A 
ATOM      4  C   UNL     1       4.262   6.358  18.055  0.00  0.00    +0.000 A 
ATOM      5  C   UNL     1       4.907   5.392  18.831  0.00  0.00    +0.000 A 
ATOM      6  C   UNL     1       4.240   4.820  19.918  0.00  0.00    +0.000 A 
ENDROOT
BRANCH   1   7
ATOM      7  N   UNL     1       2.290   4.661  21.367  0.00  0.00    +0.000 N 
ATOM      8  H   UNL     1       2.736   4.902  22.256  0.00  0.00    +0.000 HD
BRANCH   7   9
ATOM      9  S   UNL     1       2.096   2.972  21.349  0.00  0.00    +0.000 S 
ATOM     10  O   UNL     1       1.118   2.701  22.381  0.00  0.00    +0.000 OA
ATOM     11  O   UNL     1       3.384   2.316  21.326  0.00  0.00    +0.000 OA
BRANCH   9  12
ATOM     12  C   UNL     1       1.307   2.743  19.755  0.00  0.00    +0.000 C 
BRANCH  12  14
ATOM     13  C   UNL     1       2.409   2.733  17.486  0.00  0.00    +0.000 C 
ATOM     14  C   UNL     1       2.221   1.988  18.795  0.00  0.00    +0.000 C 
ENDBRANCH  12  14
ENDBRANCH   9  12
ENDBRANCH   7   9
ENDBRANCH   1   7
BRANCH   5  15
ATOM     15  O   UNL     1       6.178   5.078  18.431  0.00  0.00    +0.000 OA
BRANCH  15  16
ATOM     16  C   UNL     1       6.772   5.978  17.490  0.00  0.00    +0.000 C 
BRANCH  16  17
ATOM     17  C   UNL     1       6.703   5.343  16.135  0.00  0.00    +0.000 A 
ATOM     18  N   UNL     1       7.510   5.669  15.148  0.00  0.00    +0.000 NA
ATOM     19  C   UNL     1       7.189   4.948  14.015  0.00  0.00    +0.000 A 
ATOM     20  C   UNL     1       7.819   5.073  12.761  0.00  0.00    +0.000 A 
ATOM     21  C   UNL     1       7.381   4.297  11.685  0.00  0.00    +0.000 A 
ATOM     22  C   UNL     1       6.338   3.393  11.848  0.00  0.00    +0.000 A 
ATOM     23  C   UNL     1       5.707   3.238  13.089  0.00  0.00    +0.000 A 
ATOM     24  C   UNL     1       6.146   4.034  14.162  0.00  0.00    +0.000 A 
ATOM     25  S   UNL     1       5.575   4.096  15.787  0.00  0.00    +0.000 S 
ENDBRANCH  16  17
ENDBRANCH  15  16
ENDBRANCH   5  15
TORSDOF 7
ENDMDL
MODEL 5
REMARK VINA RESULT:      -7.7      1.604      1.839
REMARK  Name = 
REMARK  8 active torsions:
REMARK  status: ('A' for Active; 'I' for Inactive)
REMARK    1  A    between atoms: C_1  and  C_2
REMARK    2  A    between atoms: C_2  and  C_3
REMARK    3  A    between atoms: C_3  and  S_4
REMARK    4  A    between atoms: S_4  and  N_7
REMARK    5  A    between atoms: N_7  and  C_8
REMARK    6  A    between atoms: C_12  and  O_13
REMARK    7  A    between atoms: O_13  and  C_14
REMARK    8  A    between atoms: C_14  and  C_15
REMARK                            x       y       z     vdW  Elec       q    Type
REMARK                         _______ _______ _______ _____ _____    ______ ____
ROOT
ATOM      1  C   UNL     1       4.665   4.409  18.410  0.00  0.00    +0.000 A 
ATOM      2  C   UNL     1       3.720   3.678  17.689  0.00  0.00    +0.000 A 
ATOM      3  C   UNL     1       2.402   4.131  17.620  0.00  0.00    +0.000 A 
ATOM      4  C   UNL     1       2.030   5.294  18.297  0.00  0.00    +0.000 A 
ATOM      5  C   UNL     1       2.964   5.994  19.066  0.00  0.00    +0.000 A 
ATOM      6  C   UNL     1       4.292   5.559  19.106  0.00  0.00    +0.000 A 
ENDROOT
BRANCH   1   7
ATOM      7  N   UNL     1       6.023   3.968  18.476  0.00  0.00    +0.000 N 
ATOM      8  H   UNL     1       6.427   4.069  19.411  0.00  0.00    +0.000 HD
BRANCH   7   9
ATOM      9  S   UNL     1       7.114   4.683  17.384  0.00  0.00    +0.000 S 
ATOM     10  O   UNL     1       8.405   4.129  17.735  0.00  0.00    +0.000 OA
ATOM     11  O   UNL     1       6.890   6.108  17.307  0.00  0.00    +0.000 OA
BRANCH   9  12
ATOM     12  C   UNL     1       6.583   3.934  15.844  0.00  0.00    +0.000 C 
BRANCH  12  14
ATOM     13  C   UNL     1       7.032   4.876  13.547  0.00  0.00    +0.000 C 
ATOM     14  C   UNL     1       6.209   4.999  14.817  0.00  0.00    +0.000 C 
ENDBRANCH  12  14
ENDBRANCH   9  12
ENDBRANCH   7   9
ENDBRANCH   1   7
BRANCH   5  15
ATOM     15  O   UNL     1       2.473   7.089  19.724  0.00  0.00    +0.000 OA
BRANCH  15  16
ATOM     16  C   UNL     1       1.998   8.152  18.891  0.00  0.00    +0.000 C 
BRANCH  16  17
ATOM     17  C   UNL     1       1.166   9.067  19.736  0.00  0.00    +0.000 A 
ATOM     18  N   UNL     1       0.894   8.825  21.001  0.00  0.00    +0.000 NA
ATOM     19  C   UNL     1       0.082   9.819  21.510  0.00  0.00    +0.000 A 
ATOM     20  C   UNL     1      -0.438   9.859  22.819  0.00  0.00    +0.000 A 
ATOM     21  C   UNL     1      -1.270  10.914  23.202  0.00  0.00    +0.000 A 
ATOM     22  C   UNL     1      -1.576  11.931  22.304  0.00  0.00    +0.000 A 
ATOM     23  C   UNL     1      -1.057  11.922  21.003  0.00  0.00    +0.000 A 
ATOM     24  C   UNL     1      -0.232  10.849  20.623  0.00  0.00    +0.000 A 
ATOM     25  S   UNL     1       0.538  10.539  19.113  0.00  0.00    +0.000 S 
ENDBRANCH  16  17
ENDBRANCH  15  16
ENDBRANCH   5  15
TORSDOF 7
ENDMDL
MODEL 6
REMARK VINA RESULT:      -7.6      1.250      1.306
REMARK  Name = 
REMARK  8 active torsions:
REMARK  status: ('A' for Active; 'I' for Inactive)
REMARK    1  A    between atoms: C_1  and  C_2
REMARK    2  A    between atoms: C_2  and  C_3
REMARK    3  A    between atoms: C_3  and  S_4
REMARK    4  A    between atoms: S_4  and  N_7
REMARK    5  A    between atoms: N_7  and  C_8
REMARK    6  A    between atoms: C_12  and  O_13
REMARK    7  A    between atoms: O_13  and  C_14
REMARK    8  A    between atoms: C_14  and  C_15
REMARK                            x       y       z     vdW  Elec       q    Type
REMARK                         _______ _______ _______ _____ _____    ______ ____
ROOT
ATOM      1  C   UNL     1       4.860   4.036  19.104  0.00  0.00    +0.000 A 
ATOM      2  C   UNL     1       4.389   2.790  19.519  0.00  0.00    +0.000 A 
ATOM      3  C   UNL     1       3.175   2.704  20.201  0.00  0.00    +0.000 A 
ATOM      4  C   UNL     1       2.455   3.864  20.491  0.00  0.00    +0.000 A 
ATOM      5  C   UNL     1       2.956   5.117  20.125  0.00  0.00    +0.000 A 
ATOM      6  C   UNL     1       4.155   5.200  19.412  0.00  0.00    +0.000 A 
ENDROOT
BRANCH   1   7
ATOM      7  N   UNL     1       6.094   4.142  18.388  0.00  0.00    +0.000 N 
ATOM      8  H   UNL     1       6.754   4.784  18.832  0.00  0.00    +0.000 HD
BRANCH   7   9
ATOM      9  S   UNL     1       5.992   4.585  16.749  0.00  0.00    +0.000 S 
ATOM     10  O   UNL     1       4.585   4.484  16.425  0.00  0.00    +0.000 OA
ATOM     11  O   UNL     1       7.005   3.902  15.978  0.00  0.00    +0.000 OA
BRANCH   9  12
ATOM     12  C   UNL     1       6.421   6.324  16.848  0.00  0.00    +0.000 C 
BRANCH  12  14
ATOM     13  C   UNL     1       7.952   8.011  17.930  0.00  0.00    +0.000 C 
ATOM     14  C   UNL     1       7.497   6.563  17.902  0.00  0.00    +0.000 C 
ENDBRANCH  12  14
ENDBRANCH   9  12
ENDBRANCH   7   9
ENDBRANCH   1   7
BRANCH   5  15
ATOM     15  O   UNL     1       2.189   6.184  20.506  0.00  0.00    +0.000 OA
BRANCH  15  16
ATOM     16  C   UNL     1       2.270   7.338  19.664  0.00  0.00    +0.000 C 
BRANCH  16  17
ATOM     17  C   UNL     1       1.412   8.410  20.264  0.00  0.00    +0.000 A 
ATOM     18  N   UNL     1       1.047   8.413  21.528  0.00  0.00    +0.000 NA
ATOM     19  C   UNL     1       0.234   9.500  21.785  0.00  0.00    +0.000 A 
ATOM     20  C   UNL     1      -0.372   9.792  23.022  0.00  0.00    +0.000 A 
ATOM     21  C   UNL     1      -1.194  10.916  23.143  0.00  0.00    +0.000 A 
ATOM     22  C   UNL     1      -1.403  11.754  22.054  0.00  0.00    +0.000 A 
ATOM     23  C   UNL     1      -0.797  11.494  20.819  0.00  0.00    +0.000 A 
ATOM     24  C   UNL     1       0.016  10.353  20.703  0.00  0.00    +0.000 A 
ATOM     25  S   UNL     1       0.877   9.753  19.336  0.00  0.00    +0.000 S 
ENDBRANCH  16  17
ENDBRANCH  15  16
ENDBRANCH   5  15
TORSDOF 7
ENDMDL
MODEL 7
REMARK VINA RESULT:      -7.6      2.557      3.854
REMARK  Name = 
REMARK  8 active torsions:
REMARK  status: ('A' for Active; 'I' for Inactive)
REMARK    1  A    between atoms: C_1  and  C_2
REMARK    2  A    between atoms: C_2  and  C_3
REMARK    3  A    between atoms: C_3  and  S_4
REMARK    4  A    between atoms: S_4  and  N_7
REMARK    5  A    between atoms: N_7  and  C_8
REMARK    6  A    between atoms: C_12  and  O_13
REMARK    7  A    between atoms: O_13  and  C_14
REMARK    8  A    between atoms: C_14  and  C_15
REMARK                            x       y       z     vdW  Elec       q    Type
REMARK                         _______ _______ _______ _____ _____    ______ ____
ROOT
ATOM      1  C   UNL     1       3.834   4.983  18.128  0.00  0.00    +0.000 A 
ATOM      2  C   UNL     1       4.694   4.859  17.036  0.00  0.00    +0.000 A 
ATOM      3  C   UNL     1       5.050   5.994  16.306  0.00  0.00    +0.000 A 
ATOM      4  C   UNL     1       4.522   7.238  16.653  0.00  0.00    +0.000 A 
ATOM      5  C   UNL     1       3.616   7.352  17.712  0.00  0.00    +0.000 A 
ATOM      6  C   UNL     1       3.287   6.221  18.464  0.00  0.00    +0.000 A 
ENDROOT
BRANCH   1   7
ATOM      7  N   UNL     1       3.473   3.833  18.897  0.00  0.00    +0.000 N 
ATOM      8  H   UNL     1       4.277   3.243  19.128  0.00  0.00    +0.000 HD
BRANCH   7   9
ATOM      9  S   UNL     1       2.281   2.814  18.238  0.00  0.00    +0.000 S 
ATOM     10  O   UNL     1       2.778   1.472  18.460  0.00  0.00    +0.000 OA
ATOM     11  O   UNL     1       1.890   3.277  16.927  0.00  0.00    +0.000 OA
BRANCH   9  12
ATOM     12  C   UNL     1       0.927   3.106  19.377  0.00  0.00    +0.000 C 
BRANCH  12  14
ATOM     13  C   UNL     1       1.719   2.613  21.721  0.00  0.00    +0.000 C 
ATOM     14  C   UNL     1       1.433   3.691  20.691  0.00  0.00    +0.000 C 
ENDBRANCH  12  14
ENDBRANCH   9  12
ENDBRANCH   7   9
ENDBRANCH   1   7
BRANCH   5  15
ATOM     15  O   UNL     1       3.127   8.612  17.926  0.00  0.00    +0.000 OA
BRANCH  15  16
ATOM     16  C   UNL     1       1.728   8.785  17.677  0.00  0.00    +0.000 C 
BRANCH  16  17
ATOM     17  C   UNL     1       1.102   9.340  18.919  0.00  0.00    +0.000 A 
ATOM     18  N   UNL     1       1.218   8.768  20.099  0.00  0.00    +0.000 NA
ATOM     19  C   UNL     1       0.509   9.482  21.044  0.00  0.00    +0.000 A 
ATOM     20  C   UNL     1       0.379   9.133  22.404  0.00  0.00    +0.000 A 
ATOM     21  C   UNL     1      -0.390   9.932  23.253  0.00  0.00    +0.000 A 
ATOM     22  C   UNL     1      -1.015  11.076  22.769  0.00  0.00    +0.000 A 
ATOM     23  C   UNL     1      -0.886  11.453  21.427  0.00  0.00    +0.000 A 
ATOM     24  C   UNL     1      -0.122  10.635  20.577  0.00  0.00    +0.000 A 
ATOM     25  S   UNL     1       0.211  10.808  18.894  0.00  0.00    +0.000 S 
ENDBRANCH  16  17
ENDBRANCH  15  16
ENDBRANCH   5  15
TORSDOF 7
ENDMDL
MODEL 8
REMARK VINA RESULT:      -7.4      1.863      2.239
REMARK  Name = 
REMARK  8 active torsions:
REMARK  status: ('A' for Active; 'I' for Inactive)
REMARK    1  A    between atoms: C_1  and  C_2
REMARK    2  A    between atoms: C_2  and  C_3
REMARK    3  A    between atoms: C_3  and  S_4
REMARK    4  A    between atoms: S_4  and  N_7
REMARK    5  A    between atoms: N_7  and  C_8
REMARK    6  A    between atoms: C_12  and  O_13
REMARK    7  A    between atoms: O_13  and  C_14
REMARK    8  A    between atoms: C_14  and  C_15
REMARK                            x       y       z     vdW  Elec       q    Type
REMARK                         _______ _______ _______ _____ _____    ______ ____
ROOT
ATOM      1  C   UNL     1       3.851   3.734  19.316  0.00  0.00    +0.000 A 
ATOM      2  C   UNL     1       3.225   2.570  19.763  0.00  0.00    +0.000 A 
ATOM      3  C   UNL     1       2.042   2.661  20.497  0.00  0.00    +0.000 A 
ATOM      4  C   UNL     1       1.508   3.914  20.805  0.00  0.00    +0.000 A 
ATOM      5  C   UNL     1       2.166   5.080  20.405  0.00  0.00    +0.000 A 
ATOM      6  C   UNL     1       3.333   4.988  19.641  0.00  0.00    +0.000 A 
ENDROOT
BRANCH   1   7
ATOM      7  N   UNL     1       5.054   3.659  18.548  0.00  0.00    +0.000 N 
ATOM      8  H   UNL     1       5.680   2.914  18.866  0.00  0.00    +0.000 HD
BRANCH   7   9
ATOM      9  S   UNL     1       5.985   5.079  18.442  0.00  0.00    +0.000 S 
ATOM     10  O   UNL     1       6.692   5.152  19.703  0.00  0.00    +0.000 OA
ATOM     11  O   UNL     1       5.180   6.174  17.951  0.00  0.00    +0.000 OA
BRANCH   9  12
ATOM     12  C   UNL     1       7.158   4.613  17.168  0.00  0.00    +0.000 C 
BRANCH  12  14
ATOM     13  C   UNL     1       6.312   5.041  14.830  0.00  0.00    +0.000 C 
ATOM     14  C   UNL     1       6.444   4.028  15.953  0.00  0.00    +0.000 C 
ENDBRANCH  12  14
ENDBRANCH   9  12
ENDBRANCH   7   9
ENDBRANCH   1   7
BRANCH   5  15
ATOM     15  O   UNL     1       1.576   6.248  20.807  0.00  0.00    +0.000 OA
BRANCH  15  16
ATOM     16  C   UNL     1       2.016   7.430  20.130  0.00  0.00    +0.000 C 
BRANCH  16  17
ATOM     17  C   UNL     1       1.162   8.572  20.590  0.00  0.00    +0.000 A 
ATOM     18  N   UNL     1       0.706   8.676  21.820  0.00  0.00    +0.000 NA
ATOM     19  C   UNL     1      -0.077   9.807  21.942  0.00  0.00    +0.000 A 
ATOM     20  C   UNL     1      -0.759  10.208  23.107  0.00  0.00    +0.000 A 
ATOM     21  C   UNL     1      -1.541  11.365  23.090  0.00  0.00    +0.000 A 
ATOM     22  C   UNL     1      -1.637  12.132  21.933  0.00  0.00    +0.000 A 
ATOM     23  C   UNL     1      -0.954  11.764  20.768  0.00  0.00    +0.000 A 
ATOM     24  C   UNL     1      -0.182  10.589  20.791  0.00  0.00    +0.000 A 
ATOM     25  S   UNL     1       0.750   9.864  19.537  0.00  0.00    +0.000 S 
ENDBRANCH  16  17
ENDBRANCH  15  16
ENDBRANCH   5  15
TORSDOF 7
ENDMDL
MODEL 9
REMARK VINA RESULT:      -7.4      2.453      3.784
REMARK  Name = 
REMARK  8 active torsions:
REMARK  status: ('A' for Active; 'I' for Inactive)
REMARK    1  A    between atoms: C_1  and  C_2
REMARK    2  A    between atoms: C_2  and  C_3
REMARK    3  A    between atoms: C_3  and  S_4
REMARK    4  A    between atoms: S_4  and  N_7
REMARK    5  A    between atoms: N_7  and  C_8
REMARK    6  A    between atoms: C_12  and  O_13
REMARK    7  A    between atoms: O_13  and  C_14
REMARK    8  A    between atoms: C_14  and  C_15
REMARK                            x       y       z     vdW  Elec       q    Type
REMARK                         _______ _______ _______ _____ _____    ______ ____
ROOT
ATOM      1  C   UNL     1       5.330   4.677  18.062  0.00  0.00    +0.000 A 
ATOM      2  C   UNL     1       5.663   4.460  16.725  0.00  0.00    +0.000 A 
ATOM      3  C   UNL     1       5.409   5.455  15.780  0.00  0.00    +0.000 A 
ATOM      4  C   UNL     1       4.797   6.647  16.172  0.00  0.00    +0.000 A 
ATOM      5  C   UNL     1       4.412   6.840  17.502  0.00  0.00    +0.000 A 
ATOM      6  C   UNL     1       4.697   5.857  18.454  0.00  0.00    +0.000 A 
ENDROOT
BRANCH   1   7
ATOM      7  N   UNL     1       5.599   3.675  19.046  0.00  0.00    +0.000 N 
ATOM      8  H   UNL     1       6.398   3.085  18.801  0.00  0.00    +0.000 HD
BRANCH   7   9
ATOM      9  S   UNL     1       4.316   2.632  19.448  0.00  0.00    +0.000 S 
ATOM     10  O   UNL     1       4.843   1.785  20.497  0.00  0.00    +0.000 OA
ATOM     11  O   UNL     1       3.717   2.085  18.253  0.00  0.00    +0.000 OA
BRANCH   9  12
ATOM     12  C   UNL     1       3.165   3.791  20.189  0.00  0.00    +0.000 C 
BRANCH  12  14
ATOM     13  C   UNL     1       1.404   2.658  21.596  0.00  0.00    +0.000 C 
ATOM     14  C   UNL     1       1.754   3.212  20.226  0.00  0.00    +0.000 C 
ENDBRANCH  12  14
ENDBRANCH   9  12
ENDBRANCH   7   9
ENDBRANCH   1   7
BRANCH   5  15
ATOM     15  O   UNL     1       3.776   8.024  17.757  0.00  0.00    +0.000 OA
BRANCH  15  16
ATOM     16  C   UNL     1       2.360   8.025  17.547  0.00  0.00    +0.000 C 
BRANCH  16  17
ATOM     17  C   UNL     1       1.707   8.531  18.797  0.00  0.00    +0.000 A 
ATOM     18  N   UNL     1       1.005   9.643  18.840  0.00  0.00    +0.000 NA
ATOM     19  C   UNL     1       0.558   9.873  20.126  0.00  0.00    +0.000 A 
ATOM     20  C   UNL     1      -0.188  10.993  20.544  0.00  0.00    +0.000 A 
ATOM     21  C   UNL     1      -0.559  11.117  21.885  0.00  0.00    +0.000 A 
ATOM     22  C   UNL     1      -0.211  10.134  22.805  0.00  0.00    +0.000 A 
ATOM     23  C   UNL     1       0.515   9.004  22.410  0.00  0.00    +0.000 A 
ATOM     24  C   UNL     1       0.896   8.895  21.062  0.00  0.00    +0.000 A 
ATOM     25  S   UNL     1       1.796   7.656  20.272  0.00  0.00    +0.000 S 
ENDBRANCH  16  17
ENDBRANCH  15  16
ENDBRANCH   5  15
TORSDOF 7
ENDMDL
