MODEL 1
REMARK VINA RESULT:      -9.0      0.000      0.000
REMARK  Name = 
REMARK  6 active torsions:
REMARK  status: ('A' for Active; 'I' for Inactive)
REMARK    1  A    between atoms: C_1  and  N_2
REMARK    2  A    between atoms: C_6  and  C_7
REMARK    3  A    between atoms: C_11  and  O_12
REMARK    4  A    between atoms: O_12  and  C_13
REMARK    5  A    between atoms: C_17  and  S_18
REMARK    6  A    between atoms: S_18  and  N_21
REMARK                            x       y       z     vdW  Elec       q    Type
REMARK                         _______ _______ _______ _____ _____    ______ ____
ROOT
ATOM      1  C   UNL     1       2.310   7.060  19.069  0.00  0.00    +0.000 A 
ATOM      2  C   UNL     1       2.439   8.017  18.064  0.00  0.00    +0.000 A 
ATOM      3  C   UNL     1       1.944   9.306  18.264  0.00  0.00    +0.000 A 
ATOM      4  F   UNL     1       2.098  10.198  17.273  0.00  0.00    +0.000 F 
ATOM      5  C   UNL     1       1.326   9.654  19.459  0.00  0.00    +0.000 A 
ATOM      6  C   UNL     1       1.201   8.704  20.482  0.00  0.00    +0.000 A 
ATOM      7  C   UNL     1       1.706   7.425  20.278  0.00  0.00    +0.000 A 
ATOM      8  F   UNL     1       1.573   6.519  21.260  0.00  0.00    +0.000 F 
ENDROOT
BRANCH   5   9
ATOM      9  S   UNL     1       0.614  11.257  19.667  0.00  0.00    +0.000 S 
ATOM     10  O   UNL     1      -0.357  11.212  20.737  0.00  0.00    +0.000 OA
ATOM     11  O   UNL     1       1.719  12.189  19.725  0.00  0.00    +0.000 OA
BRANCH   9  12
ATOM     12  N   UNL     1      -0.168  11.562  18.210  0.00  0.00    +0.000 N 
ATOM     13  C   UNL     1      -1.529  11.211  18.134  0.00  0.00    +0.000 A 
ATOM     14  C   UNL     1      -2.518  12.023  18.635  0.00  0.00    +0.000 A 
ATOM     15  C   UNL     1      -3.795  11.563  18.434  0.00  0.00    +0.000 A 
ATOM     16  N   UNL     1      -4.071  10.396  17.824  0.00  0.00    +0.000 NA
ATOM     17  C   UNL     1      -3.016   9.682  17.405  0.00  0.00    +0.000 A 
ATOM     18  N   UNL     1      -1.729  10.038  17.526  0.00  0.00    +0.000 NA
ATOM     19  H   UNL     1       0.360  11.181  17.426  0.00  0.00    +0.000 HD
ENDBRANCH   9  12
ENDBRANCH   5   9
BRANCH   1  20
ATOM     20  O   UNL     1       2.760   5.779  18.972  0.00  0.00    +0.000 OA
BRANCH  20  25
ATOM     21  C   UNL     1       4.034   4.783  17.104  0.00  0.00    +0.000 C 
ATOM     22  C   UNL     1       3.718   3.367  17.595  0.00  0.00    +0.000 C 
ATOM     23  C   UNL     1       4.524   3.203  18.881  0.00  0.00    +0.000 C 
ATOM     24  C   UNL     1       4.775   4.614  19.418  0.00  0.00    +0.000 C 
ATOM     25  C   UNL     1       4.087   5.571  18.432  0.00  0.00    +0.000 C 
BRANCH  21  31
ATOM     26  C   UNL     1       6.110   7.090  17.114  0.00  0.00    +0.000 C 
ATOM     27  N   UNL     1       6.199   5.875  16.334  0.00  0.00    +0.000 N 
ATOM     28  N   UNL     1       7.247   5.726  15.503  0.00  0.00    +0.000 NA
ATOM     29  C   UNL     1       7.019   4.561  14.902  0.00  0.00    +0.000 A 
ATOM     30  C   UNL     1       5.841   3.952  15.358  0.00  0.00    +0.000 A 
ATOM     31  C   UNL     1       5.307   4.824  16.291  0.00  0.00    +0.000 A 
ENDBRANCH  21  31
ENDBRANCH  20  25
ENDBRANCH   1  20
TORSDOF 5
ENDMDL
MODEL 2
REMARK VINA RESULT:      -8.8      1.884      8.931
REMARK  Name = 
REMARK  6 active torsions:
REMARK  status: ('A' for Active; 'I' for Inactive)
REMARK    1  A    between atoms: C_1  and  N_2
REMARK    2  A    between atoms: C_6  and  C_7
REMARK    3  A    between atoms: C_11  and  O_12
REMARK    4  A    between atoms: O_12  and  C_13
REMARK    5  A    between atoms: C_17  and  S_18
REMARK    6  A    between atoms: S_18  and  N_21
REMARK                            x       y       z     vdW  Elec       q    Type
REMARK                         _______ _______ _______ _____ _____    ______ ____
ROOT
ATOM      1  C   UNL     1       1.216   9.762  19.523  0.00  0.00    +0.000 A 
ATOM      2  C   UNL     1       1.098   8.789  20.514  0.00  0.00    +0.000 A 
ATOM      3  C   UNL     1       1.637   7.519  20.309  0.00  0.00    +0.000 A 
ATOM      4  F   UNL     1       1.510   6.616  21.293  0.00  0.00    +0.000 F 
ATOM      5  C   UNL     1       2.298   7.208  19.127  0.00  0.00    +0.000 A 
ATOM      6  C   UNL     1       2.433   8.181  18.127  0.00  0.00    +0.000 A 
ATOM      7  C   UNL     1       1.902   9.447  18.344  0.00  0.00    +0.000 A 
ATOM      8  F   UNL     1       2.027  10.370  17.376  0.00  0.00    +0.000 F 
ENDROOT
BRANCH   5   9
ATOM      9  S   UNL     1       2.891   5.570  18.834  0.00  0.00    +0.000 S 
ATOM     10  O   UNL     1       3.849   5.221  19.859  0.00  0.00    +0.000 OA
ATOM     11  O   UNL     1       1.722   4.746  18.618  0.00  0.00    +0.000 OA
BRANCH   9  12
ATOM     12  N   UNL     1       3.669   5.663  17.346  0.00  0.00    +0.000 N 
ATOM     13  C   UNL     1       5.076   5.626  17.361  0.00  0.00    +0.000 A 
ATOM     14  C   UNL     1       5.770   4.444  17.453  0.00  0.00    +0.000 A 
ATOM     15  C   UNL     1       7.134   4.574  17.400  0.00  0.00    +0.000 A 
ATOM     16  N   UNL     1       7.759   5.762  17.298  0.00  0.00    +0.000 NA
ATOM     17  C   UNL     1       6.968   6.843  17.244  0.00  0.00    +0.000 A 
ATOM     18  N   UNL     1       5.628   6.838  17.266  0.00  0.00    +0.000 NA
ATOM     19  H   UNL     1       3.322   6.454  16.803  0.00  0.00    +0.000 HD
ENDBRANCH   9  12
ENDBRANCH   5   9
BRANCH   1  20
ATOM     20  O   UNL     1       0.726  11.028  19.627  0.00  0.00    +0.000 OA
BRANCH  20  25
ATOM     21  C   UNL     1      -1.237  11.672  18.273  0.00  0.00    +0.000 C 
ATOM     22  C   UNL     1      -0.796  13.138  18.265  0.00  0.00    +0.000 C 
ATOM     23  C   UNL     1      -1.007  13.625  19.696  0.00  0.00    +0.000 C 
ATOM     24  C   UNL     1      -0.966  12.381  20.587  0.00  0.00    +0.000 C 
ATOM     25  C   UNL     1      -0.711  11.193  19.645  0.00  0.00    +0.000 C 
BRANCH  21  31
ATOM     26  C   UNL     1      -2.645  10.780  15.655  0.00  0.00    +0.000 C 
ATOM     27  N   UNL     1      -3.305  11.129  16.894  0.00  0.00    +0.000 N 
ATOM     28  N   UNL     1      -4.650  11.109  16.928  0.00  0.00    +0.000 NA
ATOM     29  C   UNL     1      -4.948  11.521  18.157  0.00  0.00    +0.000 A 
ATOM     30  C   UNL     1      -3.800  11.786  18.919  0.00  0.00    +0.000 A 
ATOM     31  C   UNL     1      -2.729  11.533  18.081  0.00  0.00    +0.000 A 
ENDBRANCH  21  31
ENDBRANCH  20  25
ENDBRANCH   1  20
TORSDOF 5
ENDMDL
MODEL 3
REMARK VINA RESULT:      -8.7      2.344      2.693
REMARK  Name = 
REMARK  6 active torsions:
REMARK  status: ('A' for Active; 'I' for Inactive)
REMARK    1  A    between atoms: C_1  and  N_2
REMARK    2  A    between atoms: C_6  and  C_7
REMARK    3  A    between atoms: C_11  and  O_12
REMARK    4  A    between atoms: O_12  and  C_13
REMARK    5  A    between atoms: C_17  and  S_18
REMARK    6  A    between atoms: S_18  and  N_21
REMARK                            x       y       z     vdW  Elec       q    Type
REMARK                         _______ _______ _______ _____ _____    ______ ____
ROOT
ATOM      1  C   UNL     1       2.344   6.380  19.230  0.00  0.00    +0.000 A 
ATOM      2  C   UNL     1       2.438   7.254  18.149  0.00  0.00    +0.000 A 
ATOM      3  C   UNL     1       1.988   8.569  18.277  0.00  0.00    +0.000 A 
ATOM      4  F   UNL     1       2.106   9.379  17.214  0.00  0.00    +0.000 F 
ATOM      5  C   UNL     1       1.452   9.024  19.475  0.00  0.00    +0.000 A 
ATOM      6  C   UNL     1       1.363   8.157  20.573  0.00  0.00    +0.000 A 
ATOM      7  C   UNL     1       1.822   6.852  20.439  0.00  0.00    +0.000 A 
ATOM      8  F   UNL     1       1.724   6.026  21.495  0.00  0.00    +0.000 F 
ENDROOT
BRANCH   5   9
ATOM      9  S   UNL     1       0.795  10.659  19.600  0.00  0.00    +0.000 S 
ATOM     10  O   UNL     1       1.522  11.533  18.707  0.00  0.00    +0.000 OA
ATOM     11  O   UNL     1      -0.641  10.531  19.485  0.00  0.00    +0.000 OA
BRANCH   9  12
ATOM     12  N   UNL     1       1.090  11.111  21.193  0.00  0.00    +0.000 N 
ATOM     13  C   UNL     1       0.019  11.694  21.896  0.00  0.00    +0.000 A 
ATOM     14  C   UNL     1      -0.967  10.935  22.478  0.00  0.00    +0.000 A 
ATOM     15  C   UNL     1      -1.909  11.651  23.172  0.00  0.00    +0.000 A 
ATOM     16  N   UNL     1      -1.898  12.994  23.259  0.00  0.00    +0.000 NA
ATOM     17  C   UNL     1      -0.896  13.620  22.623  0.00  0.00    +0.000 A 
ATOM     18  N   UNL     1       0.089  13.027  21.934  0.00  0.00    +0.000 NA
ATOM     19  H   UNL     1       1.934  11.679  21.260  0.00  0.00    +0.000 HD
ENDBRANCH   9  12
ENDBRANCH   5   9
BRANCH   1  20
ATOM     20  O   UNL     1       2.755   5.082  19.206  0.00  0.00    +0.000 OA
BRANCH  20  25
ATOM     21  C   UNL     1       3.947   4.680  17.079  0.00  0.00    +0.000 C 
ATOM     22  C   UNL     1       3.265   3.319  16.912  0.00  0.00    +0.000 C 
ATOM     23  C   UNL     1       3.879   2.433  17.992  0.00  0.00    +0.000 C 
ATOM     24  C   UNL     1       4.392   3.374  19.085  0.00  0.00    +0.000 C 
ATOM     25  C   UNL     1       4.045   4.796  18.617  0.00  0.00    +0.000 C 
BRANCH  21  31
ATOM     26  C   UNL     1       5.977   7.024  17.212  0.00  0.00    +0.000 C 
ATOM     27  N   UNL     1       6.139   5.807  16.448  0.00  0.00    +0.000 N 
ATOM     28  N   UNL     1       7.241   5.672  15.688  0.00  0.00    +0.000 NA
ATOM     29  C   UNL     1       7.075   4.500  15.081  0.00  0.00    +0.000 A 
ATOM     30  C   UNL     1       5.879   3.873  15.462  0.00  0.00    +0.000 A 
ATOM     31  C   UNL     1       5.269   4.740  16.351  0.00  0.00    +0.000 A 
ENDBRANCH  21  31
ENDBRANCH  20  25
ENDBRANCH   1  20
TORSDOF 5
ENDMDL
MODEL 4
REMARK VINA RESULT:      -8.6      2.017      8.955
REMARK  Name = 
REMARK  6 active torsions:
REMARK  status: ('A' for Active; 'I' for Inactive)
REMARK    1  A    between atoms: C_1  and  N_2
REMARK    2  A    between atoms: C_6  and  C_7
REMARK    3  A    between atoms: C_11  and  O_12
REMARK    4  A    between atoms: O_12  and  C_13
REMARK    5  A    between atoms: C_17  and  S_18
REMARK    6  A    between atoms: S_18  and  N_21
REMARK                            x       y       z     vdW  Elec       q    Type
REMARK                         _______ _______ _______ _____ _____    ______ ____
ROOT
ATOM      1  C   UNL     1       1.201   9.389  19.488  0.00  0.00    +0.000 A 
ATOM      2  C   UNL     1       1.198   8.463  20.530  0.00  0.00    +0.000 A 
ATOM      3  C   UNL     1       1.794   7.214  20.352  0.00  0.00    +0.000 A 
ATOM      4  F   UNL     1       1.776   6.357  21.384  0.00  0.00    +0.000 F 
ATOM      5  C   UNL     1       2.401   6.880  19.147  0.00  0.00    +0.000 A 
ATOM      6  C   UNL     1       2.421   7.807  18.096  0.00  0.00    +0.000 A 
ATOM      7  C   UNL     1       1.833   9.053  18.286  0.00  0.00    +0.000 A 
ATOM      8  F   UNL     1       1.849   9.931  17.269  0.00  0.00    +0.000 F 
ENDROOT
BRANCH   5   9
ATOM      9  S   UNL     1       3.066   5.264  18.896  0.00  0.00    +0.000 S 
ATOM     10  O   UNL     1       2.323   4.314  19.694  0.00  0.00    +0.000 OA
ATOM     11  O   UNL     1       3.174   5.085  17.464  0.00  0.00    +0.000 OA
BRANCH   9  12
ATOM     12  N   UNL     1       4.645   5.365  19.467  0.00  0.00    +0.000 N 
ATOM     13  C   UNL     1       5.663   5.482  18.502  0.00  0.00    +0.000 A 
ATOM     14  C   UNL     1       5.980   6.687  17.923  0.00  0.00    +0.000 A 
ATOM     15  C   UNL     1       7.031   6.642  17.043  0.00  0.00    +0.000 A 
ATOM     16  N   UNL     1       7.689   5.508  16.736  0.00  0.00    +0.000 NA
ATOM     17  C   UNL     1       7.264   4.393  17.349  0.00  0.00    +0.000 A 
ATOM     18  N   UNL     1       6.265   4.319  18.240  0.00  0.00    +0.000 NA
ATOM     19  H   UNL     1       4.841   4.614  20.128  0.00  0.00    +0.000 HD
ENDBRANCH   9  12
ENDBRANCH   5   9
BRANCH   1  20
ATOM     20  O   UNL     1       0.648  10.631  19.563  0.00  0.00    +0.000 OA
BRANCH  20  25
ATOM     21  C   UNL     1      -1.314  11.650  18.461  0.00  0.00    +0.000 C 
ATOM     22  C   UNL     1      -0.946  13.034  19.005  0.00  0.00    +0.000 C 
ATOM     23  C   UNL     1      -1.214  12.955  20.505  0.00  0.00    +0.000 C 
ATOM     24  C   UNL     1      -1.130  11.474  20.883  0.00  0.00    +0.000 C 
ATOM     25  C   UNL     1      -0.796  10.723  19.584  0.00  0.00    +0.000 C 
BRANCH  21  31
ATOM     26  C   UNL     1      -2.563  10.564  15.835  0.00  0.00    +0.000 C 
ATOM     27  N   UNL     1      -3.296  11.041  16.987  0.00  0.00    +0.000 N 
ATOM     28  N   UNL     1      -4.640  11.060  16.925  0.00  0.00    +0.000 NA
ATOM     29  C   UNL     1      -5.011  11.588  18.089  0.00  0.00    +0.000 A 
ATOM     30  C   UNL     1      -3.911  11.889  18.906  0.00  0.00    +0.000 A 
ATOM     31  C   UNL     1      -2.793  11.534  18.173  0.00  0.00    +0.000 A 
ENDBRANCH  21  31
ENDBRANCH  20  25
ENDBRANCH   1  20
TORSDOF 5
ENDMDL
MODEL 5
REMARK VINA RESULT:      -8.5      2.259      8.736
REMARK  Name = 
REMARK  6 active torsions:
REMARK  status: ('A' for Active; 'I' for Inactive)
REMARK    1  A    between atoms: C_1  and  N_2
REMARK    2  A    between atoms: C_6  and  C_7
REMARK    3  A    between atoms: C_11  and  O_12
REMARK    4  A    between atoms: O_12  and  C_13
REMARK    5  A    between atoms: C_17  and  S_18
REMARK    6  A    between atoms: S_18  and  N_21
REMARK                            x       y       z     vdW  Elec       q    Type
REMARK                         _______ _______ _______ _____ _____    ______ ____
ROOT
ATOM      1  C   UNL     1       1.819   8.181  19.668  0.00  0.00    +0.000 A 
ATOM      2  C   UNL     1       1.953   7.152  20.599  0.00  0.00    +0.000 A 
ATOM      3  C   UNL     1       2.382   5.891  20.184  0.00  0.00    +0.000 A 
ATOM      4  F   UNL     1       2.507   4.933  21.115  0.00  0.00    +0.000 F 
ATOM      5  C   UNL     1       2.687   5.646  18.851  0.00  0.00    +0.000 A 
ATOM      6  C   UNL     1       2.567   6.675  17.907  0.00  0.00    +0.000 A 
ATOM      7  C   UNL     1       2.147   7.931  18.331  0.00  0.00    +0.000 A 
ATOM      8  F   UNL     1       2.026   8.909  17.418  0.00  0.00    +0.000 F 
ENDROOT
BRANCH   5   9
ATOM      9  S   UNL     1       3.135   4.023  18.317  0.00  0.00    +0.000 S 
ATOM     10  O   UNL     1       2.431   3.047  19.119  0.00  0.00    +0.000 OA
ATOM     11  O   UNL     1       3.000   4.015  16.876  0.00  0.00    +0.000 OA
BRANCH   9  12
ATOM     12  N   UNL     1       4.785   3.919  18.625  0.00  0.00    +0.000 N 
ATOM     13  C   UNL     1       5.633   4.690  17.806  0.00  0.00    +0.000 A 
ATOM     14  C   UNL     1       5.851   6.026  18.040  0.00  0.00    +0.000 A 
ATOM     15  C   UNL     1       6.745   6.620  17.186  0.00  0.00    +0.000 A 
ATOM     16  N   UNL     1       7.346   5.966  16.175  0.00  0.00    +0.000 NA
ATOM     17  C   UNL     1       7.028   4.670  16.036  0.00  0.00    +0.000 A 
ATOM     18  N   UNL     1       6.187   3.980  16.820  0.00  0.00    +0.000 NA
ATOM     19  H   UNL     1       5.088   2.946  18.665  0.00  0.00    +0.000 HD
ENDBRANCH   9  12
ENDBRANCH   5   9
BRANCH   1  20
ATOM     20  O   UNL     1       1.408   9.443  19.973  0.00  0.00    +0.000 OA
BRANCH  20  25
ATOM     21  C   UNL     1      -0.330  11.149  19.560  0.00  0.00    +0.000 C 
ATOM     22  C   UNL     1       0.108  11.946  20.792  0.00  0.00    +0.000 C 
ATOM     23  C   UNL     1      -0.315  11.095  21.987  0.00  0.00    +0.000 C 
ATOM     24  C   UNL     1      -0.407   9.653  21.481  0.00  0.00    +0.000 C 
ATOM     25  C   UNL     1      -0.015   9.700  19.995  0.00  0.00    +0.000 C 
BRANCH  21  31
ATOM     26  C   UNL     1      -1.833   9.967  17.116  0.00  0.00    +0.000 C 
ATOM     27  N   UNL     1      -2.399  10.852  18.110  0.00  0.00    +0.000 N 
ATOM     28  N   UNL     1      -3.678  11.243  17.962  0.00  0.00    +0.000 NA
ATOM     29  C   UNL     1      -3.882  12.076  18.980  0.00  0.00    +0.000 A 
ATOM     30  C   UNL     1      -2.745  12.206  19.792  0.00  0.00    +0.000 A 
ATOM     31  C   UNL     1      -1.777  11.407  19.210  0.00  0.00    +0.000 A 
ENDBRANCH  21  31
ENDBRANCH  20  25
ENDBRANCH   1  20
TORSDOF 5
ENDMDL
MODEL 6
REMARK VINA RESULT:      -8.5      1.020      1.297
REMARK  Name = 
REMARK  6 active torsions:
REMARK  status: ('A' for Active; 'I' for Inactive)
REMARK    1  A    between atoms: C_1  and  N_2
REMARK    2  A    between atoms: C_6  and  C_7
REMARK    3  A    between atoms: C_11  and  O_12
REMARK    4  A    between atoms: O_12  and  C_13
REMARK    5  A    between atoms: C_17  and  S_18
REMARK    6  A    between atoms: S_18  and  N_21
REMARK                            x       y       z     vdW  Elec       q    Type
REMARK                         _______ _______ _______ _____ _____    ______ ____
ROOT
ATOM      1  C   UNL     1       2.364   6.334  19.271  0.00  0.00    +0.000 A 
ATOM      2  C   UNL     1       2.446   7.289  18.259  0.00  0.00    +0.000 A 
ATOM      3  C   UNL     1       1.997   8.589  18.491  0.00  0.00    +0.000 A 
ATOM      4  F   UNL     1       2.104   9.478  17.493  0.00  0.00    +0.000 F 
ATOM      5  C   UNL     1       1.471   8.950  19.726  0.00  0.00    +0.000 A 
ATOM      6  C   UNL     1       1.393   8.002  20.755  0.00  0.00    +0.000 A 
ATOM      7  C   UNL     1       1.852   6.712  20.517  0.00  0.00    +0.000 A 
ATOM      8  F   UNL     1       1.765   5.807  21.507  0.00  0.00    +0.000 F 
ENDROOT
BRANCH   5   9
ATOM      9  S   UNL     1       0.813  10.570  19.982  0.00  0.00    +0.000 S 
ATOM     10  O   UNL     1       1.223  11.049  21.283  0.00  0.00    +0.000 OA
ATOM     11  O   UNL     1       1.130  11.330  18.792  0.00  0.00    +0.000 OA
BRANCH   9  12
ATOM     12  N   UNL     1      -0.854  10.355  19.960  0.00  0.00    +0.000 N 
ATOM     13  C   UNL     1      -1.502  10.539  18.724  0.00  0.00    +0.000 A 
ATOM     14  C   UNL     1      -1.539   9.551  17.769  0.00  0.00    +0.000 A 
ATOM     15  C   UNL     1      -2.255   9.867  16.643  0.00  0.00    +0.000 A 
ATOM     16  N   UNL     1      -2.855  11.059  16.460  0.00  0.00    +0.000 NA
ATOM     17  C   UNL     1      -2.721  11.947  17.456  0.00  0.00    +0.000 A 
ATOM     18  N   UNL     1      -2.066  11.744  18.607  0.00  0.00    +0.000 NA
ATOM     19  H   UNL     1      -1.300  10.898  20.700  0.00  0.00    +0.000 HD
ENDBRANCH   9  12
ENDBRANCH   5   9
BRANCH   1  20
ATOM     20  O   UNL     1       2.775   5.043  19.143  0.00  0.00    +0.000 OA
BRANCH  20  25
ATOM     21  C   UNL     1       3.962   4.631  17.016  0.00  0.00    +0.000 C 
ATOM     22  C   UNL     1       3.354   3.230  16.906  0.00  0.00    +0.000 C 
ATOM     23  C   UNL     1       4.028   2.416  18.008  0.00  0.00    +0.000 C 
ATOM     24  C   UNL     1       4.502   3.422  19.060  0.00  0.00    +0.000 C 
ATOM     25  C   UNL     1       4.072   4.806  18.547  0.00  0.00    +0.000 C 
BRANCH  21  31
ATOM     26  C   UNL     1       5.947   7.011  17.177  0.00  0.00    +0.000 C 
ATOM     27  N   UNL     1       6.120   5.818  16.378  0.00  0.00    +0.000 N 
ATOM     28  N   UNL     1       7.212   5.725  15.598  0.00  0.00    +0.000 NA
ATOM     29  C   UNL     1       7.059   4.565  14.963  0.00  0.00    +0.000 A 
ATOM     30  C   UNL     1       5.883   3.905  15.347  0.00  0.00    +0.000 A 
ATOM     31  C   UNL     1       5.271   4.736  16.268  0.00  0.00    +0.000 A 
ENDBRANCH  21  31
ENDBRANCH  20  25
ENDBRANCH   1  20
TORSDOF 5
ENDMDL
MODEL 7
REMARK VINA RESULT:      -8.5      2.281      9.135
REMARK  Name = 
REMARK  6 active torsions:
REMARK  status: ('A' for Active; 'I' for Inactive)
REMARK    1  A    between atoms: C_1  and  N_2
REMARK    2  A    between atoms: C_6  and  C_7
REMARK    3  A    between atoms: C_11  and  O_12
REMARK    4  A    between atoms: O_12  and  C_13
REMARK    5  A    between atoms: C_17  and  S_18
REMARK    6  A    between atoms: S_18  and  N_21
REMARK                            x       y       z     vdW  Elec       q    Type
REMARK                         _______ _______ _______ _____ _____    ______ ____
ROOT
ATOM      1  C   UNL     1       1.085   9.894  20.395  0.00  0.00    +0.000 A 
ATOM      2  C   UNL     1       1.368   9.838  19.032  0.00  0.00    +0.000 A 
ATOM      3  C   UNL     1       1.902   8.674  18.480  0.00  0.00    +0.000 A 
ATOM      4  F   UNL     1       2.150   8.660  17.162  0.00  0.00    +0.000 F 
ATOM      5  C   UNL     1       2.153   7.560  19.273  0.00  0.00    +0.000 A 
ATOM      6  C   UNL     1       1.861   7.600  20.643  0.00  0.00    +0.000 A 
ATOM      7  C   UNL     1       1.320   8.761  21.182  0.00  0.00    +0.000 A 
ATOM      8  F   UNL     1       1.053   8.793  22.499  0.00  0.00    +0.000 F 
ENDROOT
BRANCH   5   9
ATOM      9  S   UNL     1       2.920   6.125  18.586  0.00  0.00    +0.000 S 
ATOM     10  O   UNL     1       3.641   5.426  19.628  0.00  0.00    +0.000 OA
ATOM     11  O   UNL     1       1.898   5.441  17.823  0.00  0.00    +0.000 OA
BRANCH   9  12
ATOM     12  N   UNL     1       4.009   6.729  17.457  0.00  0.00    +0.000 N 
ATOM     13  C   UNL     1       5.157   5.955  17.204  0.00  0.00    +0.000 A 
ATOM     14  C   UNL     1       5.135   4.880  16.348  0.00  0.00    +0.000 A 
ATOM     15  C   UNL     1       6.346   4.264  16.167  0.00  0.00    +0.000 A 
ATOM     16  N   UNL     1       7.472   4.651  16.797  0.00  0.00    +0.000 NA
ATOM     17  C   UNL     1       7.355   5.696  17.628  0.00  0.00    +0.000 A 
ATOM     18  N   UNL     1       6.232   6.388  17.867  0.00  0.00    +0.000 NA
ATOM     19  H   UNL     1       4.251   7.698  17.666  0.00  0.00    +0.000 HD
ENDBRANCH   9  12
ENDBRANCH   5   9
BRANCH   1  20
ATOM     20  O   UNL     1       0.562  10.981  21.027  0.00  0.00    +0.000 OA
BRANCH  20  25
ATOM     21  C   UNL     1      -1.372  12.389  20.411  0.00  0.00    +0.000 C 
ATOM     22  C   UNL     1      -0.971  13.452  21.439  0.00  0.00    +0.000 C 
ATOM     23  C   UNL     1      -1.244  12.813  22.798  0.00  0.00    +0.000 C 
ATOM     24  C   UNL     1      -1.197  11.299  22.581  0.00  0.00    +0.000 C 
ATOM     25  C   UNL     1      -0.879  11.093  21.092  0.00  0.00    +0.000 C 
BRANCH  21  31
ATOM     26  C   UNL     1      -2.725  11.272  17.852  0.00  0.00    +0.000 C 
ATOM     27  N   UNL     1      -3.404  11.912  18.957  0.00  0.00    +0.000 N 
ATOM     28  N   UNL     1      -4.736  12.083  18.875  0.00  0.00    +0.000 NA
ATOM     29  C   UNL     1      -5.048  12.733  19.994  0.00  0.00    +0.000 A 
ATOM     30  C   UNL     1      -3.926  12.961  20.802  0.00  0.00    +0.000 A 
ATOM     31  C   UNL     1      -2.852  12.427  20.112  0.00  0.00    +0.000 A 
ENDBRANCH  21  31
ENDBRANCH  20  25
ENDBRANCH   1  20
TORSDOF 5
ENDMDL
MODEL 8
REMARK VINA RESULT:      -8.4      2.403      3.650
REMARK  Name = 
REMARK  6 active torsions:
REMARK  status: ('A' for Active; 'I' for Inactive)
REMARK    1  A    between atoms: C_1  and  N_2
REMARK    2  A    between atoms: C_6  and  C_7
REMARK    3  A    between atoms: C_11  and  O_12
REMARK    4  A    between atoms: O_12  and  C_13
REMARK    5  A    between atoms: C_17  and  S_18
REMARK    6  A    between atoms: S_18  and  N_21
REMARK                            x       y       z     vdW  Elec       q    Type
REMARK                         _______ _______ _______ _____ _____    ______ ____
ROOT
ATOM      1  C   UNL     1       1.861   7.350  19.286  0.00  0.00    +0.000 A 
ATOM      2  C   UNL     1       1.427   7.586  20.589  0.00  0.00    +0.000 A 
ATOM      3  C   UNL     1       1.010   8.864  20.962  0.00  0.00    +0.000 A 
ATOM      4  F   UNL     1       0.591   9.045  22.224  0.00  0.00    +0.000 F 
ATOM      5  C   UNL     1       1.015   9.910  20.047  0.00  0.00    +0.000 A 
ATOM      6  C   UNL     1       1.438   9.682  18.730  0.00  0.00    +0.000 A 
ATOM      7  C   UNL     1       1.842   8.403  18.365  0.00  0.00    +0.000 A 
ATOM      8  F   UNL     1       2.256   8.197  17.104  0.00  0.00    +0.000 F 
ENDROOT
BRANCH   5   9
ATOM      9  S   UNL     1       0.579  11.546  20.552  0.00  0.00    +0.000 S 
ATOM     10  O   UNL     1      -0.692  11.509  21.240  0.00  0.00    +0.000 OA
ATOM     11  O   UNL     1       1.747  12.094  21.207  0.00  0.00    +0.000 OA
BRANCH   9  12
ATOM     12  N   UNL     1       0.416  12.401  19.113  0.00  0.00    +0.000 N 
ATOM     13  C   UNL     1       1.322  13.456  18.895  0.00  0.00    +0.000 A 
ATOM     14  C   UNL     1       2.591  13.236  18.417  0.00  0.00    +0.000 A 
ATOM     15  C   UNL     1       3.331  14.372  18.207  0.00  0.00    +0.000 A 
ATOM     16  N   UNL     1       2.874  15.610  18.475  0.00  0.00    +0.000 NA
ATOM     17  C   UNL     1       1.628  15.687  18.964  0.00  0.00    +0.000 A 
ATOM     18  N   UNL     1       0.806  14.652  19.189  0.00  0.00    +0.000 NA
ATOM     19  H   UNL     1      -0.549  12.703  18.977  0.00  0.00    +0.000 HD
ENDBRANCH   9  12
ENDBRANCH   5   9
BRANCH   1  20
ATOM     20  O   UNL     1       2.285   6.141  18.826  0.00  0.00    +0.000 OA
BRANCH  20  25
ATOM     21  C   UNL     1       4.290   5.101  17.825  0.00  0.00    +0.000 C 
ATOM     22  C   UNL     1       3.635   3.717  17.861  0.00  0.00    +0.000 C 
ATOM     23  C   UNL     1       3.576   3.344  19.340  0.00  0.00    +0.000 C 
ATOM     24  C   UNL     1       3.607   4.661  20.120  0.00  0.00    +0.000 C 
ATOM     25  C   UNL     1       3.665   5.777  19.066  0.00  0.00    +0.000 C 
BRANCH  21  31
ATOM     26  C   UNL     1       6.056   3.936  15.554  0.00  0.00    +0.000 C 
ATOM     27  N   UNL     1       6.537   4.484  16.803  0.00  0.00    +0.000 N 
ATOM     28  N   UNL     1       7.861   4.463  17.042  0.00  0.00    +0.000 NA
ATOM     29  C   UNL     1       7.978   4.974  18.265  0.00  0.00    +0.000 A 
ATOM     30  C   UNL     1       6.737   5.341  18.805  0.00  0.00    +0.000 A 
ATOM     31  C   UNL     1       5.798   5.009  17.843  0.00  0.00    +0.000 A 
ENDBRANCH  21  31
ENDBRANCH  20  25
ENDBRANCH   1  20
TORSDOF 5
ENDMDL
MODEL 9
REMARK VINA RESULT:      -8.4      1.081      1.342
REMARK  Name = 
REMARK  6 active torsions:
REMARK  status: ('A' for Active; 'I' for Inactive)
REMARK    1  A    between atoms: C_1  and  N_2
REMARK    2  A    between atoms: C_6  and  C_7
REMARK    3  A    between atoms: C_11  and  O_12
REMARK    4  A    between atoms: O_12  and  C_13
REMARK    5  A    between atoms: C_17  and  S_18
REMARK    6  A    between atoms: S_18  and  N_21
REMARK                            x       y       z     vdW  Elec       q    Type
REMARK                         _______ _______ _______ _____ _____    ______ ____
ROOT
ATOM      1  C   UNL     1       1.906   7.001  19.050  0.00  0.00    +0.000 A 
ATOM      2  C   UNL     1       1.978   8.115  18.217  0.00  0.00    +0.000 A 
ATOM      3  C   UNL     1       1.603   9.370  18.700  0.00  0.00    +0.000 A 
ATOM      4  F   UNL     1       1.697  10.417  17.867  0.00  0.00    +0.000 F 
ATOM      5  C   UNL     1       1.164   9.526  20.009  0.00  0.00    +0.000 A 
ATOM      6  C   UNL     1       1.099   8.415  20.860  0.00  0.00    +0.000 A 
ATOM      7  C   UNL     1       1.483   7.171  20.373  0.00  0.00    +0.000 A 
ATOM      8  F   UNL     1       1.407   6.109  21.194  0.00  0.00    +0.000 F 
ENDROOT
BRANCH   5   9
ATOM      9  S   UNL     1       0.600  11.098  20.584  0.00  0.00    +0.000 S 
ATOM     10  O   UNL     1      -0.447  10.900  21.561  0.00  0.00    +0.000 OA
ATOM     11  O   UNL     1       1.783  11.856  20.928  0.00  0.00    +0.000 OA
BRANCH   9  12
ATOM     12  N   UNL     1      -0.040  11.841  19.217  0.00  0.00    +0.000 N 
ATOM     13  C   UNL     1      -1.399  11.599  18.940  0.00  0.00    +0.000 A 
ATOM     14  C   UNL     1      -2.404  12.290  19.572  0.00  0.00    +0.000 A 
ATOM     15  C   UNL     1      -3.670  11.976  19.152  0.00  0.00    +0.000 A 
ATOM     16  N   UNL     1      -3.927  11.042  18.216  0.00  0.00    +0.000 NA
ATOM     17  C   UNL     1      -2.860  10.418  17.695  0.00  0.00    +0.000 A 
ATOM     18  N   UNL     1      -1.579  10.656  18.012  0.00  0.00    +0.000 NA
ATOM     19  H   UNL     1       0.545  11.665  18.400  0.00  0.00    +0.000 HD
ENDBRANCH   9  12
ENDBRANCH   5   9
BRANCH   1  20
ATOM     20  O   UNL     1       2.248   5.738  18.674  0.00  0.00    +0.000 OA
BRANCH  20  25
ATOM     21  C   UNL     1       4.216   4.859  17.467  0.00  0.00    +0.000 C 
ATOM     22  C   UNL     1       3.560   3.482  17.325  0.00  0.00    +0.000 C 
ATOM     23  C   UNL     1       3.551   2.900  18.736  0.00  0.00    +0.000 C 
ATOM     24  C   UNL     1       3.610   4.091  19.696  0.00  0.00    +0.000 C 
ATOM     25  C   UNL     1       3.635   5.348  18.812  0.00  0.00    +0.000 C 
BRANCH  21  31
ATOM     26  C   UNL     1       5.909   4.189  14.953  0.00  0.00    +0.000 C 
ATOM     27  N   UNL     1       6.429   4.471  16.273  0.00  0.00    +0.000 N 
ATOM     28  N   UNL     1       7.760   4.407  16.462  0.00  0.00    +0.000 NA
ATOM     29  C   UNL     1       7.915   4.657  17.760  0.00  0.00    +0.000 A 
ATOM     30  C   UNL     1       6.692   4.901  18.400  0.00  0.00    +0.000 A 
ATOM     31  C   UNL     1       5.724   4.771  17.420  0.00  0.00    +0.000 A 
ENDBRANCH  21  31
ENDBRANCH  20  25
ENDBRANCH   1  20
TORSDOF 5
ENDMDL
