MODEL 1
REMARK VINA RESULT:     -10.4      0.000      0.000
REMARK  Name = 
REMARK  5 active torsions:
REMARK  status: ('A' for Active; 'I' for Inactive)
REMARK    1  A    between atoms: C_1  and  C_2
REMARK    2  A    between atoms: N_4  and  C_5
REMARK    3  A    between atoms: C_9  and  C_10
REMARK    4  A    between atoms: C_17  and  C_18
REMARK    5  A    between atoms: N_20  and  C_21
REMARK                            x       y       z     vdW  Elec       q    Type
REMARK                         _______ _______ _______ _____ _____    ______ ____
ROOT
ATOM      1  C   UNL     1       2.647   5.551  19.463  0.00  0.00    +0.000 A 
ATOM      2  C   UNL     1       1.678   4.586  19.795  0.00  0.00    +0.000 A 
ATOM      3  C   UNL     1       2.033   3.239  19.908  0.00  0.00    +0.000 A 
ATOM      4  N   UNL     1       3.278   2.763  19.708  0.00  0.00    +0.000 NA
ATOM      5  C   UNL     1       4.184   3.697  19.413  0.00  0.00    +0.000 A 
ATOM      6  C   UNL     1       3.944   5.055  19.307  0.00  0.00    +0.000 A 
ATOM      7  C   UNL     1       5.224   5.730  18.993  0.00  0.00    +0.000 C 
ATOM      8  C   UNL     1       6.178   4.534  18.884  0.00  0.00    +0.000 C 
ATOM      9  O   UNL     1       5.481   3.311  19.149  0.00  0.00    +0.000 OA
ENDROOT
BRANCH   1  14
ATOM     10  C   UNL     1       1.283   9.084  20.085  0.00  0.00    +0.000 A 
ATOM     11  C   UNL     1       1.401   9.639  18.813  0.00  0.00    +0.000 A 
ATOM     12  C   UNL     1       1.957   8.901  17.775  0.00  0.00    +0.000 A 
ATOM     13  C   UNL     1       2.399   7.598  17.999  0.00  0.00    +0.000 A 
ATOM     14  C   UNL     1       2.273   6.978  19.253  0.00  0.00    +0.000 A 
ATOM     15  C   UNL     1       1.732   7.767  20.298  0.00  0.00    +0.000 A 
BRANCH  10  19
ATOM     16  C   UNL     1      -0.716  10.382  23.015  0.00  0.00    +0.000 C 
ATOM     17  C   UNL     1      -0.296   9.356  21.997  0.00  0.00    +0.000 C 
ATOM     18  O   UNL     1      -0.848   8.260  21.960  0.00  0.00    +0.000 OA
ATOM     19  N   UNL     1       0.730   9.796  21.174  0.00  0.00    +0.000 N 
ATOM     20  H   UNL     1       1.191  10.659  21.435  0.00  0.00    +0.000 HD
ENDBRANCH  10  19
ENDBRANCH   1  14
BRANCH   8  21
ATOM     21  C   UNL     1       6.891   4.544  17.526  0.00  0.00    +0.000 C 
ATOM     22  O   UNL     1       8.101   4.353  17.461  0.00  0.00    +0.000 OA
ATOM     23  N   UNL     1       6.040   4.704  16.445  0.00  0.00    +0.000 N 
ATOM     24  H   UNL     1       5.102   5.030  16.664  0.00  0.00    +0.000 HD
BRANCH  23  25
ATOM     25  C   UNL     1       6.418   4.633  15.087  0.00  0.00    +0.000 A 
ATOM     26  C   UNL     1       7.510   5.341  14.566  0.00  0.00    +0.000 A 
ATOM     27  C   UNL     1       7.839   5.263  13.212  0.00  0.00    +0.000 A 
ATOM     28  C   UNL     1       7.080   4.467  12.368  0.00  0.00    +0.000 A 
ATOM     29  F   UNL     1       7.404   4.414  11.068  0.00  0.00    +0.000 F 
ATOM     30  C   UNL     1       6.004   3.738  12.871  0.00  0.00    +0.000 A 
ATOM     31 CL   UNL     1       5.058   2.753  11.822  0.00  0.00    +0.000 Cl
ATOM     32  C   UNL     1       5.676   3.810  14.231  0.00  0.00    +0.000 A 
ENDBRANCH  23  25
ENDBRANCH   8  21
TORSDOF 4
ENDMDL
MODEL 2
REMARK VINA RESULT:     -10.0      0.974      1.313
REMARK  Name = 
REMARK  5 active torsions:
REMARK  status: ('A' for Active; 'I' for Inactive)
REMARK    1  A    between atoms: C_1  and  C_2
REMARK    2  A    between atoms: N_4  and  C_5
REMARK    3  A    between atoms: C_9  and  C_10
REMARK    4  A    between atoms: C_17  and  C_18
REMARK    5  A    between atoms: N_20  and  C_21
REMARK                            x       y       z     vdW  Elec       q    Type
REMARK                         _______ _______ _______ _____ _____    ______ ____
ROOT
ATOM      1  C   UNL     1       2.598   5.648  19.684  0.00  0.00    +0.000 A 
ATOM      2  C   UNL     1       1.655   4.694  20.108  0.00  0.00    +0.000 A 
ATOM      3  C   UNL     1       2.029   3.358  20.278  0.00  0.00    +0.000 A 
ATOM      4  N   UNL     1       3.270   2.883  20.050  0.00  0.00    +0.000 NA
ATOM      5  C   UNL     1       4.152   3.807  19.668  0.00  0.00    +0.000 A 
ATOM      6  C   UNL     1       3.893   5.155  19.500  0.00  0.00    +0.000 A 
ATOM      7  C   UNL     1       5.151   5.825  19.097  0.00  0.00    +0.000 C 
ATOM      8  C   UNL     1       6.113   4.633  19.011  0.00  0.00    +0.000 C 
ATOM      9  O   UNL     1       5.441   3.419  19.370  0.00  0.00    +0.000 OA
ENDROOT
BRANCH   1  14
ATOM     10  C   UNL     1       1.167   9.178  20.155  0.00  0.00    +0.000 A 
ATOM     11  C   UNL     1       1.283   9.683  18.862  0.00  0.00    +0.000 A 
ATOM     12  C   UNL     1       1.858   8.914  17.858  0.00  0.00    +0.000 A 
ATOM     13  C   UNL     1       2.322   7.629  18.137  0.00  0.00    +0.000 A 
ATOM     14  C   UNL     1       2.200   7.058  19.414  0.00  0.00    +0.000 A 
ATOM     15  C   UNL     1       1.638   7.879  20.423  0.00  0.00    +0.000 A 
BRANCH  10  19
ATOM     16  C   UNL     1      -0.827  10.527  23.064  0.00  0.00    +0.000 C 
ATOM     17  C   UNL     1      -0.358   9.463  22.108  0.00  0.00    +0.000 C 
ATOM     18  O   UNL     1      -0.814   8.326  22.176  0.00  0.00    +0.000 OA
ATOM     19  N   UNL     1       0.595   9.923  21.212  0.00  0.00    +0.000 N 
ATOM     20  H   UNL     1       0.988  10.839  21.388  0.00  0.00    +0.000 HD
ENDBRANCH  10  19
ENDBRANCH   1  14
BRANCH   8  21
ATOM     21  C   UNL     1       6.768   4.576  17.626  0.00  0.00    +0.000 C 
ATOM     22  O   UNL     1       7.979   4.408  17.520  0.00  0.00    +0.000 OA
ATOM     23  N   UNL     1       5.870   4.651  16.575  0.00  0.00    +0.000 N 
ATOM     24  H   UNL     1       4.933   4.969  16.813  0.00  0.00    +0.000 HD
BRANCH  23  25
ATOM     25  C   UNL     1       6.192   4.507  15.208  0.00  0.00    +0.000 A 
ATOM     26  C   UNL     1       5.484   3.656  14.348  0.00  0.00    +0.000 A 
ATOM     27  C   UNL     1       5.846   3.523  13.007  0.00  0.00    +0.000 A 
ATOM     28  C   UNL     1       6.920   4.249  12.513  0.00  0.00    +0.000 A 
ATOM     29  F   UNL     1       7.261   4.099  11.226  0.00  0.00    +0.000 F 
ATOM     30  C   UNL     1       7.623   5.116  13.347  0.00  0.00    +0.000 A 
ATOM     31 CL   UNL     1       8.959   6.015  12.735  0.00  0.00    +0.000 Cl
ATOM     32  C   UNL     1       7.256   5.256  14.692  0.00  0.00    +0.000 A 
ENDBRANCH  23  25
ENDBRANCH   8  21
TORSDOF 4
ENDMDL
MODEL 3
REMARK VINA RESULT:      -9.0      1.159      1.170
REMARK  Name = 
REMARK  5 active torsions:
REMARK  status: ('A' for Active; 'I' for Inactive)
REMARK    1  A    between atoms: C_1  and  C_2
REMARK    2  A    between atoms: N_4  and  C_5
REMARK    3  A    between atoms: C_9  and  C_10
REMARK    4  A    between atoms: C_17  and  C_18
REMARK    5  A    between atoms: N_20  and  C_21
REMARK                            x       y       z     vdW  Elec       q    Type
REMARK                         _______ _______ _______ _____ _____    ______ ____
ROOT
ATOM      1  C   UNL     1       2.328   5.861  20.071  0.00  0.00    +0.000 A 
ATOM      2  C   UNL     1       1.561   5.067  20.944  0.00  0.00    +0.000 A 
ATOM      3  C   UNL     1       1.891   3.725  21.153  0.00  0.00    +0.000 A 
ATOM      4  N   UNL     1       2.922   3.096  20.556  0.00  0.00    +0.000 NA
ATOM      5  C   UNL     1       3.648   3.872  19.748  0.00  0.00    +0.000 A 
ATOM      6  C   UNL     1       3.424   5.213  19.497  0.00  0.00    +0.000 A 
ATOM      7  C   UNL     1       4.474   5.693  18.568  0.00  0.00    +0.000 C 
ATOM      8  C   UNL     1       5.259   4.401  18.306  0.00  0.00    +0.000 C 
ATOM      9  O   UNL     1       4.702   3.315  19.056  0.00  0.00    +0.000 OA
ENDROOT
BRANCH   1  14
ATOM     10  C   UNL     1       0.621   9.291  20.287  0.00  0.00    +0.000 A 
ATOM     11  C   UNL     1       1.068   9.882  19.108  0.00  0.00    +0.000 A 
ATOM     12  C   UNL     1       1.948   9.203  18.273  0.00  0.00    +0.000 A 
ATOM     13  C   UNL     1       2.387   7.923  18.610  0.00  0.00    +0.000 A 
ATOM     14  C   UNL     1       1.942   7.267  19.769  0.00  0.00    +0.000 A 
ATOM     15  C   UNL     1       1.071   7.999  20.614  0.00  0.00    +0.000 A 
BRANCH  10  19
ATOM     16  C   UNL     1      -1.247  10.780  23.212  0.00  0.00    +0.000 C 
ATOM     17  C   UNL     1      -0.077  10.120  22.534  0.00  0.00    +0.000 C 
ATOM     18  O   UNL     1       0.915   9.801  23.183  0.00  0.00    +0.000 OA
ATOM     19  N   UNL     1      -0.269   9.944  21.172  0.00  0.00    +0.000 N 
ATOM     20  H   UNL     1      -1.066  10.407  20.756  0.00  0.00    +0.000 HD
ENDBRANCH  10  19
ENDBRANCH   1  14
BRANCH   8  21
ATOM     21  C   UNL     1       5.336   4.121  16.800  0.00  0.00    +0.000 C 
ATOM     22  O   UNL     1       4.388   3.603  16.218  0.00  0.00    +0.000 OA
ATOM     23  N   UNL     1       6.501   4.571  16.202  0.00  0.00    +0.000 N 
ATOM     24  H   UNL     1       7.261   4.811  16.835  0.00  0.00    +0.000 HD
BRANCH  23  25
ATOM     25  C   UNL     1       6.775   4.545  14.817  0.00  0.00    +0.000 A 
ATOM     26  C   UNL     1       7.701   5.406  14.212  0.00  0.00    +0.000 A 
ATOM     27  C   UNL     1       7.929   5.366  12.836  0.00  0.00    +0.000 A 
ATOM     28  C   UNL     1       7.234   4.455  12.054  0.00  0.00    +0.000 A 
ATOM     29  F   UNL     1       7.458   4.439  10.732  0.00  0.00    +0.000 F 
ATOM     30  C   UNL     1       6.326   3.576  12.640  0.00  0.00    +0.000 A 
ATOM     31 CL   UNL     1       5.461   2.448  11.668  0.00  0.00    +0.000 Cl
ATOM     32  C   UNL     1       6.101   3.611  14.022  0.00  0.00    +0.000 A 
ENDBRANCH  23  25
ENDBRANCH   8  21
TORSDOF 4
ENDMDL
MODEL 4
REMARK VINA RESULT:      -8.8      5.165      6.588
REMARK  Name = 
REMARK  5 active torsions:
REMARK  status: ('A' for Active; 'I' for Inactive)
REMARK    1  A    between atoms: C_1  and  C_2
REMARK    2  A    between atoms: N_4  and  C_5
REMARK    3  A    between atoms: C_9  and  C_10
REMARK    4  A    between atoms: C_17  and  C_18
REMARK    5  A    between atoms: N_20  and  C_21
REMARK                            x       y       z     vdW  Elec       q    Type
REMARK                         _______ _______ _______ _____ _____    ______ ____
ROOT
ATOM      1  C   UNL     1       4.777   4.762  17.527  0.00  0.00    +0.000 A 
ATOM      2  C   UNL     1       4.475   4.140  16.301  0.00  0.00    +0.000 A 
ATOM      3  C   UNL     1       5.335   4.277  15.208  0.00  0.00    +0.000 A 
ATOM      4  N   UNL     1       6.476   4.995  15.226  0.00  0.00    +0.000 NA
ATOM      5  C   UNL     1       6.753   5.559  16.403  0.00  0.00    +0.000 A 
ATOM      6  C   UNL     1       5.987   5.461  17.550  0.00  0.00    +0.000 A 
ATOM      7  C   UNL     1       6.668   6.211  18.630  0.00  0.00    +0.000 C 
ATOM      8  C   UNL     1       7.881   6.781  17.884  0.00  0.00    +0.000 C 
ATOM      9  O   UNL     1       7.878   6.349  16.518  0.00  0.00    +0.000 OA
ENDROOT
BRANCH   1  14
ATOM     10  C   UNL     1       2.376   5.828  20.324  0.00  0.00    +0.000 A 
ATOM     11  C   UNL     1       2.166   4.612  20.968  0.00  0.00    +0.000 A 
ATOM     12  C   UNL     1       2.753   3.450  20.481  0.00  0.00    +0.000 A 
ATOM     13  C   UNL     1       3.559   3.495  19.345  0.00  0.00    +0.000 A 
ATOM     14  C   UNL     1       3.831   4.699  18.676  0.00  0.00    +0.000 A 
ATOM     15  C   UNL     1       3.192   5.860  19.178  0.00  0.00    +0.000 A 
BRANCH  10  19
ATOM     16  C   UNL     1       1.050   9.330  20.818  0.00  0.00    +0.000 C 
ATOM     17  C   UNL     1       1.620   8.187  20.023  0.00  0.00    +0.000 C 
ATOM     18  O   UNL     1       1.875   8.329  18.831  0.00  0.00    +0.000 OA
ATOM     19  N   UNL     1       1.796   7.036  20.777  0.00  0.00    +0.000 N 
ATOM     20  H   UNL     1       1.386   7.025  21.702  0.00  0.00    +0.000 HD
ENDBRANCH  10  19
ENDBRANCH   1  14
BRANCH   8  21
ATOM     21  C   UNL     1       7.932   8.306  18.037  0.00  0.00    +0.000 C 
ATOM     22  O   UNL     1       7.045   9.005  17.559  0.00  0.00    +0.000 OA
ATOM     23  N   UNL     1       8.992   8.760  18.803  0.00  0.00    +0.000 N 
ATOM     24  H   UNL     1       9.736   8.087  18.974  0.00  0.00    +0.000 HD
BRANCH  23  25
ATOM     25  C   UNL     1       9.207  10.099  19.194  0.00  0.00    +0.000 A 
ATOM     26  C   UNL     1       9.077  10.531  20.522  0.00  0.00    +0.000 A 
ATOM     27  C   UNL     1       9.276  11.868  20.868  0.00  0.00    +0.000 A 
ATOM     28  C   UNL     1       9.615  12.786  19.884  0.00  0.00    +0.000 A 
ATOM     29  F   UNL     1       9.790  14.068  20.233  0.00  0.00    +0.000 F 
ATOM     30  C   UNL     1       9.770  12.372  18.563  0.00  0.00    +0.000 A 
ATOM     31 CL   UNL     1      10.186  13.512  17.341  0.00  0.00    +0.000 Cl
ATOM     32  C   UNL     1       9.578  11.029  18.215  0.00  0.00    +0.000 A 
ENDBRANCH  23  25
ENDBRANCH   8  21
TORSDOF 4
ENDMDL
MODEL 5
REMARK VINA RESULT:      -8.8      5.307      6.596
REMARK  Name = 
REMARK  5 active torsions:
REMARK  status: ('A' for Active; 'I' for Inactive)
REMARK    1  A    between atoms: C_1  and  C_2
REMARK    2  A    between atoms: N_4  and  C_5
REMARK    3  A    between atoms: C_9  and  C_10
REMARK    4  A    between atoms: C_17  and  C_18
REMARK    5  A    between atoms: N_20  and  C_21
REMARK                            x       y       z     vdW  Elec       q    Type
REMARK                         _______ _______ _______ _____ _____    ______ ____
ROOT
ATOM      1  C   UNL     1       4.665   4.832  17.517  0.00  0.00    +0.000 A 
ATOM      2  C   UNL     1       4.437   4.093  16.342  0.00  0.00    +0.000 A 
ATOM      3  C   UNL     1       5.391   4.080  15.320  0.00  0.00    +0.000 A 
ATOM      4  N   UNL     1       6.558   4.752  15.363  0.00  0.00    +0.000 NA
ATOM      5  C   UNL     1       6.762   5.429  16.495  0.00  0.00    +0.000 A 
ATOM      6  C   UNL     1       5.899   5.484  17.574  0.00  0.00    +0.000 A 
ATOM      7  C   UNL     1       6.521   6.321  18.625  0.00  0.00    +0.000 C 
ATOM      8  C   UNL     1       7.818   6.762  17.933  0.00  0.00    +0.000 C 
ATOM      9  O   UNL     1       7.908   6.185  16.625  0.00  0.00    +0.000 OA
ENDROOT
BRANCH   1  14
ATOM     10  C   UNL     1       2.213   6.289  20.087  0.00  0.00    +0.000 A 
ATOM     11  C   UNL     1       1.772   5.128  20.716  0.00  0.00    +0.000 A 
ATOM     12  C   UNL     1       2.222   3.884  20.290  0.00  0.00    +0.000 A 
ATOM     13  C   UNL     1       3.121   3.790  19.228  0.00  0.00    +0.000 A 
ATOM     14  C   UNL     1       3.624   4.930  18.580  0.00  0.00    +0.000 A 
ATOM     15  C   UNL     1       3.122   6.180  19.017  0.00  0.00    +0.000 A 
BRANCH  10  19
ATOM     16  C   UNL     1       1.134   9.897  20.361  0.00  0.00    +0.000 C 
ATOM     17  C   UNL     1       1.488   8.631  19.628  0.00  0.00    +0.000 C 
ATOM     18  O   UNL     1       1.494   8.607  18.402  0.00  0.00    +0.000 OA
ATOM     19  N   UNL     1       1.780   7.576  20.480  0.00  0.00    +0.000 N 
ATOM     20  H   UNL     1       1.572   7.706  21.462  0.00  0.00    +0.000 HD
ENDBRANCH  10  19
ENDBRANCH   1  14
BRANCH   8  21
ATOM     21  C   UNL     1       7.926   8.292  17.930  0.00  0.00    +0.000 C 
ATOM     22  O   UNL     1       7.128   8.967  17.286  0.00  0.00    +0.000 OA
ATOM     23  N   UNL     1       8.921   8.788  18.754  0.00  0.00    +0.000 N 
ATOM     24  H   UNL     1       9.609   8.112  19.076  0.00  0.00    +0.000 HD
BRANCH  23  25
ATOM     25  C   UNL     1       9.158  10.153  19.024  0.00  0.00    +0.000 A 
ATOM     26  C   UNL     1       9.432  11.089  18.017  0.00  0.00    +0.000 A 
ATOM     27  C   UNL     1       9.683  12.427  18.324  0.00  0.00    +0.000 A 
ATOM     28  C   UNL     1       9.653  12.841  19.647  0.00  0.00    +0.000 A 
ATOM     29  F   UNL     1       9.908  14.128  19.925  0.00  0.00    +0.000 F 
ATOM     30  C   UNL     1       9.360  11.931  20.661  0.00  0.00    +0.000 A 
ATOM     31 CL   UNL     1       9.327  12.445  22.304  0.00  0.00    +0.000 Cl
ATOM     32  C   UNL     1       9.101  10.589  20.353  0.00  0.00    +0.000 A 
ENDBRANCH  23  25
ENDBRANCH   8  21
TORSDOF 4
ENDMDL
MODEL 6
REMARK VINA RESULT:      -8.7      4.513      7.012
REMARK  Name = 
REMARK  5 active torsions:
REMARK  status: ('A' for Active; 'I' for Inactive)
REMARK    1  A    between atoms: C_1  and  C_2
REMARK    2  A    between atoms: N_4  and  C_5
REMARK    3  A    between atoms: C_9  and  C_10
REMARK    4  A    between atoms: C_17  and  C_18
REMARK    5  A    between atoms: N_20  and  C_21
REMARK                            x       y       z     vdW  Elec       q    Type
REMARK                         _______ _______ _______ _____ _____    ______ ____
ROOT
ATOM      1  C   UNL     1      -1.125  10.840  19.863  0.00  0.00    +0.000 A 
ATOM      2  C   UNL     1      -1.587  11.581  20.967  0.00  0.00    +0.000 A 
ATOM      3  C   UNL     1      -0.920  11.513  22.193  0.00  0.00    +0.000 A 
ATOM      4  N   UNL     1       0.174  10.757  22.421  0.00  0.00    +0.000 NA
ATOM      5  C   UNL     1       0.606  10.080  21.356  0.00  0.00    +0.000 A 
ATOM      6  C   UNL     1       0.037  10.100  20.096  0.00  0.00    +0.000 A 
ATOM      7  C   UNL     1       0.844   9.232  19.207  0.00  0.00    +0.000 C 
ATOM      8  C   UNL     1       1.894   8.690  20.186  0.00  0.00    +0.000 C 
ATOM      9  O   UNL     1       1.694   9.244  21.492  0.00  0.00    +0.000 OA
ENDROOT
BRANCH   1  14
ATOM     10  C   UNL     1      -3.782  11.574  17.193  0.00  0.00    +0.000 A 
ATOM     11  C   UNL     1      -3.395  10.691  16.188  0.00  0.00    +0.000 A 
ATOM     12  C   UNL     1      -2.264   9.900  16.347  0.00  0.00    +0.000 A 
ATOM     13  C   UNL     1      -1.509   9.983  17.516  0.00  0.00    +0.000 A 
ATOM     14  C   UNL     1      -1.872  10.831  18.574  0.00  0.00    +0.000 A 
ATOM     15  C   UNL     1      -3.011  11.647  18.368  0.00  0.00    +0.000 A 
BRANCH  10  19
ATOM     16  C   UNL     1      -7.211  13.157  17.176  0.00  0.00    +0.000 C 
ATOM     17  C   UNL     1      -6.197  12.101  17.527  0.00  0.00    +0.000 C 
ATOM     18  O   UNL     1      -6.536  11.102  18.155  0.00  0.00    +0.000 OA
ATOM     19  N   UNL     1      -4.921  12.403  17.076  0.00  0.00    +0.000 N 
ATOM     20  H   UNL     1      -4.768  13.338  16.720  0.00  0.00    +0.000 HD
ENDBRANCH  10  19
ENDBRANCH   1  14
BRANCH   8  21
ATOM     21  C   UNL     1       1.893   7.156  20.172  0.00  0.00    +0.000 C 
ATOM     22  O   UNL     1       1.165   6.531  20.936  0.00  0.00    +0.000 OA
ATOM     23  N   UNL     1       2.705   6.602  19.197  0.00  0.00    +0.000 N 
ATOM     24  H   UNL     1       3.378   7.233  18.768  0.00  0.00    +0.000 HD
BRANCH  23  25
ATOM     25  C   UNL     1       2.798   5.227  18.892  0.00  0.00    +0.000 A 
ATOM     26  C   UNL     1       2.105   4.637  17.825  0.00  0.00    +0.000 A 
ATOM     27  C   UNL     1       2.205   3.270  17.568  0.00  0.00    +0.000 A 
ATOM     28  C   UNL     1       3.010   2.479  18.376  0.00  0.00    +0.000 A 
ATOM     29  F   UNL     1       3.085   1.165  18.121  0.00  0.00    +0.000 F 
ATOM     30  C   UNL     1       3.724   3.050  19.427  0.00  0.00    +0.000 A 
ATOM     31 CL   UNL     1       4.720   2.067  20.432  0.00  0.00    +0.000 Cl
ATOM     32  C   UNL     1       3.630   4.424  19.682  0.00  0.00    +0.000 A 
ENDBRANCH  23  25
ENDBRANCH   8  21
TORSDOF 4
ENDMDL
MODEL 7
REMARK VINA RESULT:      -8.6      5.119      6.300
REMARK  Name = 
REMARK  5 active torsions:
REMARK  status: ('A' for Active; 'I' for Inactive)
REMARK    1  A    between atoms: C_1  and  C_2
REMARK    2  A    between atoms: N_4  and  C_5
REMARK    3  A    between atoms: C_9  and  C_10
REMARK    4  A    between atoms: C_17  and  C_18
REMARK    5  A    between atoms: N_20  and  C_21
REMARK                            x       y       z     vdW  Elec       q    Type
REMARK                         _______ _______ _______ _____ _____    ______ ____
ROOT
ATOM      1  C   UNL     1       4.516   5.141  17.778  0.00  0.00    +0.000 A 
ATOM      2  C   UNL     1       4.241   4.351  16.646  0.00  0.00    +0.000 A 
ATOM      3  C   UNL     1       5.213   4.169  15.659  0.00  0.00    +0.000 A 
ATOM      4  N   UNL     1       6.444   4.718  15.696  0.00  0.00    +0.000 NA
ATOM      5  C   UNL     1       6.690   5.446  16.786  0.00  0.00    +0.000 A 
ATOM      6  C   UNL     1       5.811   5.663  17.832  0.00  0.00    +0.000 A 
ATOM      7  C   UNL     1       6.492   6.500  18.846  0.00  0.00    +0.000 C 
ATOM      8  C   UNL     1       7.844   6.756  18.168  0.00  0.00    +0.000 C 
ATOM      9  O   UNL     1       7.906   6.085  16.904  0.00  0.00    +0.000 OA
ENDROOT
BRANCH   1  14
ATOM     10  C   UNL     1       1.927   6.990  19.926  0.00  0.00    +0.000 A 
ATOM     11  C   UNL     1       1.593   5.999  20.845  0.00  0.00    +0.000 A 
ATOM     12  C   UNL     1       2.158   4.733  20.749  0.00  0.00    +0.000 A 
ATOM     13  C   UNL     1       3.067   4.447  19.731  0.00  0.00    +0.000 A 
ATOM     14  C   UNL     1       3.465   5.417  18.798  0.00  0.00    +0.000 A 
ATOM     15  C   UNL     1       2.847   6.688  18.904  0.00  0.00    +0.000 A 
BRANCH  10  19
ATOM     16  C   UNL     1       0.493  10.357  20.856  0.00  0.00    +0.000 C 
ATOM     17  C   UNL     1       1.182   9.046  21.125  0.00  0.00    +0.000 C 
ATOM     18  O   UNL     1       1.514   8.745  22.267  0.00  0.00    +0.000 OA
ATOM     19  N   UNL     1       1.374   8.290  19.978  0.00  0.00    +0.000 N 
ATOM     20  H   UNL     1       1.195   8.744  19.092  0.00  0.00    +0.000 HD
ENDBRANCH  10  19
ENDBRANCH   1  14
BRANCH   8  21
ATOM     21  C   UNL     1       8.114   8.262  18.069  0.00  0.00    +0.000 C 
ATOM     22  O   UNL     1       7.531   8.941  17.229  0.00  0.00    +0.000 OA
ATOM     23  N   UNL     1       8.980   8.744  19.036  0.00  0.00    +0.000 N 
ATOM     24  H   UNL     1       9.518   8.043  19.539  0.00  0.00    +0.000 HD
BRANCH  23  25
ATOM     25  C   UNL     1       9.305  10.102  19.242  0.00  0.00    +0.000 A 
ATOM     26  C   UNL     1       9.153  10.739  20.482  0.00  0.00    +0.000 A 
ATOM     27  C   UNL     1       9.465  12.089  20.642  0.00  0.00    +0.000 A 
ATOM     28  C   UNL     1       9.940  12.814  19.559  0.00  0.00    +0.000 A 
ATOM     29  F   UNL     1      10.223  14.114  19.728  0.00  0.00    +0.000 F 
ATOM     30  C   UNL     1      10.119  12.194  18.324  0.00  0.00    +0.000 A 
ATOM     31 CL   UNL     1      10.705  13.096  16.979  0.00  0.00    +0.000 Cl
ATOM     32  C   UNL     1       9.813  10.837  18.164  0.00  0.00    +0.000 A 
ENDBRANCH  23  25
ENDBRANCH   8  21
TORSDOF 4
ENDMDL
MODEL 8
REMARK VINA RESULT:      -8.5      4.254      7.127
REMARK  Name = 
REMARK  5 active torsions:
REMARK  status: ('A' for Active; 'I' for Inactive)
REMARK    1  A    between atoms: C_1  and  C_2
REMARK    2  A    between atoms: N_4  and  C_5
REMARK    3  A    between atoms: C_9  and  C_10
REMARK    4  A    between atoms: C_17  and  C_18
REMARK    5  A    between atoms: N_20  and  C_21
REMARK                            x       y       z     vdW  Elec       q    Type
REMARK                         _______ _______ _______ _____ _____    ______ ____
ROOT
ATOM      1  C   UNL     1       0.277  12.377  19.922  0.00  0.00    +0.000 A 
ATOM      2  C   UNL     1       0.975  13.575  19.684  0.00  0.00    +0.000 A 
ATOM      3  C   UNL     1       2.065  13.595  18.810  0.00  0.00    +0.000 A 
ATOM      4  N   UNL     1       2.531  12.514  18.153  0.00  0.00    +0.000 NA
ATOM      5  C   UNL     1       1.842  11.394  18.378  0.00  0.00    +0.000 A 
ATOM      6  C   UNL     1       0.735  11.274  19.198  0.00  0.00    +0.000 A 
ATOM      7  C   UNL     1       0.264   9.871  19.141  0.00  0.00    +0.000 C 
ATOM      8  C   UNL     1       1.315   9.236  18.220  0.00  0.00    +0.000 C 
ATOM      9  O   UNL     1       2.260  10.221  17.786  0.00  0.00    +0.000 OA
ENDROOT
BRANCH   1  14
ATOM     10  C   UNL     1      -3.097  12.979  21.651  0.00  0.00    +0.000 A 
ATOM     11  C   UNL     1      -2.882  12.348  22.873  0.00  0.00    +0.000 A 
ATOM     12  C   UNL     1      -1.682  11.695  23.124  0.00  0.00    +0.000 A 
ATOM     13  C   UNL     1      -0.682  11.668  22.153  0.00  0.00    +0.000 A 
ATOM     14  C   UNL     1      -0.832  12.316  20.916  0.00  0.00    +0.000 A 
ATOM     15  C   UNL     1      -2.079  12.945  20.679  0.00  0.00    +0.000 A 
BRANCH  10  19
ATOM     16  C   UNL     1      -6.606  14.036  20.739  0.00  0.00    +0.000 C 
ATOM     17  C   UNL     1      -5.535  13.052  21.126  0.00  0.00    +0.000 C 
ATOM     18  O   UNL     1      -5.797  11.857  21.221  0.00  0.00    +0.000 OA
ATOM     19  N   UNL     1      -4.303  13.651  21.346  0.00  0.00    +0.000 N 
ATOM     20  H   UNL     1      -4.285  14.662  21.390  0.00  0.00    +0.000 HD
ENDBRANCH  10  19
ENDBRANCH   1  14
BRANCH   8  21
ATOM     21  C   UNL     1       1.968   8.031  18.908  0.00  0.00    +0.000 C 
ATOM     22  O   UNL     1       1.973   7.946  20.132  0.00  0.00    +0.000 OA
ATOM     23  N   UNL     1       2.449   7.074  18.031  0.00  0.00    +0.000 N 
ATOM     24  H   UNL     1       2.537   7.366  17.060  0.00  0.00    +0.000 HD
BRANCH  23  25
ATOM     25  C   UNL     1       2.987   5.822  18.398  0.00  0.00    +0.000 A 
ATOM     26  C   UNL     1       4.351   5.631  18.660  0.00  0.00    +0.000 A 
ATOM     27  C   UNL     1       4.851   4.373  18.999  0.00  0.00    +0.000 A 
ATOM     28  C   UNL     1       3.984   3.294  19.086  0.00  0.00    +0.000 A 
ATOM     29  F   UNL     1       4.483   2.090  19.401  0.00  0.00    +0.000 F 
ATOM     30  C   UNL     1       2.621   3.468  18.851  0.00  0.00    +0.000 A 
ATOM     31 CL   UNL     1       1.546   2.127  18.955  0.00  0.00    +0.000 Cl
ATOM     32  C   UNL     1       2.118   4.731  18.517  0.00  0.00    +0.000 A 
ENDBRANCH  23  25
ENDBRANCH   8  21
TORSDOF 4
ENDMDL
MODEL 9
REMARK VINA RESULT:      -8.5      4.487      8.654
REMARK  Name = 
REMARK  5 active torsions:
REMARK  status: ('A' for Active; 'I' for Inactive)
REMARK    1  A    between atoms: C_1  and  C_2
REMARK    2  A    between atoms: N_4  and  C_5
REMARK    3  A    between atoms: C_9  and  C_10
REMARK    4  A    between atoms: C_17  and  C_18
REMARK    5  A    between atoms: N_20  and  C_21
REMARK                            x       y       z     vdW  Elec       q    Type
REMARK                         _______ _______ _______ _____ _____    ______ ____
ROOT
ATOM      1  C   UNL     1       4.164   3.839  18.907  0.00  0.00    +0.000 A 
ATOM      2  C   UNL     1       4.557   2.681  19.603  0.00  0.00    +0.000 A 
ATOM      3  C   UNL     1       3.840   2.253  20.723  0.00  0.00    +0.000 A 
ATOM      4  N   UNL     1       2.761   2.890  21.222  0.00  0.00    +0.000 NA
ATOM      5  C   UNL     1       2.395   3.973  20.535  0.00  0.00    +0.000 A 
ATOM      6  C   UNL     1       3.016   4.463  19.401  0.00  0.00    +0.000 A 
ATOM      7  C   UNL     1       2.275   5.661  18.945  0.00  0.00    +0.000 C 
ATOM      8  C   UNL     1       1.201   5.785  20.033  0.00  0.00    +0.000 C 
ATOM      9  O   UNL     1       1.327   4.721  20.985  0.00  0.00    +0.000 OA
ENDROOT
BRANCH   1  14
ATOM     10  C   UNL     1       6.314   6.152  16.725  0.00  0.00    +0.000 A 
ATOM     11  C   UNL     1       6.349   5.432  15.534  0.00  0.00    +0.000 A 
ATOM     12  C   UNL     1       5.726   4.193  15.445  0.00  0.00    +0.000 A 
ATOM     13  C   UNL     1       5.060   3.662  16.549  0.00  0.00    +0.000 A 
ATOM     14  C   UNL     1       4.966   4.360  17.763  0.00  0.00    +0.000 A 
ATOM     15  C   UNL     1       5.638   5.605  17.831  0.00  0.00    +0.000 A 
BRANCH  10  19
ATOM     16  C   UNL     1       8.257   9.212  17.785  0.00  0.00    +0.000 C 
ATOM     17  C   UNL     1       7.838   7.768  17.860  0.00  0.00    +0.000 C 
ATOM     18  O   UNL     1       8.292   7.037  18.734  0.00  0.00    +0.000 OA
ATOM     19  N   UNL     1       6.937   7.414  16.866  0.00  0.00    +0.000 N 
ATOM     20  H   UNL     1       6.786   8.082  16.122  0.00  0.00    +0.000 HD
ENDBRANCH  10  19
ENDBRANCH   1  14
BRANCH   8  21
ATOM     21  C   UNL     1       1.248   7.178  20.672  0.00  0.00    +0.000 C 
ATOM     22  O   UNL     1       2.316   7.771  20.786  0.00  0.00    +0.000 OA
ATOM     23  N   UNL     1       0.004   7.685  21.010  0.00  0.00    +0.000 N 
ATOM     24  H   UNL     1      -0.760   7.013  21.026  0.00  0.00    +0.000 HD
BRANCH  23  25
ATOM     25  C   UNL     1      -0.245   8.984  21.503  0.00  0.00    +0.000 A 
ATOM     26  C   UNL     1      -0.526   9.243  22.852  0.00  0.00    +0.000 A 
ATOM     27  C   UNL     1      -0.790  10.538  23.298  0.00  0.00    +0.000 A 
ATOM     28  C   UNL     1      -0.767  11.590  22.394  0.00  0.00    +0.000 A 
ATOM     29  F   UNL     1      -1.034  12.827  22.838  0.00  0.00    +0.000 F 
ATOM     30  C   UNL     1      -0.468  11.357  21.053  0.00  0.00    +0.000 A 
ATOM     31 CL   UNL     1      -0.444  12.663  19.931  0.00  0.00    +0.000 Cl
ATOM     32  C   UNL     1      -0.196  10.058  20.605  0.00  0.00    +0.000 A 
ENDBRANCH  23  25
ENDBRANCH   8  21
TORSDOF 4
ENDMDL
