MODEL 1
REMARK VINA RESULT:      -7.1      0.000      0.000
REMARK  Name = 
REMARK  10 active torsions:
REMARK  status: ('A' for Active; 'I' for Inactive)
REMARK    1  A    between atoms: N_3  and  C_4
REMARK    2  A    between atoms: C_4  and  C_6
REMARK    3  A    between atoms: C_6  and  N_7
REMARK    4  A    between atoms: C_8  and  C_9
REMARK    5  A    between atoms: C_17  and  C_18
REMARK    6  A    between atoms: N_28  and  C_29
REMARK    7  A    between atoms: C_29  and  C_30
REMARK    8  A    between atoms: C_30  and  O_31
REMARK    9  A    between atoms: C_30  and  C_32
REMARK   10  A    between atoms: C_32  and  O_33
REMARK                            x       y       z     vdW  Elec       q    Type
REMARK                         _______ _______ _______ _____ _____    ______ ____
ROOT
ATOM      1  N   UNL     1       1.704   7.849  19.096  0.00  0.00    +0.000 N 
ATOM      2  C   UNL     1       1.139   8.911  19.841  0.00  0.00    +0.000 A 
ATOM      3  C   UNL     1       1.072   8.471  21.152  0.00  0.00    +0.000 A 
ATOM      4  C   UNL     1       1.501   7.139  21.207  0.00  0.00    +0.000 A 
ATOM      5  C   UNL     1       1.850   6.726  19.929  0.00  0.00    +0.000 A 
ENDROOT
BRANCH   5   6
ATOM      6  C   UNL     1       2.327   5.322  19.510  0.00  0.00    +0.000 C 
ATOM      7  C   UNL     1       1.803   4.248  20.529  0.00  0.00    +0.000 C 
ATOM      8  C   UNL     1       2.268   2.831  20.155  0.00  0.00    +0.000 C 
ATOM      9  C   UNL     1       1.721   2.479  18.765  0.00  0.00    +0.000 C 
ATOM     10  C   UNL     1       2.240   3.490  17.736  0.00  0.00    +0.000 C 
ATOM     11  C   UNL     1       3.777   3.453  17.719  0.00  0.00    +0.000 C 
ATOM     12  C   UNL     1       4.333   3.799  19.111  0.00  0.00    +0.000 C 
ATOM     13  C   UNL     1       3.801   2.797  20.141  0.00  0.00    +0.000 C 
ATOM     14  C   UNL     1       3.876   5.213  19.504  0.00  0.00    +0.000 C 
ATOM     15  C   UNL     1       1.760   4.901  18.124  0.00  0.00    +0.000 C 
ENDBRANCH   5   6
BRANCH   2  16
ATOM     16  C   UNL     1       0.799  10.262  19.343  0.00  0.00    +0.000 A 
ATOM     17  C   UNL     1       1.764  11.183  18.930  0.00  0.00    +0.000 A 
ATOM     18  C   UNL     1       1.435  12.506  18.630  0.00  0.00    +0.000 A 
ATOM     19  C   UNL     1       0.104  12.900  18.604  0.00  0.00    +0.000 A 
ATOM     20  C   UNL     1      -0.891  11.966  18.876  0.00  0.00    +0.000 A 
ATOM     21  C   UNL     1      -0.548  10.664  19.260  0.00  0.00    +0.000 A 
ENDBRANCH   2  16
BRANCH   1  22
ATOM     22  C   UNL     1       2.003   7.888  17.665  0.00  0.00    +0.000 C 
BRANCH  22  23
ATOM     23  C   UNL     1       3.454   8.010  17.251  0.00  0.00    +0.000 C 
ATOM     24  O   UNL     1       4.214   8.768  17.863  0.00  0.00    +0.000 OA
BRANCH  23  27
ATOM     25  N   UNL     1       5.345   5.833  15.238  0.00  0.00    +0.000 N 
ATOM     26  C   UNL     1       5.070   6.722  16.221  0.00  0.00    +0.000 C 
ATOM     27  N   UNL     1       3.857   7.157  16.264  0.00  0.00    +0.000 NA
ATOM     28  N   UNL     1       6.141   6.999  17.011  0.00  0.00    +0.000 N 
ATOM     29  H   UNL     1       4.538   5.735  14.627  0.00  0.00    +0.000 HD
ATOM     30  H   UNL     1       6.165   6.071  14.707  0.00  0.00    +0.000 HD
ATOM     31  H   UNL     1       6.025   7.759  17.679  0.00  0.00    +0.000 HD
BRANCH  28  32
ATOM     32  C   UNL     1       7.380   6.227  17.004  0.00  0.00    +0.000 C 
BRANCH  32  33
ATOM     33  C   UNL     1       7.578   5.274  18.184  0.00  0.00    +0.000 C 
BRANCH  33  34
ATOM     34  O   UNL     1       8.332   4.121  17.798  0.00  0.00    +0.000 OA
ATOM     35  H   UNL     1       8.280   3.466  18.514  0.00  0.00    +0.000 HD
ENDBRANCH  33  34
BRANCH  33  36
ATOM     36  C   UNL     1       8.185   5.987  19.398  0.00  0.00    +0.000 C 
BRANCH  36  37
ATOM     37  O   UNL     1       8.140   5.168  20.564  0.00  0.00    +0.000 OA
ATOM     38  H   UNL     1       7.279   4.715  20.581  0.00  0.00    +0.000 HD
ENDBRANCH  36  37
ENDBRANCH  33  36
ENDBRANCH  32  33
ENDBRANCH  28  32
ENDBRANCH  23  27
ENDBRANCH  22  23
ENDBRANCH   1  22
TORSDOF 10
ENDMDL
MODEL 2
REMARK VINA RESULT:      -7.0      0.088      1.309
REMARK  Name = 
REMARK  10 active torsions:
REMARK  status: ('A' for Active; 'I' for Inactive)
REMARK    1  A    between atoms: N_3  and  C_4
REMARK    2  A    between atoms: C_4  and  C_6
REMARK    3  A    between atoms: C_6  and  N_7
REMARK    4  A    between atoms: C_8  and  C_9
REMARK    5  A    between atoms: C_17  and  C_18
REMARK    6  A    between atoms: N_28  and  C_29
REMARK    7  A    between atoms: C_29  and  C_30
REMARK    8  A    between atoms: C_30  and  O_31
REMARK    9  A    between atoms: C_30  and  C_32
REMARK   10  A    between atoms: C_32  and  O_33
REMARK                            x       y       z     vdW  Elec       q    Type
REMARK                         _______ _______ _______ _____ _____    ______ ____
ROOT
ATOM      1  N   UNL     1       1.734   7.837  19.079  0.00  0.00    +0.000 N 
ATOM      2  C   UNL     1       1.161   8.904  19.810  0.00  0.00    +0.000 A 
ATOM      3  C   UNL     1       1.081   8.475  21.124  0.00  0.00    +0.000 A 
ATOM      4  C   UNL     1       1.511   7.144  21.193  0.00  0.00    +0.000 A 
ATOM      5  C   UNL     1       1.872   6.721  19.922  0.00  0.00    +0.000 A 
ENDROOT
BRANCH   5   6
ATOM      6  C   UNL     1       2.353   5.314  19.519  0.00  0.00    +0.000 C 
ATOM      7  C   UNL     1       1.799   4.940  18.099  0.00  0.00    +0.000 C 
ATOM      8  C   UNL     1       2.245   3.535  17.663  0.00  0.00    +0.000 C 
ATOM      9  C   UNL     1       3.778   3.496  17.603  0.00  0.00    +0.000 C 
ATOM     10  C   UNL     1       4.356   3.826  18.984  0.00  0.00    +0.000 C 
ATOM     11  C   UNL     1       3.846   2.796  20.006  0.00  0.00    +0.000 C 
ATOM     12  C   UNL     1       2.309   2.824  20.068  0.00  0.00    +0.000 C 
ATOM     13  C   UNL     1       1.733   2.509  18.683  0.00  0.00    +0.000 C 
ATOM     14  C   UNL     1       1.843   4.224  20.500  0.00  0.00    +0.000 C 
ATOM     15  C   UNL     1       3.903   5.237  19.401  0.00  0.00    +0.000 C 
ENDBRANCH   5   6
BRANCH   2  16
ATOM     16  C   UNL     1       0.825  10.252  19.298  0.00  0.00    +0.000 A 
ATOM     17  C   UNL     1       1.795  11.182  18.920  0.00  0.00    +0.000 A 
ATOM     18  C   UNL     1       1.464  12.502  18.607  0.00  0.00    +0.000 A 
ATOM     19  C   UNL     1       0.131  12.881  18.530  0.00  0.00    +0.000 A 
ATOM     20  C   UNL     1      -0.864  11.938  18.766  0.00  0.00    +0.000 A 
ATOM     21  C   UNL     1      -0.521  10.639  19.164  0.00  0.00    +0.000 A 
ENDBRANCH   2  16
BRANCH   1  22
ATOM     22  C   UNL     1       2.046   7.865  17.651  0.00  0.00    +0.000 C 
BRANCH  22  23
ATOM     23  C   UNL     1       3.502   7.988  17.251  0.00  0.00    +0.000 C 
ATOM     24  O   UNL     1       4.270   8.697  17.907  0.00  0.00    +0.000 OA
BRANCH  23  27
ATOM     25  N   UNL     1       5.359   5.877  15.138  0.00  0.00    +0.000 N 
ATOM     26  C   UNL     1       5.093   6.710  16.171  0.00  0.00    +0.000 C 
ATOM     27  N   UNL     1       3.896   7.185  16.218  0.00  0.00    +0.000 NA
ATOM     28  N   UNL     1       6.156   6.896  16.998  0.00  0.00    +0.000 N 
ATOM     29  H   UNL     1       4.562   5.847  14.506  0.00  0.00    +0.000 HD
ATOM     30  H   UNL     1       6.198   6.118  14.640  0.00  0.00    +0.000 HD
ATOM     31  H   UNL     1       6.052   7.616  17.712  0.00  0.00    +0.000 HD
BRANCH  28  32
ATOM     32  C   UNL     1       7.367   6.081  16.966  0.00  0.00    +0.000 C 
BRANCH  32  33
ATOM     33  C   UNL     1       7.600   5.185  18.184  0.00  0.00    +0.000 C 
BRANCH  33  34
ATOM     34  O   UNL     1       8.446   4.079  17.858  0.00  0.00    +0.000 OA
ATOM     35  H   UNL     1       7.893   3.364  17.502  0.00  0.00    +0.000 HD
ENDBRANCH  33  34
BRANCH  33  36
ATOM     36  C   UNL     1       8.119   5.981  19.387  0.00  0.00    +0.000 C 
BRANCH  36  37
ATOM     37  O   UNL     1       8.266   5.153  20.539  0.00  0.00    +0.000 OA
ATOM     38  H   UNL     1       9.164   5.282  20.890  0.00  0.00    +0.000 HD
ENDBRANCH  36  37
ENDBRANCH  33  36
ENDBRANCH  32  33
ENDBRANCH  28  32
ENDBRANCH  23  27
ENDBRANCH  22  23
ENDBRANCH   1  22
TORSDOF 10
ENDMDL
MODEL 3
REMARK VINA RESULT:      -6.7      0.681      1.552
REMARK  Name = 
REMARK  10 active torsions:
REMARK  status: ('A' for Active; 'I' for Inactive)
REMARK    1  A    between atoms: N_3  and  C_4
REMARK    2  A    between atoms: C_4  and  C_6
REMARK    3  A    between atoms: C_6  and  N_7
REMARK    4  A    between atoms: C_8  and  C_9
REMARK    5  A    between atoms: C_17  and  C_18
REMARK    6  A    between atoms: N_28  and  C_29
REMARK    7  A    between atoms: C_29  and  C_30
REMARK    8  A    between atoms: C_30  and  O_31
REMARK    9  A    between atoms: C_30  and  C_32
REMARK   10  A    between atoms: C_32  and  O_33
REMARK                            x       y       z     vdW  Elec       q    Type
REMARK                         _______ _______ _______ _____ _____    ______ ____
ROOT
ATOM      1  N   UNL     1       1.648   7.765  19.190  0.00  0.00    +0.000 N 
ATOM      2  C   UNL     1       1.137   8.893  19.874  0.00  0.00    +0.000 A 
ATOM      3  C   UNL     1       1.044   8.529  21.206  0.00  0.00    +0.000 A 
ATOM      4  C   UNL     1       1.403   7.181  21.335  0.00  0.00    +0.000 A 
ATOM      5  C   UNL     1       1.734   6.683  20.083  0.00  0.00    +0.000 A 
ENDROOT
BRANCH   5   6
ATOM      6  C   UNL     1       2.138   5.235  19.743  0.00  0.00    +0.000 C 
ATOM      7  C   UNL     1       3.702   5.120  19.646  0.00  0.00    +0.000 C 
ATOM      8  C   UNL     1       4.149   3.692  19.295  0.00  0.00    +0.000 C 
ATOM      9  C   UNL     1       3.666   2.735  20.394  0.00  0.00    +0.000 C 
ATOM     10  C   UNL     1       2.137   2.797  20.495  0.00  0.00    +0.000 C 
ATOM     11  C   UNL     1       1.523   2.395  19.144  0.00  0.00    +0.000 C 
ATOM     12  C   UNL     1       2.007   3.345  18.035  0.00  0.00    +0.000 C 
ATOM     13  C   UNL     1       3.536   3.294  17.946  0.00  0.00    +0.000 C 
ATOM     14  C   UNL     1       1.571   4.782  18.371  0.00  0.00    +0.000 C 
ATOM     15  C   UNL     1       1.710   4.232  20.852  0.00  0.00    +0.000 C 
ENDBRANCH   5   6
BRANCH   2  16
ATOM     16  C   UNL     1       0.868  10.231  19.302  0.00  0.00    +0.000 A 
ATOM     17  C   UNL     1       1.875  11.166  19.057  0.00  0.00    +0.000 A 
ATOM     18  C   UNL     1       1.583  12.479  18.682  0.00  0.00    +0.000 A 
ATOM     19  C   UNL     1       0.271  12.845  18.410  0.00  0.00    +0.000 A 
ATOM     20  C   UNL     1      -0.740  11.895  18.511  0.00  0.00    +0.000 A 
ATOM     21  C   UNL     1      -0.448  10.604  18.970  0.00  0.00    +0.000 A 
ENDBRANCH   2  16
BRANCH   1  22
ATOM     22  C   UNL     1       1.952   7.711  17.761  0.00  0.00    +0.000 C 
BRANCH  22  23
ATOM     23  C   UNL     1       3.403   7.822  17.344  0.00  0.00    +0.000 C 
ATOM     24  O   UNL     1       4.110   8.733  17.787  0.00  0.00    +0.000 OA
BRANCH  23  27
ATOM     25  N   UNL     1       5.480   5.478  15.745  0.00  0.00    +0.000 N 
ATOM     26  C   UNL     1       5.133   6.549  16.496  0.00  0.00    +0.000 C 
ATOM     27  N   UNL     1       3.870   6.802  16.566  0.00  0.00    +0.000 NA
ATOM     28  N   UNL     1       6.197   7.177  17.063  0.00  0.00    +0.000 N 
ATOM     29  H   UNL     1       4.659   5.105  15.275  0.00  0.00    +0.000 HD
ATOM     30  H   UNL     1       6.208   5.679  15.082  0.00  0.00    +0.000 HD
ATOM     31  H   UNL     1       6.004   8.064  17.526  0.00  0.00    +0.000 HD
BRANCH  28  32
ATOM     32  C   UNL     1       7.544   6.616  17.111  0.00  0.00    +0.000 C 
BRANCH  32  33
ATOM     33  C   UNL     1       8.185   6.540  18.497  0.00  0.00    +0.000 C 
BRANCH  33  34
ATOM     34  O   UNL     1       8.531   7.841  18.980  0.00  0.00    +0.000 OA
ATOM     35  H   UNL     1       7.786   8.183  19.503  0.00  0.00    +0.000 HD
ENDBRANCH  33  34
BRANCH  33  36
ATOM     36  C   UNL     1       7.310   5.764  19.489  0.00  0.00    +0.000 C 
BRANCH  36  37
ATOM     37  O   UNL     1       8.049   5.366  20.641  0.00  0.00    +0.000 OA
ATOM     38  H   UNL     1       8.277   4.426  20.542  0.00  0.00    +0.000 HD
ENDBRANCH  36  37
ENDBRANCH  33  36
ENDBRANCH  32  33
ENDBRANCH  28  32
ENDBRANCH  23  27
ENDBRANCH  22  23
ENDBRANCH   1  22
TORSDOF 10
ENDMDL
MODEL 4
REMARK VINA RESULT:      -6.7      4.823      9.980
REMARK  Name = 
REMARK  10 active torsions:
REMARK  status: ('A' for Active; 'I' for Inactive)
REMARK    1  A    between atoms: N_3  and  C_4
REMARK    2  A    between atoms: C_4  and  C_6
REMARK    3  A    between atoms: C_6  and  N_7
REMARK    4  A    between atoms: C_8  and  C_9
REMARK    5  A    between atoms: C_17  and  C_18
REMARK    6  A    between atoms: N_28  and  C_29
REMARK    7  A    between atoms: C_29  and  C_30
REMARK    8  A    between atoms: C_30  and  O_31
REMARK    9  A    between atoms: C_30  and  C_32
REMARK   10  A    between atoms: C_32  and  O_33
REMARK                            x       y       z     vdW  Elec       q    Type
REMARK                         _______ _______ _______ _____ _____    ______ ____
ROOT
ATOM      1  N   UNL     1       0.089  10.800  20.688  0.00  0.00    +0.000 N 
ATOM      2  C   UNL     1       0.573   9.492  20.927  0.00  0.00    +0.000 A 
ATOM      3  C   UNL     1       0.058   9.106  22.152  0.00  0.00    +0.000 A 
ATOM      4  C   UNL     1      -0.655  10.178  22.704  0.00  0.00    +0.000 A 
ATOM      5  C   UNL     1      -0.602  11.251  21.826  0.00  0.00    +0.000 A 
ENDROOT
BRANCH   5   6
ATOM      6  C   UNL     1      -1.204  12.653  22.045  0.00  0.00    +0.000 C 
ATOM      7  C   UNL     1      -0.161  13.757  21.641  0.00  0.00    +0.000 C 
ATOM      8  C   UNL     1      -0.717  15.173  21.858  0.00  0.00    +0.000 C 
ATOM      9  C   UNL     1      -1.968  15.355  20.987  0.00  0.00    +0.000 C 
ATOM     10  C   UNL     1      -3.023  14.313  21.376  0.00  0.00    +0.000 C 
ATOM     11  C   UNL     1      -3.387  14.490  22.859  0.00  0.00    +0.000 C 
ATOM     12  C   UNL     1      -2.137  14.315  23.739  0.00  0.00    +0.000 C 
ATOM     13  C   UNL     1      -1.079  15.348  23.338  0.00  0.00    +0.000 C 
ATOM     14  C   UNL     1      -1.564  12.903  23.534  0.00  0.00    +0.000 C 
ATOM     15  C   UNL     1      -2.450  12.902  21.148  0.00  0.00    +0.000 C 
ENDBRANCH   5   6
BRANCH   2  16
ATOM     16  C   UNL     1       1.372   8.658  20.001  0.00  0.00    +0.000 A 
ATOM     17  C   UNL     1       1.674   9.052  18.696  0.00  0.00    +0.000 A 
ATOM     18  C   UNL     1       2.276   8.181  17.787  0.00  0.00    +0.000 A 
ATOM     19  C   UNL     1       2.716   6.934  18.211  0.00  0.00    +0.000 A 
ATOM     20  C   UNL     1       2.553   6.567  19.543  0.00  0.00    +0.000 A 
ATOM     21  C   UNL     1       1.872   7.413  20.426  0.00  0.00    +0.000 A 
ENDBRANCH   2  16
BRANCH   1  22
ATOM     22  C   UNL     1       0.347  11.588  19.484  0.00  0.00    +0.000 C 
BRANCH  22  23
ATOM     23  C   UNL     1      -0.794  11.775  18.507  0.00  0.00    +0.000 C 
ATOM     24  O   UNL     1      -0.936  12.848  17.914  0.00  0.00    +0.000 OA
BRANCH  23  27
ATOM     25  N   UNL     1      -3.395   9.596  17.580  0.00  0.00    +0.000 N 
ATOM     26  C   UNL     1      -2.763  10.762  17.851  0.00  0.00    +0.000 C 
ATOM     27  N   UNL     1      -1.545  10.661  18.262  0.00  0.00    +0.000 NA
ATOM     28  N   UNL     1      -3.537  11.857  17.629  0.00  0.00    +0.000 N 
ATOM     29  H   UNL     1      -2.804   8.813  17.850  0.00  0.00    +0.000 HD
ATOM     30  H   UNL     1      -4.299   9.525  18.015  0.00  0.00    +0.000 HD
ATOM     31  H   UNL     1      -3.158  12.749  17.943  0.00  0.00    +0.000 HD
BRANCH  28  32
ATOM     32  C   UNL     1      -4.807  11.827  16.908  0.00  0.00    +0.000 C 
BRANCH  32  33
ATOM     33  C   UNL     1      -5.989  12.494  17.612  0.00  0.00    +0.000 C 
BRANCH  33  34
ATOM     34  O   UNL     1      -6.729  13.320  16.709  0.00  0.00    +0.000 OA
ATOM     35  H   UNL     1      -7.675  13.225  16.911  0.00  0.00    +0.000 HD
ENDBRANCH  33  34
BRANCH  33  36
ATOM     36  C   UNL     1      -6.879  11.470  18.327  0.00  0.00    +0.000 C 
BRANCH  36  37
ATOM     37  O   UNL     1      -6.147  10.301  18.689  0.00  0.00    +0.000 OA
ATOM     38  H   UNL     1      -6.075   9.735  17.902  0.00  0.00    +0.000 HD
ENDBRANCH  36  37
ENDBRANCH  33  36
ENDBRANCH  32  33
ENDBRANCH  28  32
ENDBRANCH  23  27
ENDBRANCH  22  23
ENDBRANCH   1  22
TORSDOF 10
ENDMDL
MODEL 5
REMARK VINA RESULT:      -6.7      4.913      9.981
REMARK  Name = 
REMARK  10 active torsions:
REMARK  status: ('A' for Active; 'I' for Inactive)
REMARK    1  A    between atoms: N_3  and  C_4
REMARK    2  A    between atoms: C_4  and  C_6
REMARK    3  A    between atoms: C_6  and  N_7
REMARK    4  A    between atoms: C_8  and  C_9
REMARK    5  A    between atoms: C_17  and  C_18
REMARK    6  A    between atoms: N_28  and  C_29
REMARK    7  A    between atoms: C_29  and  C_30
REMARK    8  A    between atoms: C_30  and  O_31
REMARK    9  A    between atoms: C_30  and  C_32
REMARK   10  A    between atoms: C_32  and  O_33
REMARK                            x       y       z     vdW  Elec       q    Type
REMARK                         _______ _______ _______ _____ _____    ______ ____
ROOT
ATOM      1  N   UNL     1       0.016  10.988  20.767  0.00  0.00    +0.000 N 
ATOM      2  C   UNL     1       0.485   9.672  20.992  0.00  0.00    +0.000 A 
ATOM      3  C   UNL     1      -0.031   9.281  22.216  0.00  0.00    +0.000 A 
ATOM      4  C   UNL     1      -0.729  10.357  22.779  0.00  0.00    +0.000 A 
ATOM      5  C   UNL     1      -0.665  11.438  21.911  0.00  0.00    +0.000 A 
ENDROOT
BRANCH   5   6
ATOM      6  C   UNL     1      -1.248  12.845  22.144  0.00  0.00    +0.000 C 
ATOM      7  C   UNL     1      -2.458  13.095  21.175  0.00  0.00    +0.000 C 
ATOM      8  C   UNL     1      -3.062  14.496  21.365  0.00  0.00    +0.000 C 
ATOM      9  C   UNL     1      -3.570  14.627  22.808  0.00  0.00    +0.000 C 
ATOM     10  C   UNL     1      -2.407  14.419  23.785  0.00  0.00    +0.000 C 
ATOM     11  C   UNL     1      -1.323  15.476  23.513  0.00  0.00    +0.000 C 
ATOM     12  C   UNL     1      -0.812  15.357  22.067  0.00  0.00    +0.000 C 
ATOM     13  C   UNL     1      -1.980  15.548  21.093  0.00  0.00    +0.000 C 
ATOM     14  C   UNL     1      -0.207  13.959  21.856  0.00  0.00    +0.000 C 
ATOM     15  C   UNL     1      -1.819  13.011  23.582  0.00  0.00    +0.000 C 
ENDBRANCH   5   6
BRANCH   2  16
ATOM     16  C   UNL     1       1.269   8.836  20.056  0.00  0.00    +0.000 A 
ATOM     17  C   UNL     1       1.538   9.220  18.741  0.00  0.00    +0.000 A 
ATOM     18  C   UNL     1       2.127   8.345  17.826  0.00  0.00    +0.000 A 
ATOM     19  C   UNL     1       2.587   7.106  18.252  0.00  0.00    +0.000 A 
ATOM     20  C   UNL     1       2.458   6.751  19.591  0.00  0.00    +0.000 A 
ATOM     21  C   UNL     1       1.789   7.599  20.482  0.00  0.00    +0.000 A 
ENDBRANCH   2  16
BRANCH   1  22
ATOM     22  C   UNL     1       0.279  11.783  19.569  0.00  0.00    +0.000 C 
BRANCH  22  23
ATOM     23  C   UNL     1      -0.826  11.891  18.539  0.00  0.00    +0.000 C 
ATOM     24  O   UNL     1      -0.950  12.919  17.865  0.00  0.00    +0.000 OA
BRANCH  23  27
ATOM     25  N   UNL     1      -3.389   9.637  17.693  0.00  0.00    +0.000 N 
ATOM     26  C   UNL     1      -2.772  10.823  17.905  0.00  0.00    +0.000 C 
ATOM     27  N   UNL     1      -1.562  10.758  18.347  0.00  0.00    +0.000 NA
ATOM     28  N   UNL     1      -3.550  11.896  17.600  0.00  0.00    +0.000 N 
ATOM     29  H   UNL     1      -2.798   8.877  18.022  0.00  0.00    +0.000 HD
ATOM     30  H   UNL     1      -4.301   9.585  18.112  0.00  0.00    +0.000 HD
ATOM     31  H   UNL     1      -3.184  12.808  17.867  0.00  0.00    +0.000 HD
BRANCH  28  32
ATOM     32  C   UNL     1      -4.803  11.810  16.857  0.00  0.00    +0.000 C 
BRANCH  32  33
ATOM     33  C   UNL     1      -6.071  12.132  17.648  0.00  0.00    +0.000 C 
BRANCH  33  34
ATOM     34  O   UNL     1      -6.846  10.953  17.887  0.00  0.00    +0.000 OA
ATOM     35  H   UNL     1      -6.401  10.428  18.573  0.00  0.00    +0.000 HD
ENDBRANCH  33  34
BRANCH  33  36
ATOM     36  C   UNL     1      -5.759  12.896  18.940  0.00  0.00    +0.000 C 
BRANCH  36  37
ATOM     37  O   UNL     1      -5.548  12.008  20.036  0.00  0.00    +0.000 OA
ATOM     38  H   UNL     1      -5.505  11.102  19.685  0.00  0.00    +0.000 HD
ENDBRANCH  36  37
ENDBRANCH  33  36
ENDBRANCH  32  33
ENDBRANCH  28  32
ENDBRANCH  23  27
ENDBRANCH  22  23
ENDBRANCH   1  22
TORSDOF 10
ENDMDL
MODEL 6
REMARK VINA RESULT:      -6.5      4.796      9.946
REMARK  Name = 
REMARK  10 active torsions:
REMARK  status: ('A' for Active; 'I' for Inactive)
REMARK    1  A    between atoms: N_3  and  C_4
REMARK    2  A    between atoms: C_4  and  C_6
REMARK    3  A    between atoms: C_6  and  N_7
REMARK    4  A    between atoms: C_8  and  C_9
REMARK    5  A    between atoms: C_17  and  C_18
REMARK    6  A    between atoms: N_28  and  C_29
REMARK    7  A    between atoms: C_29  and  C_30
REMARK    8  A    between atoms: C_30  and  O_31
REMARK    9  A    between atoms: C_30  and  C_32
REMARK   10  A    between atoms: C_32  and  O_33
REMARK                            x       y       z     vdW  Elec       q    Type
REMARK                         _______ _______ _______ _____ _____    ______ ____
ROOT
ATOM      1  N   UNL     1       0.104  10.769  20.717  0.00  0.00    +0.000 N 
ATOM      2  C   UNL     1       0.560   9.448  20.940  0.00  0.00    +0.000 A 
ATOM      3  C   UNL     1       0.018   9.052  22.151  0.00  0.00    +0.000 A 
ATOM      4  C   UNL     1      -0.683  10.128  22.709  0.00  0.00    +0.000 A 
ATOM      5  C   UNL     1      -0.596  11.215  21.851  0.00  0.00    +0.000 A 
ENDROOT
BRANCH   5   6
ATOM      6  C   UNL     1      -1.174  12.624  22.085  0.00  0.00    +0.000 C 
ATOM      7  C   UNL     1      -1.682  12.760  23.565  0.00  0.00    +0.000 C 
ATOM      8  C   UNL     1      -2.280  14.150  23.837  0.00  0.00    +0.000 C 
ATOM      9  C   UNL     1      -1.197  15.212  23.604  0.00  0.00    +0.000 C 
ATOM     10  C   UNL     1      -0.698  15.130  22.157  0.00  0.00    +0.000 C 
ATOM     11  C   UNL     1      -1.878  15.367  21.200  0.00  0.00    +0.000 C 
ATOM     12  C   UNL     1      -2.972  14.310  21.431  0.00  0.00    +0.000 C 
ATOM     13  C   UNL     1      -3.458  14.383  22.883  0.00  0.00    +0.000 C 
ATOM     14  C   UNL     1      -2.391  12.911  21.166  0.00  0.00    +0.000 C 
ATOM     15  C   UNL     1      -0.099  13.734  21.904  0.00  0.00    +0.000 C 
ENDBRANCH   5   6
BRANCH   2  16
ATOM     16  C   UNL     1       1.356   8.615  20.012  0.00  0.00    +0.000 A 
ATOM     17  C   UNL     1       1.674   9.019  18.714  0.00  0.00    +0.000 A 
ATOM     18  C   UNL     1       2.274   8.150  17.801  0.00  0.00    +0.000 A 
ATOM     19  C   UNL     1       2.696   6.894  18.215  0.00  0.00    +0.000 A 
ATOM     20  C   UNL     1       2.517   6.515  19.542  0.00  0.00    +0.000 A 
ATOM     21  C   UNL     1       1.837   7.359  20.429  0.00  0.00    +0.000 A 
ENDBRANCH   2  16
BRANCH   1  22
ATOM     22  C   UNL     1       0.395  11.572  19.530  0.00  0.00    +0.000 C 
BRANCH  22  23
ATOM     23  C   UNL     1      -0.719  11.774  18.525  0.00  0.00    +0.000 C 
ATOM     24  O   UNL     1      -0.844  12.856  17.944  0.00  0.00    +0.000 OA
BRANCH  23  27
ATOM     25  N   UNL     1      -3.309   9.612  17.530  0.00  0.00    +0.000 N 
ATOM     26  C   UNL     1      -2.683  10.772  17.837  0.00  0.00    +0.000 C 
ATOM     27  N   UNL     1      -1.464  10.664  18.244  0.00  0.00    +0.000 NA
ATOM     28  N   UNL     1      -3.463  11.870  17.652  0.00  0.00    +0.000 N 
ATOM     29  H   UNL     1      -2.714   8.824  17.773  0.00  0.00    +0.000 HD
ATOM     30  H   UNL     1      -4.212   9.523  17.962  0.00  0.00    +0.000 HD
ATOM     31  H   UNL     1      -3.088  12.753  17.995  0.00  0.00    +0.000 HD
BRANCH  28  32
ATOM     32  C   UNL     1      -4.733  11.856  16.932  0.00  0.00    +0.000 C 
BRANCH  32  33
ATOM     33  C   UNL     1      -5.967  12.245  17.748  0.00  0.00    +0.000 C 
BRANCH  33  34
ATOM     34  O   UNL     1      -6.911  11.172  17.801  0.00  0.00    +0.000 OA
ATOM     35  H   UNL     1      -7.787  11.544  17.999  0.00  0.00    +0.000 HD
ENDBRANCH  33  34
BRANCH  33  36
ATOM     36  C   UNL     1      -5.590  12.760  19.142  0.00  0.00    +0.000 C 
BRANCH  36  37
ATOM     37  O   UNL     1      -6.715  12.770  20.018  0.00  0.00    +0.000 OA
ATOM     38  H   UNL     1      -7.521  12.749  19.474  0.00  0.00    +0.000 HD
ENDBRANCH  36  37
ENDBRANCH  33  36
ENDBRANCH  32  33
ENDBRANCH  28  32
ENDBRANCH  23  27
ENDBRANCH  22  23
ENDBRANCH   1  22
TORSDOF 10
ENDMDL
MODEL 7
REMARK VINA RESULT:      -6.5      4.739     10.023
REMARK  Name = 
REMARK  10 active torsions:
REMARK  status: ('A' for Active; 'I' for Inactive)
REMARK    1  A    between atoms: N_3  and  C_4
REMARK    2  A    between atoms: C_4  and  C_6
REMARK    3  A    between atoms: C_6  and  N_7
REMARK    4  A    between atoms: C_8  and  C_9
REMARK    5  A    between atoms: C_17  and  C_18
REMARK    6  A    between atoms: N_28  and  C_29
REMARK    7  A    between atoms: C_29  and  C_30
REMARK    8  A    between atoms: C_30  and  O_31
REMARK    9  A    between atoms: C_30  and  C_32
REMARK   10  A    between atoms: C_32  and  O_33
REMARK                            x       y       z     vdW  Elec       q    Type
REMARK                         _______ _______ _______ _____ _____    ______ ____
ROOT
ATOM      1  N   UNL     1       0.168  10.691  20.747  0.00  0.00    +0.000 N 
ATOM      2  C   UNL     1       0.609   9.366  20.971  0.00  0.00    +0.000 A 
ATOM      3  C   UNL     1       0.070   8.978  22.186  0.00  0.00    +0.000 A 
ATOM      4  C   UNL     1      -0.616  10.064  22.745  0.00  0.00    +0.000 A 
ATOM      5  C   UNL     1      -0.521  11.147  21.884  0.00  0.00    +0.000 A 
ENDROOT
BRANCH   5   6
ATOM      6  C   UNL     1      -1.082  12.564  22.117  0.00  0.00    +0.000 C 
ATOM      7  C   UNL     1      -2.310  12.820  21.173  0.00  0.00    +0.000 C 
ATOM      8  C   UNL     1      -2.892  14.230  21.364  0.00  0.00    +0.000 C 
ATOM      9  C   UNL     1      -3.366  14.380  22.816  0.00  0.00    +0.000 C 
ATOM     10  C   UNL     1      -2.183  14.167  23.768  0.00  0.00    +0.000 C 
ATOM     11  C   UNL     1      -1.093  15.208  23.463  0.00  0.00    +0.000 C 
ATOM     12  C   UNL     1      -0.617  15.069  22.006  0.00  0.00    +0.000 C 
ATOM     13  C   UNL     1      -1.804  15.266  21.057  0.00  0.00    +0.000 C 
ATOM     14  C   UNL     1      -0.033  13.662  21.794  0.00  0.00    +0.000 C 
ATOM     15  C   UNL     1      -1.617  12.750  23.566  0.00  0.00    +0.000 C 
ENDBRANCH   5   6
BRANCH   2  16
ATOM     16  C   UNL     1       1.391   8.520  20.041  0.00  0.00    +0.000 A 
ATOM     17  C   UNL     1       1.708   8.918  18.741  0.00  0.00    +0.000 A 
ATOM     18  C   UNL     1       2.293   8.040  17.827  0.00  0.00    +0.000 A 
ATOM     19  C   UNL     1       2.701   6.780  18.242  0.00  0.00    +0.000 A 
ATOM     20  C   UNL     1       2.524   6.406  19.570  0.00  0.00    +0.000 A 
ATOM     21  C   UNL     1       1.859   7.260  20.459  0.00  0.00    +0.000 A 
ENDBRANCH   2  16
BRANCH   1  22
ATOM     22  C   UNL     1       0.462  11.487  19.557  0.00  0.00    +0.000 C 
BRANCH  22  23
ATOM     23  C   UNL     1      -0.655  11.699  18.557  0.00  0.00    +0.000 C 
ATOM     24  O   UNL     1      -0.782  12.787  17.987  0.00  0.00    +0.000 OA
BRANCH  23  27
ATOM     25  N   UNL     1      -3.269   9.547  17.606  0.00  0.00    +0.000 N 
ATOM     26  C   UNL     1      -2.642  10.701  17.932  0.00  0.00    +0.000 C 
ATOM     27  N   UNL     1      -1.401  10.593  18.267  0.00  0.00    +0.000 NA
ATOM     28  N   UNL     1      -3.443  11.795  17.837  0.00  0.00    +0.000 N 
ATOM     29  H   UNL     1      -2.653   8.758  17.782  0.00  0.00    +0.000 HD
ATOM     30  H   UNL     1      -4.147   9.426  18.082  0.00  0.00    +0.000 HD
ATOM     31  H   UNL     1      -3.061  12.668  18.198  0.00  0.00    +0.000 HD
BRANCH  28  32
ATOM     32  C   UNL     1      -4.750  11.795  17.186  0.00  0.00    +0.000 C 
BRANCH  32  33
ATOM     33  C   UNL     1      -5.885  12.456  17.969  0.00  0.00    +0.000 C 
BRANCH  33  34
ATOM     34  O   UNL     1      -5.376  13.359  18.955  0.00  0.00    +0.000 OA
ATOM     35  H   UNL     1      -4.565  12.978  19.331  0.00  0.00    +0.000 HD
ENDBRANCH  33  34
BRANCH  33  36
ATOM     36  C   UNL     1      -6.906  13.124  17.040  0.00  0.00    +0.000 C 
BRANCH  36  37
ATOM     37  O   UNL     1      -6.443  14.391  16.576  0.00  0.00    +0.000 OA
ATOM     38  H   UNL     1      -6.945  14.621  15.776  0.00  0.00    +0.000 HD
ENDBRANCH  36  37
ENDBRANCH  33  36
ENDBRANCH  32  33
ENDBRANCH  28  32
ENDBRANCH  23  27
ENDBRANCH  22  23
ENDBRANCH   1  22
TORSDOF 10
ENDMDL
MODEL 8
REMARK VINA RESULT:      -6.4      4.711      9.504
REMARK  Name = 
REMARK  10 active torsions:
REMARK  status: ('A' for Active; 'I' for Inactive)
REMARK    1  A    between atoms: N_3  and  C_4
REMARK    2  A    between atoms: C_4  and  C_6
REMARK    3  A    between atoms: C_6  and  N_7
REMARK    4  A    between atoms: C_8  and  C_9
REMARK    5  A    between atoms: C_17  and  C_18
REMARK    6  A    between atoms: N_28  and  C_29
REMARK    7  A    between atoms: C_29  and  C_30
REMARK    8  A    between atoms: C_30  and  O_31
REMARK    9  A    between atoms: C_30  and  C_32
REMARK   10  A    between atoms: C_32  and  O_33
REMARK                            x       y       z     vdW  Elec       q    Type
REMARK                         _______ _______ _______ _____ _____    ______ ____
ROOT
ATOM      1  N   UNL     1      -0.506  10.761  20.982  0.00  0.00    +0.000 N 
ATOM      2  C   UNL     1       0.293   9.608  21.168  0.00  0.00    +0.000 A 
ATOM      3  C   UNL     1       0.074   9.191  22.470  0.00  0.00    +0.000 A 
ATOM      4  C   UNL     1      -0.770  10.111  23.105  0.00  0.00    +0.000 A 
ATOM      5  C   UNL     1      -1.098  11.116  22.207  0.00  0.00    +0.000 A 
ENDROOT
BRANCH   5   6
ATOM      6  C   UNL     1      -1.961  12.361  22.489  0.00  0.00    +0.000 C 
ATOM      7  C   UNL     1      -2.868  12.682  21.247  0.00  0.00    +0.000 C 
ATOM      8  C   UNL     1      -3.736  13.928  21.482  0.00  0.00    +0.000 C 
ATOM      9  C   UNL     1      -4.650  13.677  22.690  0.00  0.00    +0.000 C 
ATOM     10  C   UNL     1      -3.796  13.392  23.931  0.00  0.00    +0.000 C 
ATOM     11  C   UNL     1      -2.883  14.598  24.206  0.00  0.00    +0.000 C 
ATOM     12  C   UNL     1      -1.968  14.860  22.998  0.00  0.00    +0.000 C 
ATOM     13  C   UNL     1      -2.823  15.130  21.755  0.00  0.00    +0.000 C 
ATOM     14  C   UNL     1      -1.092  13.622  22.745  0.00  0.00    +0.000 C 
ATOM     15  C   UNL     1      -2.938  12.139  23.679  0.00  0.00    +0.000 C 
ENDBRANCH   5   6
BRANCH   2  16
ATOM     16  C   UNL     1       1.106   8.917  20.143  0.00  0.00    +0.000 A 
ATOM     17  C   UNL     1       1.278   9.415  18.850  0.00  0.00    +0.000 A 
ATOM     18  C   UNL     1       1.902   8.665  17.852  0.00  0.00    +0.000 A 
ATOM     19  C   UNL     1       2.494   7.449  18.168  0.00  0.00    +0.000 A 
ATOM     20  C   UNL     1       2.460   6.992  19.481  0.00  0.00    +0.000 A 
ATOM     21  C   UNL     1       1.758   7.709  20.457  0.00  0.00    +0.000 A 
ENDBRANCH   2  16
BRANCH   1  22
ATOM     22  C   UNL     1      -0.623  11.514  19.734  0.00  0.00    +0.000 C 
BRANCH  22  23
ATOM     23  C   UNL     1       0.275  12.720  19.552  0.00  0.00    +0.000 C 
ATOM     24  O   UNL     1       1.493  12.620  19.729  0.00  0.00    +0.000 OA
BRANCH  23  27
ATOM     25  N   UNL     1      -0.390  15.997  18.466  0.00  0.00    +0.000 N 
ATOM     26  C   UNL     1       0.296  14.963  19.005  0.00  0.00    +0.000 C 
ATOM     27  N   UNL     1      -0.340  13.843  19.081  0.00  0.00    +0.000 NA
ATOM     28  N   UNL     1       1.563  15.290  19.372  0.00  0.00    +0.000 N 
ATOM     29  H   UNL     1      -1.354  15.721  18.296  0.00  0.00    +0.000 HD
ATOM     30  H   UNL     1      -0.353  16.832  19.025  0.00  0.00    +0.000 HD
ATOM     31  H   UNL     1       2.075  14.588  19.903  0.00  0.00    +0.000 HD
BRANCH  28  32
ATOM     32  C   UNL     1       2.232  16.527  18.978  0.00  0.00    +0.000 C 
BRANCH  32  33
ATOM     33  C   UNL     1       3.150  16.429  17.758  0.00  0.00    +0.000 C 
BRANCH  33  34
ATOM     34  O   UNL     1       3.361  15.066  17.378  0.00  0.00    +0.000 OA
ATOM     35  H   UNL     1       2.897  14.495  18.012  0.00  0.00    +0.000 HD
ENDBRANCH  33  34
BRANCH  33  36
ATOM     36  C   UNL     1       2.642  17.287  16.593  0.00  0.00    +0.000 C 
BRANCH  36  37
ATOM     37  O   UNL     1       1.620  18.188  17.012  0.00  0.00    +0.000 OA
ATOM     38  H   UNL     1       0.955  18.239  16.304  0.00  0.00    +0.000 HD
ENDBRANCH  36  37
ENDBRANCH  33  36
ENDBRANCH  32  33
ENDBRANCH  28  32
ENDBRANCH  23  27
ENDBRANCH  22  23
ENDBRANCH   1  22
TORSDOF 10
ENDMDL
MODEL 9
REMARK VINA RESULT:      -6.4      4.899      9.514
REMARK  Name = 
REMARK  10 active torsions:
REMARK  status: ('A' for Active; 'I' for Inactive)
REMARK    1  A    between atoms: N_3  and  C_4
REMARK    2  A    between atoms: C_4  and  C_6
REMARK    3  A    between atoms: C_6  and  N_7
REMARK    4  A    between atoms: C_8  and  C_9
REMARK    5  A    between atoms: C_17  and  C_18
REMARK    6  A    between atoms: N_28  and  C_29
REMARK    7  A    between atoms: C_29  and  C_30
REMARK    8  A    between atoms: C_30  and  O_31
REMARK    9  A    between atoms: C_30  and  C_32
REMARK   10  A    between atoms: C_32  and  O_33
REMARK                            x       y       z     vdW  Elec       q    Type
REMARK                         _______ _______ _______ _____ _____    ______ ____
ROOT
ATOM      1  N   UNL     1      -0.045  10.929  20.870  0.00  0.00    +0.000 N 
ATOM      2  C   UNL     1       0.461   9.623  21.073  0.00  0.00    +0.000 A 
ATOM      3  C   UNL     1      -0.015   9.210  22.305  0.00  0.00    +0.000 A 
ATOM      4  C   UNL     1      -0.725  10.263  22.894  0.00  0.00    +0.000 A 
ATOM      5  C   UNL     1      -0.710  11.352  22.034  0.00  0.00    +0.000 A 
ENDROOT
BRANCH   5   6
ATOM      6  C   UNL     1      -1.322  12.742  22.293  0.00  0.00    +0.000 C 
ATOM      7  C   UNL     1      -2.546  12.980  21.339  0.00  0.00    +0.000 C 
ATOM      8  C   UNL     1      -3.179  14.364  21.555  0.00  0.00    +0.000 C 
ATOM      9  C   UNL     1      -3.676  14.462  23.004  0.00  0.00    +0.000 C 
ATOM     10  C   UNL     1      -2.499  14.266  23.967  0.00  0.00    +0.000 C 
ATOM     11  C   UNL     1      -1.442  15.351  23.702  0.00  0.00    +0.000 C 
ATOM     12  C   UNL     1      -0.942  15.264  22.250  0.00  0.00    +0.000 C 
ATOM     13  C   UNL     1      -2.123  15.444  21.289  0.00  0.00    +0.000 C 
ATOM     14  C   UNL     1      -0.308  13.884  22.012  0.00  0.00    +0.000 C 
ATOM     15  C   UNL     1      -1.882  12.874  23.739  0.00  0.00    +0.000 C 
ENDBRANCH   5   6
BRANCH   2  16
ATOM     16  C   UNL     1       1.243   8.815  20.111  0.00  0.00    +0.000 A 
ATOM     17  C   UNL     1       1.502   9.233  18.804  0.00  0.00    +0.000 A 
ATOM     18  C   UNL     1       2.088   8.384  17.864  0.00  0.00    +0.000 A 
ATOM     19  C   UNL     1       2.558   7.137  18.255  0.00  0.00    +0.000 A 
ATOM     20  C   UNL     1       2.440   6.748  19.586  0.00  0.00    +0.000 A 
ATOM     21  C   UNL     1       1.773   7.571  20.502  0.00  0.00    +0.000 A 
ENDBRANCH   2  16
BRANCH   1  22
ATOM     22  C   UNL     1       0.169  11.740  19.673  0.00  0.00    +0.000 C 
BRANCH  22  23
ATOM     23  C   UNL     1      -0.955  11.814  18.662  0.00  0.00    +0.000 C 
ATOM     24  O   UNL     1      -1.006  12.747  17.855  0.00  0.00    +0.000 OA
BRANCH  23  27
ATOM     25  N   UNL     1      -3.432   9.485  17.762  0.00  0.00    +0.000 N 
ATOM     26  C   UNL     1      -2.689  10.615  17.718  0.00  0.00    +0.000 C 
ATOM     27  N   UNL     1      -1.801  10.742  18.645  0.00  0.00    +0.000 NA
ATOM     28  N   UNL     1      -3.009  11.430  16.677  0.00  0.00    +0.000 N 
ATOM     29  H   UNL     1      -3.214   8.962  18.606  0.00  0.00    +0.000 HD
ATOM     30  H   UNL     1      -4.420   9.659  17.697  0.00  0.00    +0.000 HD
ATOM     31  H   UNL     1      -2.574  12.351  16.675  0.00  0.00    +0.000 HD
BRANCH  28  32
ATOM     32  C   UNL     1      -3.852  11.027  15.556  0.00  0.00    +0.000 C 
BRANCH  32  33
ATOM     33  C   UNL     1      -3.133  10.336  14.396  0.00  0.00    +0.000 C 
BRANCH  33  34
ATOM     34  O   UNL     1      -2.319   9.256  14.862  0.00  0.00    +0.000 OA
ATOM     35  H   UNL     1      -1.895   8.837  14.094  0.00  0.00    +0.000 HD
ENDBRANCH  33  34
BRANCH  33  36
ATOM     36  C   UNL     1      -4.110   9.897  13.299  0.00  0.00    +0.000 C 
BRANCH  36  37
ATOM     37  O   UNL     1      -3.443   9.688  12.056  0.00  0.00    +0.000 OA
ATOM     38  H   UNL     1      -3.842  10.280  11.396  0.00  0.00    +0.000 HD
ENDBRANCH  36  37
ENDBRANCH  33  36
ENDBRANCH  32  33
ENDBRANCH  28  32
ENDBRANCH  23  27
ENDBRANCH  22  23
ENDBRANCH   1  22
TORSDOF 10
ENDMDL
