MODEL 1
REMARK VINA RESULT:      -6.9      0.000      0.000
REMARK  Name = 
REMARK  1 active torsions:
REMARK  status: ('A' for Active; 'I' for Inactive)
REMARK    1  A    between atoms: N_4  and  C_5
REMARK                            x       y       z     vdW  Elec       q    Type
REMARK                         _______ _______ _______ _____ _____    ______ ____
ROOT
ATOM      1  C   UNL     1      -4.650  13.930  20.905  0.00  0.00    +0.000 A 
ATOM      2  N   UNL     1      -4.270  14.653  21.989  0.00  0.00    +0.000 NA
ATOM      3  C   UNL     1      -3.104  14.383  22.578  0.00  0.00    +0.000 A 
ATOM      4  N   UNL     1      -2.694  15.106  23.660  0.00  0.00    +0.000 N 
ATOM      5  C   UNL     1      -3.485  16.194  24.222  0.00  0.00    +0.000 C 
ATOM      6  C   UNL     1      -2.599  17.445  24.348  0.00  0.00    +0.000 C 
ATOM      7  O   UNL     1      -1.396  17.177  25.091  0.00  0.00    +0.000 OA
ATOM      8  C   UNL     1      -0.626  16.148  24.445  0.00  0.00    +0.000 C 
ATOM      9  C   UNL     1      -1.424  14.840  24.331  0.00  0.00    +0.000 C 
ATOM     10  N   UNL     1      -2.309  13.416  22.137  0.00  0.00    +0.000 NA
ATOM     11  C   UNL     1      -2.668  12.683  21.058  0.00  0.00    +0.000 A 
ATOM     12  C   UNL     1      -1.888  11.627  20.549  0.00  0.00    +0.000 A 
ATOM     13  N   UNL     1      -0.739  11.167  21.188  0.00  0.00    +0.000 N 
ATOM     14  C   UNL     1       0.334  10.562  20.405  0.00  0.00    +0.000 C 
ATOM     15  C   UNL     1       0.655   9.167  20.939  0.00  0.00    +0.000 C 
ATOM     16  C   UNL     1       0.929   9.193  22.441  0.00  0.00    +0.000 C 
ATOM     17  C   UNL     1      -0.218   9.858  23.190  0.00  0.00    +0.000 C 
ATOM     18  C   UNL     1      -0.537  11.245  22.632  0.00  0.00    +0.000 C 
ATOM     19  N   UNL     1      -2.219  10.977  19.405  0.00  0.00    +0.000 NA
ATOM     20  C   UNL     1      -3.326  11.321  18.752  0.00  0.00    +0.000 A 
ATOM     21  N   UNL     1      -3.703  10.636  17.625  0.00  0.00    +0.000 N 
ATOM     22  C   UNL     1      -2.867   9.580  17.059  0.00  0.00    +0.000 C 
ATOM     23  C   UNL     1      -2.328  10.007  15.685  0.00  0.00    +0.000 C 
ATOM     24  O   UNL     1      -3.383  10.436  14.806  0.00  0.00    +0.000 OA
ATOM     25  C   UNL     1      -4.081  11.555  15.379  0.00  0.00    +0.000 C 
ATOM     26  C   UNL     1      -4.720  11.185  16.726  0.00  0.00    +0.000 C 
ATOM     27  N   UNL     1      -4.125  12.284  19.196  0.00  0.00    +0.000 NA
ATOM     28  C   UNL     1      -3.826  12.934  20.347  0.00  0.00    +0.000 A 
ENDROOT
BRANCH   1  32
ATOM     29  C   UNL     1      -7.917  14.052  18.328  0.00  0.00    +0.000 C 
ATOM     30  C   UNL     1      -7.586  12.863  19.229  0.00  0.00    +0.000 C 
ATOM     31  C   UNL     1      -7.024  13.316  20.575  0.00  0.00    +0.000 C 
ATOM     32  N   UNL     1      -5.907  14.234  20.379  0.00  0.00    +0.000 N 
ATOM     33  C   UNL     1      -6.157  15.407  19.542  0.00  0.00    +0.000 C 
ATOM     34  C   UNL     1      -6.715  14.976  18.185  0.00  0.00    +0.000 C 
ENDBRANCH   1  32
TORSDOF 1
ENDMDL
MODEL 2
REMARK VINA RESULT:      -6.8      3.367      5.753
REMARK  Name = 
REMARK  1 active torsions:
REMARK  status: ('A' for Active; 'I' for Inactive)
REMARK    1  A    between atoms: N_4  and  C_5
REMARK                            x       y       z     vdW  Elec       q    Type
REMARK                         _______ _______ _______ _____ _____    ______ ____
ROOT
ATOM      1  C   UNL     1      -1.019  15.296  22.167  0.00  0.00    +0.000 A 
ATOM      2  N   UNL     1       0.236  15.579  21.734  0.00  0.00    +0.000 NA
ATOM      3  C   UNL     1       0.703  14.974  20.641  0.00  0.00    +0.000 A 
ATOM      4  N   UNL     1       1.955  15.254  20.179  0.00  0.00    +0.000 N 
ATOM      5  C   UNL     1       2.837  16.213  20.834  0.00  0.00    +0.000 C 
ATOM      6  C   UNL     1       3.347  17.220  19.789  0.00  0.00    +0.000 C 
ATOM      7  O   UNL     1       3.961  16.561  18.665  0.00  0.00    +0.000 OA
ATOM      8  C   UNL     1       3.018  15.687  18.020  0.00  0.00    +0.000 C 
ATOM      9  C   UNL     1       2.502  14.610  18.986  0.00  0.00    +0.000 C 
ATOM     10  N   UNL     1      -0.026  14.089  19.972  0.00  0.00    +0.000 NA
ATOM     11  C   UNL     1      -1.279  13.791  20.385  0.00  0.00    +0.000 A 
ATOM     12  C   UNL     1      -2.100  12.847  19.739  0.00  0.00    +0.000 A 
ATOM     13  N   UNL     1      -1.645  12.049  18.692  0.00  0.00    +0.000 N 
ATOM     14  C   UNL     1      -2.585  11.571  17.682  0.00  0.00    +0.000 C 
ATOM     15  C   UNL     1      -2.521  10.048  17.580  0.00  0.00    +0.000 C 
ATOM     16  C   UNL     1      -1.089   9.562  17.366  0.00  0.00    +0.000 C 
ATOM     17  C   UNL     1      -0.162  10.117  18.439  0.00  0.00    +0.000 C 
ATOM     18  C   UNL     1      -0.251  11.640  18.540  0.00  0.00    +0.000 C 
ATOM     19  N   UNL     1      -3.389  12.643  20.111  0.00  0.00    +0.000 NA
ATOM     20  C   UNL     1      -3.894  13.330  21.131  0.00  0.00    +0.000 A 
ATOM     21  N   UNL     1      -5.177  13.096  21.553  0.00  0.00    +0.000 N 
ATOM     22  C   UNL     1      -6.052  12.161  20.850  0.00  0.00    +0.000 C 
ATOM     23  C   UNL     1      -7.224  12.914  20.202  0.00  0.00    +0.000 C 
ATOM     24  O   UNL     1      -7.916  13.744  21.151  0.00  0.00    +0.000 OA
ATOM     25  C   UNL     1      -7.016  14.716  21.710  0.00  0.00    +0.000 C 
ATOM     26  C   UNL     1      -5.851  14.039  22.448  0.00  0.00    +0.000 C 
ATOM     27  N   UNL     1      -3.163  14.211  21.806  0.00  0.00    +0.000 NA
ATOM     28  C   UNL     1      -1.867  14.417  21.467  0.00  0.00    +0.000 A 
ENDROOT
BRANCH   1  32
ATOM     29  C   UNL     1      -3.355  16.516  25.388  0.00  0.00    +0.000 C 
ATOM     30  C   UNL     1      -2.697  15.142  25.285  0.00  0.00    +0.000 C 
ATOM     31  C   UNL     1      -1.325  15.223  24.620  0.00  0.00    +0.000 C 
ATOM     32  N   UNL     1      -1.415  15.928  23.347  0.00  0.00    +0.000 N 
ATOM     33  C   UNL     1      -2.017  17.261  23.372  0.00  0.00    +0.000 C 
ATOM     34  C   UNL     1      -3.397  17.202  24.028  0.00  0.00    +0.000 C 
ENDBRANCH   1  32
TORSDOF 1
ENDMDL
MODEL 3
REMARK VINA RESULT:      -6.6      3.246      5.924
REMARK  Name = 
REMARK  1 active torsions:
REMARK  status: ('A' for Active; 'I' for Inactive)
REMARK    1  A    between atoms: N_4  and  C_5
REMARK                            x       y       z     vdW  Elec       q    Type
REMARK                         _______ _______ _______ _____ _____    ______ ____
ROOT
ATOM      1  C   UNL     1      -1.143  15.264  22.591  0.00  0.00    +0.000 A 
ATOM      2  N   UNL     1       0.135  15.582  22.264  0.00  0.00    +0.000 NA
ATOM      3  C   UNL     1       0.693  15.024  21.189  0.00  0.00    +0.000 A 
ATOM      4  N   UNL     1       1.972  15.341  20.833  0.00  0.00    +0.000 N 
ATOM      5  C   UNL     1       2.784  16.288  21.586  0.00  0.00    +0.000 C 
ATOM      6  C   UNL     1       3.352  17.341  20.618  0.00  0.00    +0.000 C 
ATOM      7  O   UNL     1       4.061  16.733  19.522  0.00  0.00    +0.000 OA
ATOM      8  C   UNL     1       3.185  15.869  18.777  0.00  0.00    +0.000 C 
ATOM      9  C   UNL     1       2.617  14.750  19.663  0.00  0.00    +0.000 C 
ATOM     10  N   UNL     1       0.033  14.154  20.435  0.00  0.00    +0.000 NA
ATOM     11  C   UNL     1      -1.242  13.822  20.742  0.00  0.00    +0.000 A 
ATOM     12  C   UNL     1      -1.995  12.889  20.003  0.00  0.00    +0.000 A 
ATOM     13  N   UNL     1      -1.449  12.137  18.965  0.00  0.00    +0.000 N 
ATOM     14  C   UNL     1      -2.302  11.683  17.872  0.00  0.00    +0.000 C 
ATOM     15  C   UNL     1      -2.202  10.166  17.721  0.00  0.00    +0.000 C 
ATOM     16  C   UNL     1      -0.750   9.710  17.598  0.00  0.00    +0.000 C 
ATOM     17  C   UNL     1       0.084  10.239  18.757  0.00  0.00    +0.000 C 
ATOM     18  C   UNL     1      -0.040  11.756  18.905  0.00  0.00    +0.000 C 
ATOM     19  N   UNL     1      -3.304  12.652  20.269  0.00  0.00    +0.000 NA
ATOM     20  C   UNL     1      -3.896  13.293  21.273  0.00  0.00    +0.000 A 
ATOM     21  N   UNL     1      -5.203  13.024  21.588  0.00  0.00    +0.000 N 
ATOM     22  C   UNL     1      -6.005  12.102  20.788  0.00  0.00    +0.000 C 
ATOM     23  C   UNL     1      -7.140  12.860  20.081  0.00  0.00    +0.000 C 
ATOM     24  O   UNL     1      -7.916  13.644  21.004  0.00  0.00    +0.000 OA
ATOM     25  C   UNL     1      -7.077  14.609  21.663  0.00  0.00    +0.000 C 
ATOM     26  C   UNL     1      -5.959  13.923  22.462  0.00  0.00    +0.000 C 
ATOM     27  N   UNL     1      -3.234  14.159  22.032  0.00  0.00    +0.000 NA
ATOM     28  C   UNL     1      -1.921  14.398  21.799  0.00  0.00    +0.000 A 
ENDROOT
BRANCH   1  32
ATOM     29  C   UNL     1      -1.319  17.417  26.148  0.00  0.00    +0.000 C 
ATOM     30  C   UNL     1      -1.307  18.060  24.763  0.00  0.00    +0.000 C 
ATOM     31  C   UNL     1      -2.095  17.231  23.751  0.00  0.00    +0.000 C 
ATOM     32  N   UNL     1      -1.638  15.846  23.760  0.00  0.00    +0.000 N 
ATOM     33  C   UNL     1      -1.640  15.159  25.051  0.00  0.00    +0.000 C 
ATOM     34  C   UNL     1      -0.850  15.969  26.080  0.00  0.00    +0.000 C 
ENDBRANCH   1  32
TORSDOF 1
ENDMDL
MODEL 4
REMARK VINA RESULT:      -6.4      3.223      5.495
REMARK  Name = 
REMARK  1 active torsions:
REMARK  status: ('A' for Active; 'I' for Inactive)
REMARK    1  A    between atoms: N_4  and  C_5
REMARK                            x       y       z     vdW  Elec       q    Type
REMARK                         _______ _______ _______ _____ _____    ______ ____
ROOT
ATOM      1  C   UNL     1      -0.709  15.114  22.670  0.00  0.00    +0.000 A 
ATOM      2  N   UNL     1       0.636  15.272  22.576  0.00  0.00    +0.000 NA
ATOM      3  C   UNL     1       1.303  14.634  21.613  0.00  0.00    +0.000 A 
ATOM      4  N   UNL     1       2.653  14.790  21.490  0.00  0.00    +0.000 N 
ATOM      5  C   UNL     1       3.429  15.645  22.380  0.00  0.00    +0.000 C 
ATOM      6  C   UNL     1       4.281  16.606  21.534  0.00  0.00    +0.000 C 
ATOM      7  O   UNL     1       5.093  15.901  20.576  0.00  0.00    +0.000 OA
ATOM      8  C   UNL     1       4.264  15.137  19.684  0.00  0.00    +0.000 C 
ATOM      9  C   UNL     1       3.418  14.108  20.448  0.00  0.00    +0.000 C 
ATOM     10  N   UNL     1       0.685  13.838  20.749  0.00  0.00    +0.000 NA
ATOM     11  C   UNL     1      -0.654  13.666  20.824  0.00  0.00    +0.000 A 
ATOM     12  C   UNL     1      -1.372  12.819  19.958  0.00  0.00    +0.000 A 
ATOM     13  N   UNL     1      -0.747  11.991  19.029  0.00  0.00    +0.000 N 
ATOM     14  C   UNL     1      -1.443  11.625  17.799  0.00  0.00    +0.000 C 
ATOM     15  C   UNL     1      -1.502  10.105  17.659  0.00  0.00    +0.000 C 
ATOM     16  C   UNL     1      -0.117   9.476  17.792  0.00  0.00    +0.000 C 
ATOM     17  C   UNL     1       0.558   9.920  19.083  0.00  0.00    +0.000 C 
ATOM     18  C   UNL     1       0.594  11.443  19.215  0.00  0.00    +0.000 C 
ATOM     19  N   UNL     1      -2.727  12.745  19.988  0.00  0.00    +0.000 NA
ATOM     20  C   UNL     1      -3.405  13.468  20.874  0.00  0.00    +0.000 A 
ATOM     21  N   UNL     1      -4.769  13.361  20.953  0.00  0.00    +0.000 N 
ATOM     22  C   UNL     1      -5.524  12.530  20.018  0.00  0.00    +0.000 C 
ATOM     23  C   UNL     1      -6.416  13.408  19.126  0.00  0.00    +0.000 C 
ATOM     24  O   UNL     1      -7.242  14.294  19.902  0.00  0.00    +0.000 OA
ATOM     25  C   UNL     1      -6.422  15.161  20.705  0.00  0.00    +0.000 C 
ATOM     26  C   UNL     1      -5.553  14.359  21.685  0.00  0.00    +0.000 C 
ATOM     27  N   UNL     1      -2.787  14.260  21.744  0.00  0.00    +0.000 NA
ATOM     28  C   UNL     1      -1.434  14.336  21.747  0.00  0.00    +0.000 A 
ENDROOT
BRANCH   1  32
ATOM     29  C   UNL     1      -3.654  16.527  25.249  0.00  0.00    +0.000 C 
ATOM     30  C   UNL     1      -3.125  15.094  25.263  0.00  0.00    +0.000 C 
ATOM     31  C   UNL     1      -1.628  15.043  24.965  0.00  0.00    +0.000 C 
ATOM     32  N   UNL     1      -1.327  15.769  23.736  0.00  0.00    +0.000 N 
ATOM     33  C   UNL     1      -1.787  17.155  23.660  0.00  0.00    +0.000 C 
ATOM     34  C   UNL     1      -3.287  17.229  23.948  0.00  0.00    +0.000 C 
ENDBRANCH   1  32
TORSDOF 1
ENDMDL
MODEL 5
REMARK VINA RESULT:      -6.4      3.354      6.677
REMARK  Name = 
REMARK  1 active torsions:
REMARK  status: ('A' for Active; 'I' for Inactive)
REMARK    1  A    between atoms: N_4  and  C_5
REMARK                            x       y       z     vdW  Elec       q    Type
REMARK                         _______ _______ _______ _____ _____    ______ ____
ROOT
ATOM      1  C   UNL     1      -1.996  12.968  19.973  0.00  0.00    +0.000 A 
ATOM      2  N   UNL     1      -3.279  12.713  20.333  0.00  0.00    +0.000 NA
ATOM      3  C   UNL     1      -3.812  13.371  21.363  0.00  0.00    +0.000 A 
ATOM      4  N   UNL     1      -5.105  13.142  21.733  0.00  0.00    +0.000 N 
ATOM      5  C   UNL     1      -5.963  12.190  21.039  0.00  0.00    +0.000 C 
ATOM      6  C   UNL     1      -7.281  12.886  20.659  0.00  0.00    +0.000 C 
ATOM      7  O   UNL     1      -7.915  13.492  21.801  0.00  0.00    +0.000 OA
ATOM      8  C   UNL     1      -7.047  14.473  22.395  0.00  0.00    +0.000 C 
ATOM      9  C   UNL     1      -5.724  13.843  22.856  0.00  0.00    +0.000 C 
ATOM     10  N   UNL     1      -3.114  14.263  22.055  0.00  0.00    +0.000 NA
ATOM     11  C   UNL     1      -1.833  14.533  21.715  0.00  0.00    +0.000 A 
ATOM     12  C   UNL     1      -1.025  15.447  22.417  0.00  0.00    +0.000 A 
ATOM     13  N   UNL     1      -1.438  16.061  23.597  0.00  0.00    +0.000 N 
ATOM     14  C   UNL     1      -0.916  17.377  23.952  0.00  0.00    +0.000 C 
ATOM     15  C   UNL     1      -0.280  17.336  25.340  0.00  0.00    +0.000 C 
ATOM     16  C   UNL     1      -1.238  16.755  26.377  0.00  0.00    +0.000 C 
ATOM     17  C   UNL     1      -1.760  15.396  25.931  0.00  0.00    +0.000 C 
ATOM     18  C   UNL     1      -2.377  15.450  24.534  0.00  0.00    +0.000 C 
ATOM     19  N   UNL     1       0.221  15.777  21.992  0.00  0.00    +0.000 NA
ATOM     20  C   UNL     1       0.714  15.205  20.897  0.00  0.00    +0.000 A 
ATOM     21  N   UNL     1       1.991  15.487  20.487  0.00  0.00    +0.000 N 
ATOM     22  C   UNL     1       2.812  16.479  21.177  0.00  0.00    +0.000 C 
ATOM     23  C   UNL     1       3.077  17.682  20.259  0.00  0.00    +0.000 C 
ATOM     24  O   UNL     1       3.615  17.277  18.988  0.00  0.00    +0.000 OA
ATOM     25  C   UNL     1       2.695  16.398  18.318  0.00  0.00    +0.000 C 
ATOM     26  C   UNL     1       2.438  15.126  19.140  0.00  0.00    +0.000 C 
ATOM     27  N   UNL     1       0.018  14.308  20.208  0.00  0.00    +0.000 NA
ATOM     28  C   UNL     1      -1.220  13.947  20.623  0.00  0.00    +0.000 A 
ENDROOT
BRANCH   1  32
ATOM     29  C   UNL     1      -1.056   9.687  17.591  0.00  0.00    +0.000 C 
ATOM     30  C   UNL     1      -2.440  10.329  17.648  0.00  0.00    +0.000 C 
ATOM     31  C   UNL     1      -2.351  11.847  17.797  0.00  0.00    +0.000 C 
ATOM     32  N   UNL     1      -1.492  12.200  18.922  0.00  0.00    +0.000 N 
ATOM     33  C   UNL     1      -0.143  11.636  18.923  0.00  0.00    +0.000 C 
ATOM     34  C   UNL     1      -0.209  10.114  18.782  0.00  0.00    +0.000 C 
ENDBRANCH   1  32
TORSDOF 1
ENDMDL
MODEL 6
REMARK VINA RESULT:      -6.2      2.341      2.877
REMARK  Name = 
REMARK  1 active torsions:
REMARK  status: ('A' for Active; 'I' for Inactive)
REMARK    1  A    between atoms: N_4  and  C_5
REMARK                            x       y       z     vdW  Elec       q    Type
REMARK                         _______ _______ _______ _____ _____    ______ ____
ROOT
ATOM      1  C   UNL     1      -3.895  13.487  22.250  0.00  0.00    +0.000 A 
ATOM      2  N   UNL     1      -3.548  14.431  23.161  0.00  0.00    +0.000 NA
ATOM      3  C   UNL     1      -2.383  15.068  23.032  0.00  0.00    +0.000 A 
ATOM      4  N   UNL     1      -2.020  16.032  23.926  0.00  0.00    +0.000 N 
ATOM      5  C   UNL     1      -2.866  16.418  25.050  0.00  0.00    +0.000 C 
ATOM      6  C   UNL     1      -3.041  17.946  25.043  0.00  0.00    +0.000 C 
ATOM      7  O   UNL     1      -1.774  18.630  25.027  0.00  0.00    +0.000 OA
ATOM      8  C   UNL     1      -1.021  18.262  23.858  0.00  0.00    +0.000 C 
ATOM      9  C   UNL     1      -0.753  16.750  23.818  0.00  0.00    +0.000 C 
ATOM     10  N   UNL     1      -1.546  14.792  22.039  0.00  0.00    +0.000 NA
ATOM     11  C   UNL     1      -1.871  13.854  21.120  0.00  0.00    +0.000 A 
ATOM     12  C   UNL     1      -1.023  13.492  20.055  0.00  0.00    +0.000 A 
ATOM     13  N   UNL     1       0.274  13.983  19.929  0.00  0.00    +0.000 N 
ATOM     14  C   UNL     1       0.877  14.108  18.605  0.00  0.00    +0.000 C 
ATOM     15  C   UNL     1       2.201  13.347  18.554  0.00  0.00    +0.000 C 
ATOM     16  C   UNL     1       3.128  13.762  19.694  0.00  0.00    +0.000 C 
ATOM     17  C   UNL     1       2.427  13.628  21.039  0.00  0.00    +0.000 C 
ATOM     18  C   UNL     1       1.097  14.381  21.068  0.00  0.00    +0.000 C 
ATOM     19  N   UNL     1      -1.416  12.625  19.088  0.00  0.00    +0.000 NA
ATOM     20  C   UNL     1      -2.625  12.073  19.153  0.00  0.00    +0.000 A 
ATOM     21  N   UNL     1      -3.015  11.154  18.214  0.00  0.00    +0.000 N 
ATOM     22  C   UNL     1      -2.163  10.820  17.075  0.00  0.00    +0.000 C 
ATOM     23  C   UNL     1      -2.818  11.288  15.766  0.00  0.00    +0.000 C 
ATOM     24  O   UNL     1      -4.166  10.800  15.638  0.00  0.00    +0.000 OA
ATOM     25  C   UNL     1      -4.970  11.271  16.733  0.00  0.00    +0.000 C 
ATOM     26  C   UNL     1      -4.423  10.777  18.081  0.00  0.00    +0.000 C 
ATOM     27  N   UNL     1      -3.460  12.344  20.150  0.00  0.00    +0.000 NA
ATOM     28  C   UNL     1      -3.083  13.191  21.138  0.00  0.00    +0.000 A 
ENDROOT
BRANCH   1  32
ATOM     29  C   UNL     1      -7.916  12.811  23.081  0.00  0.00    +0.000 C 
ATOM     30  C   UNL     1      -7.392  13.263  21.720  0.00  0.00    +0.000 C 
ATOM     31  C   UNL     1      -6.047  12.620  21.392  0.00  0.00    +0.000 C 
ATOM     32  N   UNL     1      -5.102  12.827  22.484  0.00  0.00    +0.000 N 
ATOM     33  C   UNL     1      -5.529  12.399  23.816  0.00  0.00    +0.000 C 
ATOM     34  C   UNL     1      -6.873  13.038  24.168  0.00  0.00    +0.000 C 
ENDBRANCH   1  32
TORSDOF 1
ENDMDL
MODEL 7
REMARK VINA RESULT:      -6.2      3.541      6.986
REMARK  Name = 
REMARK  1 active torsions:
REMARK  status: ('A' for Active; 'I' for Inactive)
REMARK    1  A    between atoms: N_4  and  C_5
REMARK                            x       y       z     vdW  Elec       q    Type
REMARK                         _______ _______ _______ _____ _____    ______ ____
ROOT
ATOM      1  C   UNL     1      -1.186  13.290  20.803  0.00  0.00    +0.000 A 
ATOM      2  N   UNL     1      -2.469  13.107  21.208  0.00  0.00    +0.000 NA
ATOM      3  C   UNL     1      -2.944  13.831  22.223  0.00  0.00    +0.000 A 
ATOM      4  N   UNL     1      -4.234  13.675  22.637  0.00  0.00    +0.000 N 
ATOM      5  C   UNL     1      -5.152  12.734  22.007  0.00  0.00    +0.000 C 
ATOM      6  C   UNL     1      -6.449  13.472  21.633  0.00  0.00    +0.000 C 
ATOM      7  O   UNL     1      -7.023  14.153  22.765  0.00  0.00    +0.000 OA
ATOM      8  C   UNL     1      -6.097  15.117  23.292  0.00  0.00    +0.000 C 
ATOM      9  C   UNL     1      -4.790  14.449  23.745  0.00  0.00    +0.000 C 
ATOM     10  N   UNL     1      -2.188  14.719  22.857  0.00  0.00    +0.000 NA
ATOM     11  C   UNL     1      -0.907  14.917  22.471  0.00  0.00    +0.000 A 
ATOM     12  C   UNL     1      -0.040  15.823  23.112  0.00  0.00    +0.000 A 
ATOM     13  N   UNL     1      -0.392  16.503  24.276  0.00  0.00    +0.000 N 
ATOM     14  C   UNL     1       0.197  17.809  24.559  0.00  0.00    +0.000 C 
ATOM     15  C   UNL     1       0.869  17.797  25.931  0.00  0.00    +0.000 C 
ATOM     16  C   UNL     1      -0.083  17.303  27.017  0.00  0.00    +0.000 C 
ATOM     17  C   UNL     1      -0.676  15.951  26.644  0.00  0.00    +0.000 C 
ATOM     18  C   UNL     1      -1.330  15.975  25.262  0.00  0.00    +0.000 C 
ATOM     19  N   UNL     1       1.207  16.079  22.641  0.00  0.00    +0.000 NA
ATOM     20  C   UNL     1       1.643  15.441  21.559  0.00  0.00    +0.000 A 
ATOM     21  N   UNL     1       2.919  15.648  21.103  0.00  0.00    +0.000 N 
ATOM     22  C   UNL     1       3.801  16.631  21.728  0.00  0.00    +0.000 C 
ATOM     23  C   UNL     1       4.092  17.782  20.752  0.00  0.00    +0.000 C 
ATOM     24  O   UNL     1       4.575  17.300  19.485  0.00  0.00    +0.000 OA
ATOM     25  C   UNL     1       3.599  16.436  18.878  0.00  0.00    +0.000 C 
ATOM     26  C   UNL     1       3.311  15.212  19.761  0.00  0.00    +0.000 C 
ATOM     27  N   UNL     1       0.889  14.547  20.927  0.00  0.00    +0.000 NA
ATOM     28  C   UNL     1      -0.351  14.260  21.391  0.00  0.00    +0.000 A 
ENDROOT
BRANCH   1  32
ATOM     29  C   UNL     1      -1.108  10.261  17.950  0.00  0.00    +0.000 C 
ATOM     30  C   UNL     1      -1.870  11.573  17.779  0.00  0.00    +0.000 C 
ATOM     31  C   UNL     1      -1.111  12.749  18.391  0.00  0.00    +0.000 C 
ATOM     32  N   UNL     1      -0.747  12.457  19.773  0.00  0.00    +0.000 N 
ATOM     33  C   UNL     1       0.002  11.224  20.011  0.00  0.00    +0.000 C 
ATOM     34  C   UNL     1      -0.744  10.031  19.412  0.00  0.00    +0.000 C 
ENDBRANCH   1  32
TORSDOF 1
ENDMDL
MODEL 8
REMARK VINA RESULT:      -6.2      0.965      8.358
REMARK  Name = 
REMARK  1 active torsions:
REMARK  status: ('A' for Active; 'I' for Inactive)
REMARK    1  A    between atoms: N_4  and  C_5
REMARK                            x       y       z     vdW  Elec       q    Type
REMARK                         _______ _______ _______ _____ _____    ______ ____
ROOT
ATOM      1  C   UNL     1      -1.639  11.875  20.879  0.00  0.00    +0.000 A 
ATOM      2  N   UNL     1      -2.057  11.164  19.800  0.00  0.00    +0.000 NA
ATOM      3  C   UNL     1      -3.092  11.609  19.086  0.00  0.00    +0.000 A 
ATOM      4  N   UNL     1      -3.520  10.920  17.989  0.00  0.00    +0.000 N 
ATOM      5  C   UNL     1      -2.883   9.687  17.539  0.00  0.00    +0.000 C 
ATOM      6  C   UNL     1      -2.541   9.816  16.045  0.00  0.00    +0.000 C 
ATOM      7  O   UNL     1      -3.693  10.178  15.261  0.00  0.00    +0.000 OA
ATOM      8  C   UNL     1      -4.228  11.436  15.707  0.00  0.00    +0.000 C 
ATOM      9  C   UNL     1      -4.650  11.374  17.182  0.00  0.00    +0.000 C 
ATOM     10  N   UNL     1      -3.734  12.724  19.411  0.00  0.00    +0.000 NA
ATOM     11  C   UNL     1      -3.335  13.447  20.482  0.00  0.00    +0.000 A 
ATOM     12  C   UNL     1      -3.983  14.626  20.901  0.00  0.00    +0.000 A 
ATOM     13  N   UNL     1      -5.164  15.081  20.319  0.00  0.00    +0.000 N 
ATOM     14  C   UNL     1      -5.466  16.509  20.310  0.00  0.00    +0.000 C 
ATOM     15  C   UNL     1      -6.828  16.764  20.952  0.00  0.00    +0.000 C 
ATOM     16  C   UNL     1      -7.917  15.901  20.318  0.00  0.00    +0.000 C 
ATOM     17  C   UNL     1      -7.524  14.430  20.341  0.00  0.00    +0.000 C 
ATOM     18  C   UNL     1      -6.152  14.194  19.710  0.00  0.00    +0.000 C 
ATOM     19  N   UNL     1      -3.500  15.389  21.914  0.00  0.00    +0.000 NA
ATOM     20  C   UNL     1      -2.400  15.007  22.556  0.00  0.00    +0.000 A 
ATOM     21  N   UNL     1      -1.932  15.737  23.618  0.00  0.00    +0.000 N 
ATOM     22  C   UNL     1      -2.565  16.992  24.017  0.00  0.00    +0.000 C 
ATOM     23  C   UNL     1      -1.608  18.170  23.777  0.00  0.00    +0.000 C 
ATOM     24  O   UNL     1      -0.326  17.953  24.393  0.00  0.00    +0.000 OA
ATOM     25  C   UNL     1       0.285  16.766  23.859  0.00  0.00    +0.000 C 
ATOM     26  C   UNL     1      -0.577  15.523  24.129  0.00  0.00    +0.000 C 
ATOM     27  N   UNL     1      -1.761  13.887  22.236  0.00  0.00    +0.000 NA
ATOM     28  C   UNL     1      -2.235  13.099  21.241  0.00  0.00    +0.000 A 
ENDROOT
BRANCH   1  32
ATOM     29  C   UNL     1       1.045   9.090  22.416  0.00  0.00    +0.000 C 
ATOM     30  C   UNL     1       1.142   9.682  21.011  0.00  0.00    +0.000 C 
ATOM     31  C   UNL     1       0.723  11.150  20.987  0.00  0.00    +0.000 C 
ATOM     32  N   UNL     1      -0.587  11.317  21.607  0.00  0.00    +0.000 N 
ATOM     33  C   UNL     1      -0.747  10.792  22.962  0.00  0.00    +0.000 C 
ATOM     34  C   UNL     1      -0.340   9.319  23.008  0.00  0.00    +0.000 C 
ENDBRANCH   1  32
TORSDOF 1
ENDMDL
MODEL 9
REMARK VINA RESULT:      -6.2      2.666      4.108
REMARK  Name = 
REMARK  1 active torsions:
REMARK  status: ('A' for Active; 'I' for Inactive)
REMARK    1  A    between atoms: N_4  and  C_5
REMARK                            x       y       z     vdW  Elec       q    Type
REMARK                         _______ _______ _______ _____ _____    ______ ____
ROOT
ATOM      1  C   UNL     1      -2.544  15.199  22.320  0.00  0.00    +0.000 A 
ATOM      2  N   UNL     1      -1.284  15.661  22.525  0.00  0.00    +0.000 NA
ATOM      3  C   UNL     1      -0.279  15.158  21.808  0.00  0.00    +0.000 A 
ATOM      4  N   UNL     1       0.993  15.617  21.986  0.00  0.00    +0.000 N 
ATOM      5  C   UNL     1       1.322  16.666  22.944  0.00  0.00    +0.000 C 
ATOM      6  C   UNL     1       2.128  17.764  22.230  0.00  0.00    +0.000 C 
ATOM      7  O   UNL     1       3.284  17.228  21.558  0.00  0.00    +0.000 OA
ATOM      8  C   UNL     1       2.886  16.256  20.576  0.00  0.00    +0.000 C 
ATOM      9  C   UNL     1       2.121  15.090  21.220  0.00  0.00    +0.000 C 
ATOM     10  N   UNL     1      -0.477  14.204  20.906  0.00  0.00    +0.000 NA
ATOM     11  C   UNL     1      -1.723  13.728  20.685  0.00  0.00    +0.000 A 
ATOM     12  C   UNL     1      -2.005  12.702  19.763  0.00  0.00    +0.000 A 
ATOM     13  N   UNL     1      -1.006  12.005  19.087  0.00  0.00    +0.000 N 
ATOM     14  C   UNL     1      -1.280  11.437  17.771  0.00  0.00    +0.000 C 
ATOM     15  C   UNL     1      -0.973   9.940  17.768  0.00  0.00    +0.000 C 
ATOM     16  C   UNL     1       0.438   9.658  18.277  0.00  0.00    +0.000 C 
ATOM     17  C   UNL     1       0.661  10.299  19.640  0.00  0.00    +0.000 C 
ATOM     18  C   UNL     1       0.333  11.792  19.631  0.00  0.00    +0.000 C 
ATOM     19  N   UNL     1      -3.276  12.316  19.485  0.00  0.00    +0.000 NA
ATOM     20  C   UNL     1      -4.291  12.897  20.117  0.00  0.00    +0.000 A 
ATOM     21  N   UNL     1      -5.577  12.479  19.887  0.00  0.00    +0.000 N 
ATOM     22  C   UNL     1      -5.879  11.458  18.888  0.00  0.00    +0.000 C 
ATOM     23  C   UNL     1      -6.691  12.066  17.734  0.00  0.00    +0.000 C 
ATOM     24  O   UNL     1      -7.854  12.766  18.209  0.00  0.00    +0.000 OA
ATOM     25  C   UNL     1      -7.465  13.833  19.092  0.00  0.00    +0.000 C 
ATOM     26  C   UNL     1      -6.713  13.296  20.319  0.00  0.00    +0.000 C 
ATOM     27  N   UNL     1      -4.093  13.846  21.025  0.00  0.00    +0.000 NA
ATOM     28  C   UNL     1      -2.833  14.235  21.334  0.00  0.00    +0.000 A 
ENDROOT
BRANCH   1  32
ATOM     29  C   UNL     1      -6.285  16.210  23.838  0.00  0.00    +0.000 C 
ATOM     30  C   UNL     1      -5.655  14.826  23.977  0.00  0.00    +0.000 C 
ATOM     31  C   UNL     1      -4.144  14.913  24.184  0.00  0.00    +0.000 C 
ATOM     32  N   UNL     1      -3.533  15.735  23.146  0.00  0.00    +0.000 N 
ATOM     33  C   UNL     1      -4.073  17.082  22.969  0.00  0.00    +0.000 C 
ATOM     34  C   UNL     1      -5.586  17.019  22.752  0.00  0.00    +0.000 C 
ENDBRANCH   1  32
TORSDOF 1
ENDMDL
