MODEL 1
REMARK VINA RESULT:      -7.7      0.000      0.000
REMARK  Name = 
REMARK  9 active torsions:
REMARK  status: ('A' for Active; 'I' for Inactive)
REMARK    1  A    between atoms: C_1  and  C_2
REMARK    2  A    between atoms: C_2  and  O_3
REMARK    3  A    between atoms: O_3  and  C_4
REMARK    4  A    between atoms: C_9  and  C_10
REMARK    5  A    between atoms: C_12  and  C_13
REMARK    6  A    between atoms: C_13  and  N_14
REMARK    7  A    between atoms: N_14  and  C_15
REMARK    8  A    between atoms: C_15  and  C_16
REMARK    9  A    between atoms: C_19  and  C_20
REMARK                            x       y       z     vdW  Elec       q    Type
REMARK                         _______ _______ _______ _____ _____    ______ ____
ROOT
ATOM      1  C   UNL     1       1.990   5.841  19.835  0.00  0.00    +0.000 A 
ATOM      2  N   UNL     1       1.736   4.772  19.092  0.00  0.00    +0.000 NA
ATOM      3  C   UNL     1       1.741   3.721  19.987  0.00  0.00    +0.000 A 
ATOM      4  C   UNL     1       2.057   4.199  21.237  0.00  0.00    +0.000 A 
ATOM      5  O   UNL     1       2.222   5.546  21.152  0.00  0.00    +0.000 OA
ENDROOT
BRANCH   1  11
ATOM      6  C   UNL     1       1.343   8.296  20.173  0.00  0.00    +0.000 A 
ATOM      7  C   UNL     1       1.291   9.588  19.614  0.00  0.00    +0.000 A 
ATOM      8  C   UNL     1       1.812   9.857  18.348  0.00  0.00    +0.000 A 
ATOM      9  C   UNL     1       2.419   8.845  17.624  0.00  0.00    +0.000 A 
ATOM     10  C   UNL     1       2.489   7.562  18.165  0.00  0.00    +0.000 A 
ATOM     11  C   UNL     1       1.943   7.254  19.431  0.00  0.00    +0.000 A 
BRANCH   6  12
ATOM     12  O   UNL     1       0.824   8.011  21.416  0.00  0.00    +0.000 OA
BRANCH  12  14
ATOM     13  C   UNL     1      -0.016   9.472  23.144  0.00  0.00    +0.000 C 
ATOM     14  C   UNL     1      -0.317   8.765  21.835  0.00  0.00    +0.000 C 
ENDBRANCH  12  14
ENDBRANCH   6  12
ENDBRANCH   1  11
BRANCH   3  15
ATOM     15  C   UNL     1       1.415   2.324  19.577  0.00  0.00    +0.000 C 
BRANCH  15  16
ATOM     16  N   UNL     1       1.964   1.995  18.258  0.00  0.00    +0.000 NA
ATOM     17  H   UNL     1       1.808   2.795  17.644  0.00  0.00    +0.000 HD
BRANCH  16  18
ATOM     18  C   UNL     1       3.397   1.713  18.309  0.00  0.00    +0.000 C 
BRANCH  18  19
ATOM     19  C   UNL     1       4.215   2.967  18.109  0.00  0.00    +0.000 A 
ATOM     20  C   UNL     1       4.973   3.493  19.164  0.00  0.00    +0.000 A 
ATOM     21  C   UNL     1       5.768   4.626  18.972  0.00  0.00    +0.000 A 
ATOM     22  C   UNL     1       5.819   5.258  17.723  0.00  0.00    +0.000 A 
ATOM     23  C   UNL     1       5.047   4.739  16.670  0.00  0.00    +0.000 A 
ATOM     24  C   UNL     1       4.253   3.608  16.864  0.00  0.00    +0.000 A 
BRANCH  22  25
ATOM     25  C   UNL     1       6.687   6.470  17.498  0.00  0.00    +0.000 C 
ATOM     26  F   UNL     1       7.563   6.710  18.515  0.00  0.00    +0.000 F 
ATOM     27  F   UNL     1       7.449   6.363  16.372  0.00  0.00    +0.000 F 
ATOM     28  F   UNL     1       5.964   7.614  17.352  0.00  0.00    +0.000 F 
ENDBRANCH  22  25
ENDBRANCH  18  19
ENDBRANCH  16  18
ENDBRANCH  15  16
ENDBRANCH   3  15
TORSDOF 8
ENDMDL
MODEL 2
REMARK VINA RESULT:      -7.7      0.618      1.244
REMARK  Name = 
REMARK  9 active torsions:
REMARK  status: ('A' for Active; 'I' for Inactive)
REMARK    1  A    between atoms: C_1  and  C_2
REMARK    2  A    between atoms: C_2  and  O_3
REMARK    3  A    between atoms: O_3  and  C_4
REMARK    4  A    between atoms: C_9  and  C_10
REMARK    5  A    between atoms: C_12  and  C_13
REMARK    6  A    between atoms: C_13  and  N_14
REMARK    7  A    between atoms: N_14  and  C_15
REMARK    8  A    between atoms: C_15  and  C_16
REMARK    9  A    between atoms: C_19  and  C_20
REMARK                            x       y       z     vdW  Elec       q    Type
REMARK                         _______ _______ _______ _____ _____    ______ ____
ROOT
ATOM      1  C   UNL     1       2.021   5.765  19.918  0.00  0.00    +0.000 A 
ATOM      2  N   UNL     1       1.634   4.675  19.268  0.00  0.00    +0.000 NA
ATOM      3  C   UNL     1       1.691   3.671  20.214  0.00  0.00    +0.000 A 
ATOM      4  C   UNL     1       2.169   4.193  21.392  0.00  0.00    +0.000 A 
ATOM      5  O   UNL     1       2.386   5.523  21.215  0.00  0.00    +0.000 OA
ENDROOT
BRANCH   1  11
ATOM      6  C   UNL     1       1.419   8.245  20.138  0.00  0.00    +0.000 A 
ATOM      7  C   UNL     1       1.385   9.508  19.516  0.00  0.00    +0.000 A 
ATOM      8  C   UNL     1       1.900   9.704  18.234  0.00  0.00    +0.000 A 
ATOM      9  C   UNL     1       2.483   8.647  17.557  0.00  0.00    +0.000 A 
ATOM     10  C   UNL     1       2.536   7.392  18.160  0.00  0.00    +0.000 A 
ATOM     11  C   UNL     1       1.995   7.156  19.445  0.00  0.00    +0.000 A 
BRANCH   6  12
ATOM     12  O   UNL     1       0.906   8.031  21.398  0.00  0.00    +0.000 OA
BRANCH  12  14
ATOM     13  C   UNL     1      -0.297   9.449  22.936  0.00  0.00    +0.000 C 
ATOM     14  C   UNL     1       1.056   9.088  22.350  0.00  0.00    +0.000 C 
ENDBRANCH  12  14
ENDBRANCH   6  12
ENDBRANCH   1  11
BRANCH   3  15
ATOM     15  C   UNL     1       1.255   2.274  19.919  0.00  0.00    +0.000 C 
BRANCH  15  16
ATOM     16  N   UNL     1       1.975   1.701  18.777  0.00  0.00    +0.000 NA
ATOM     17  H   UNL     1       1.792   2.290  17.964  0.00  0.00    +0.000 HD
BRANCH  16  18
ATOM     18  C   UNL     1       3.416   1.645  19.004  0.00  0.00    +0.000 C 
BRANCH  18  19
ATOM     19  C   UNL     1       4.119   2.833  18.390  0.00  0.00    +0.000 A 
ATOM     20  C   UNL     1       3.884   3.182  17.052  0.00  0.00    +0.000 A 
ATOM     21  C   UNL     1       4.496   4.306  16.493  0.00  0.00    +0.000 A 
ATOM     22  C   UNL     1       5.357   5.103  17.257  0.00  0.00    +0.000 A 
ATOM     23  C   UNL     1       5.604   4.746  18.593  0.00  0.00    +0.000 A 
ATOM     24  C   UNL     1       4.993   3.622  19.150  0.00  0.00    +0.000 A 
BRANCH  22  25
ATOM     25  C   UNL     1       6.009   6.331  16.670  0.00  0.00    +0.000 C 
ATOM     26  F   UNL     1       7.168   6.067  16.003  0.00  0.00    +0.000 F 
ATOM     27  F   UNL     1       5.204   6.968  15.773  0.00  0.00    +0.000 F 
ATOM     28  F   UNL     1       6.326   7.259  17.613  0.00  0.00    +0.000 F 
ENDBRANCH  22  25
ENDBRANCH  18  19
ENDBRANCH  16  18
ENDBRANCH  15  16
ENDBRANCH   3  15
TORSDOF 8
ENDMDL
MODEL 3
REMARK VINA RESULT:      -7.4      4.485      6.091
REMARK  Name = 
REMARK  9 active torsions:
REMARK  status: ('A' for Active; 'I' for Inactive)
REMARK    1  A    between atoms: C_1  and  C_2
REMARK    2  A    between atoms: C_2  and  O_3
REMARK    3  A    between atoms: O_3  and  C_4
REMARK    4  A    between atoms: C_9  and  C_10
REMARK    5  A    between atoms: C_12  and  C_13
REMARK    6  A    between atoms: C_13  and  N_14
REMARK    7  A    between atoms: N_14  and  C_15
REMARK    8  A    between atoms: C_15  and  C_16
REMARK    9  A    between atoms: C_19  and  C_20
REMARK                            x       y       z     vdW  Elec       q    Type
REMARK                         _______ _______ _______ _____ _____    ______ ____
ROOT
ATOM      1  C   UNL     1      -0.870  10.703  18.871  0.00  0.00    +0.000 A 
ATOM      2  N   UNL     1      -0.688   9.873  19.889  0.00  0.00    +0.000 NA
ATOM      3  C   UNL     1       0.549  10.215  20.397  0.00  0.00    +0.000 A 
ATOM      4  C   UNL     1       1.092  11.211  19.620  0.00  0.00    +0.000 A 
ATOM      5  O   UNL     1       0.201  11.527  18.644  0.00  0.00    +0.000 OA
ENDROOT
BRANCH   1  11
ATOM      6  C   UNL     1      -3.230  11.618  18.477  0.00  0.00    +0.000 A 
ATOM      7  C   UNL     1      -4.359  11.638  17.637  0.00  0.00    +0.000 A 
ATOM      8  C   UNL     1      -4.374  10.960  16.418  0.00  0.00    +0.000 A 
ATOM      9  C   UNL     1      -3.251  10.267  16.001  0.00  0.00    +0.000 A 
ATOM     10  C   UNL     1      -2.119  10.245  16.814  0.00  0.00    +0.000 A 
ATOM     11  C   UNL     1      -2.086  10.897  18.068  0.00  0.00    +0.000 A 
BRANCH   6  12
ATOM     12  O   UNL     1      -3.201  12.273  19.688  0.00  0.00    +0.000 OA
BRANCH  12  14
ATOM     13  C   UNL     1      -4.589  12.658  21.624  0.00  0.00    +0.000 C 
ATOM     14  C   UNL     1      -4.420  12.876  20.131  0.00  0.00    +0.000 C 
ENDBRANCH  12  14
ENDBRANCH   6  12
ENDBRANCH   1  11
BRANCH   3  15
ATOM     15  C   UNL     1       1.114   9.570  21.618  0.00  0.00    +0.000 C 
BRANCH  15  16
ATOM     16  N   UNL     1       1.383   8.143  21.414  0.00  0.00    +0.000 NA
ATOM     17  H   UNL     1       0.486   7.659  21.363  0.00  0.00    +0.000 HD
BRANCH  16  18
ATOM     18  C   UNL     1       2.126   7.892  20.181  0.00  0.00    +0.000 C 
BRANCH  18  19
ATOM     19  C   UNL     1       2.033   6.442  19.766  0.00  0.00    +0.000 A 
ATOM     20  C   UNL     1       1.633   5.465  20.689  0.00  0.00    +0.000 A 
ATOM     21  C   UNL     1       1.502   4.131  20.299  0.00  0.00    +0.000 A 
ATOM     22  C   UNL     1       1.769   3.744  18.980  0.00  0.00    +0.000 A 
ATOM     23  C   UNL     1       2.185   4.720  18.059  0.00  0.00    +0.000 A 
ATOM     24  C   UNL     1       2.316   6.052  18.451  0.00  0.00    +0.000 A 
BRANCH  22  25
ATOM     25  C   UNL     1       1.613   2.309  18.542  0.00  0.00    +0.000 C 
ATOM     26  F   UNL     1       2.200   1.414  19.385  0.00  0.00    +0.000 F 
ATOM     27  F   UNL     1       0.306   1.931  18.455  0.00  0.00    +0.000 F 
ATOM     28  F   UNL     1       2.152   2.073  17.315  0.00  0.00    +0.000 F 
ENDBRANCH  22  25
ENDBRANCH  18  19
ENDBRANCH  16  18
ENDBRANCH  15  16
ENDBRANCH   3  15
TORSDOF 8
ENDMDL
MODEL 4
REMARK VINA RESULT:      -7.3      4.000      6.416
REMARK  Name = 
REMARK  9 active torsions:
REMARK  status: ('A' for Active; 'I' for Inactive)
REMARK    1  A    between atoms: C_1  and  C_2
REMARK    2  A    between atoms: C_2  and  O_3
REMARK    3  A    between atoms: O_3  and  C_4
REMARK    4  A    between atoms: C_9  and  C_10
REMARK    5  A    between atoms: C_12  and  C_13
REMARK    6  A    between atoms: C_13  and  N_14
REMARK    7  A    between atoms: N_14  and  C_15
REMARK    8  A    between atoms: C_15  and  C_16
REMARK    9  A    between atoms: C_19  and  C_20
REMARK                            x       y       z     vdW  Elec       q    Type
REMARK                         _______ _______ _______ _____ _____    ______ ____
ROOT
ATOM      1  C   UNL     1      -0.849  11.847  20.192  0.00  0.00    +0.000 A 
ATOM      2  N   UNL     1      -0.649  10.684  19.588  0.00  0.00    +0.000 NA
ATOM      3  C   UNL     1       0.466  10.891  18.799  0.00  0.00    +0.000 A 
ATOM      4  C   UNL     1       0.861  12.203  18.921  0.00  0.00    +0.000 A 
ATOM      5  O   UNL     1       0.030  12.822  19.800  0.00  0.00    +0.000 OA
ENDROOT
BRANCH   1  11
ATOM      6  C   UNL     1      -1.631  11.824  22.631  0.00  0.00    +0.000 A 
ATOM      7  C   UNL     1      -2.674  12.098  23.536  0.00  0.00    +0.000 A 
ATOM      8  C   UNL     1      -3.870  12.682  23.115  0.00  0.00    +0.000 A 
ATOM      9  C   UNL     1      -4.038  13.027  21.785  0.00  0.00    +0.000 A 
ATOM     10  C   UNL     1      -3.012  12.773  20.876  0.00  0.00    +0.000 A 
ATOM     11  C   UNL     1      -1.802  12.155  21.268  0.00  0.00    +0.000 A 
BRANCH   6  12
ATOM     12  O   UNL     1      -0.448  11.240  23.028  0.00  0.00    +0.000 OA
BRANCH  12  14
ATOM     13  C   UNL     1       0.743   9.217  22.470  0.00  0.00    +0.000 C 
ATOM     14  C   UNL     1      -0.447   9.819  23.194  0.00  0.00    +0.000 C 
ENDBRANCH  12  14
ENDBRANCH   6  12
ENDBRANCH   1  11
BRANCH   3  15
ATOM     15  C   UNL     1       1.089   9.798  17.998  0.00  0.00    +0.000 C 
BRANCH  15  16
ATOM     16  N   UNL     1       2.218   9.177  18.697  0.00  0.00    +0.000 NA
ATOM     17  H   UNL     1       1.880   8.837  19.599  0.00  0.00    +0.000 HD
BRANCH  16  18
ATOM     18  C   UNL     1       2.780   8.054  17.951  0.00  0.00    +0.000 C 
BRANCH  18  19
ATOM     19  C   UNL     1       2.384   6.730  18.562  0.00  0.00    +0.000 A 
ATOM     20  C   UNL     1       2.307   5.578  17.766  0.00  0.00    +0.000 A 
ATOM     21  C   UNL     1       1.986   4.343  18.332  0.00  0.00    +0.000 A 
ATOM     22  C   UNL     1       1.734   4.233  19.706  0.00  0.00    +0.000 A 
ATOM     23  C   UNL     1       1.796   5.389  20.501  0.00  0.00    +0.000 A 
ATOM     24  C   UNL     1       2.116   6.622  19.932  0.00  0.00    +0.000 A 
BRANCH  22  25
ATOM     25  C   UNL     1       1.405   2.901  20.333  0.00  0.00    +0.000 C 
ATOM     26  F   UNL     1       1.174   2.972  21.674  0.00  0.00    +0.000 F 
ATOM     27  F   UNL     1       0.289   2.333  19.795  0.00  0.00    +0.000 F 
ATOM     28  F   UNL     1       2.402   1.987  20.177  0.00  0.00    +0.000 F 
ENDBRANCH  22  25
ENDBRANCH  18  19
ENDBRANCH  16  18
ENDBRANCH  15  16
ENDBRANCH   3  15
TORSDOF 8
ENDMDL
MODEL 5
REMARK VINA RESULT:      -7.3      1.232      1.628
REMARK  Name = 
REMARK  9 active torsions:
REMARK  status: ('A' for Active; 'I' for Inactive)
REMARK    1  A    between atoms: C_1  and  C_2
REMARK    2  A    between atoms: C_2  and  O_3
REMARK    3  A    between atoms: O_3  and  C_4
REMARK    4  A    between atoms: C_9  and  C_10
REMARK    5  A    between atoms: C_12  and  C_13
REMARK    6  A    between atoms: C_13  and  N_14
REMARK    7  A    between atoms: N_14  and  C_15
REMARK    8  A    between atoms: C_15  and  C_16
REMARK    9  A    between atoms: C_19  and  C_20
REMARK                            x       y       z     vdW  Elec       q    Type
REMARK                         _______ _______ _______ _____ _____    ______ ____
ROOT
ATOM      1  C   UNL     1       1.724   5.568  20.162  0.00  0.00    +0.000 A 
ATOM      2  N   UNL     1       2.601   4.874  20.874  0.00  0.00    +0.000 NA
ATOM      3  C   UNL     1       2.013   3.635  21.033  0.00  0.00    +0.000 A 
ATOM      4  C   UNL     1       0.766   3.654  20.452  0.00  0.00    +0.000 A 
ATOM      5  O   UNL     1       0.570   4.880  19.899  0.00  0.00    +0.000 OA
ENDROOT
BRANCH   1  11
ATOM      6  C   UNL     1       1.370   8.104  20.077  0.00  0.00    +0.000 A 
ATOM      7  C   UNL     1       1.539   9.292  19.341  0.00  0.00    +0.000 A 
ATOM      8  C   UNL     1       2.209   9.303  18.117  0.00  0.00    +0.000 A 
ATOM      9  C   UNL     1       2.747   8.131  17.615  0.00  0.00    +0.000 A 
ATOM     10  C   UNL     1       2.599   6.946  18.335  0.00  0.00    +0.000 A 
ATOM     11  C   UNL     1       1.899   6.899  19.562  0.00  0.00    +0.000 A 
BRANCH   6  12
ATOM     12  O   UNL     1       0.702   8.073  21.281  0.00  0.00    +0.000 OA
BRANCH  12  14
ATOM     13  C   UNL     1      -0.041   9.319  23.209  0.00  0.00    +0.000 C 
ATOM     14  C   UNL     1       0.049   9.276  21.695  0.00  0.00    +0.000 C 
ENDBRANCH  12  14
ENDBRANCH   6  12
ENDBRANCH   1  11
BRANCH   3  15
ATOM     15  C   UNL     1       2.706   2.506  21.718  0.00  0.00    +0.000 C 
BRANCH  15  16
ATOM     16  N   UNL     1       3.959   2.141  21.049  0.00  0.00    +0.000 NA
ATOM     17  H   UNL     1       4.319   1.297  21.495  0.00  0.00    +0.000 HD
BRANCH  16  18
ATOM     18  C   UNL     1       3.770   1.878  19.625  0.00  0.00    +0.000 C 
BRANCH  18  19
ATOM     19  C   UNL     1       4.363   2.978  18.776  0.00  0.00    +0.000 A 
ATOM     20  C   UNL     1       3.941   3.153  17.450  0.00  0.00    +0.000 A 
ATOM     21  C   UNL     1       4.451   4.196  16.674  0.00  0.00    +0.000 A 
ATOM     22  C   UNL     1       5.396   5.084  17.205  0.00  0.00    +0.000 A 
ATOM     23  C   UNL     1       5.830   4.898  18.528  0.00  0.00    +0.000 A 
ATOM     24  C   UNL     1       5.319   3.856  19.302  0.00  0.00    +0.000 A 
BRANCH  22  25
ATOM     25  C   UNL     1       5.940   6.225  16.384  0.00  0.00    +0.000 C 
ATOM     26  F   UNL     1       6.092   7.381  17.090  0.00  0.00    +0.000 F 
ATOM     27  F   UNL     1       7.168   5.949  15.859  0.00  0.00    +0.000 F 
ATOM     28  F   UNL     1       5.143   6.538  15.326  0.00  0.00    +0.000 F 
ENDBRANCH  22  25
ENDBRANCH  18  19
ENDBRANCH  16  18
ENDBRANCH  15  16
ENDBRANCH   3  15
TORSDOF 8
ENDMDL
MODEL 6
REMARK VINA RESULT:      -7.2      5.177      7.310
REMARK  Name = 
REMARK  9 active torsions:
REMARK  status: ('A' for Active; 'I' for Inactive)
REMARK    1  A    between atoms: C_1  and  C_2
REMARK    2  A    between atoms: C_2  and  O_3
REMARK    3  A    between atoms: O_3  and  C_4
REMARK    4  A    between atoms: C_9  and  C_10
REMARK    5  A    between atoms: C_12  and  C_13
REMARK    6  A    between atoms: C_13  and  N_14
REMARK    7  A    between atoms: N_14  and  C_15
REMARK    8  A    between atoms: C_15  and  C_16
REMARK    9  A    between atoms: C_19  and  C_20
REMARK                            x       y       z     vdW  Elec       q    Type
REMARK                         _______ _______ _______ _____ _____    ______ ____
ROOT
ATOM      1  C   UNL     1       5.331   5.389  18.176  0.00  0.00    +0.000 A 
ATOM      2  N   UNL     1       5.700   6.466  17.496  0.00  0.00    +0.000 NA
ATOM      3  C   UNL     1       7.049   6.597  17.761  0.00  0.00    +0.000 A 
ATOM      4  C   UNL     1       7.428   5.614  18.644  0.00  0.00    +0.000 A 
ATOM      5  O   UNL     1       6.343   4.842  18.919  0.00  0.00    +0.000 OA
ENDROOT
BRANCH   1  11
ATOM      6  C   UNL     1       2.802   5.231  18.549  0.00  0.00    +0.000 A 
ATOM      7  C   UNL     1       1.659   4.410  18.537  0.00  0.00    +0.000 A 
ATOM      8  C   UNL     1       1.723   3.077  18.128  0.00  0.00    +0.000 A 
ATOM      9  C   UNL     1       2.927   2.545  17.699  0.00  0.00    +0.000 A 
ATOM     10  C   UNL     1       4.067   3.346  17.694  0.00  0.00    +0.000 A 
ATOM     11  C   UNL     1       4.039   4.690  18.131  0.00  0.00    +0.000 A 
BRANCH   6  12
ATOM     12  O   UNL     1       2.759   6.546  18.958  0.00  0.00    +0.000 OA
BRANCH  12  14
ATOM     13  C   UNL     1       1.776   8.730  18.663  0.00  0.00    +0.000 C 
ATOM     14  C   UNL     1       2.389   7.521  17.980  0.00  0.00    +0.000 C 
ENDBRANCH  12  14
ENDBRANCH   6  12
ENDBRANCH   1  11
BRANCH   3  15
ATOM     15  C   UNL     1       7.887   7.652  17.121  0.00  0.00    +0.000 C 
BRANCH  15  16
ATOM     16  N   UNL     1       7.800   8.932  17.831  0.00  0.00    +0.000 NA
ATOM     17  H   UNL     1       6.849   9.028  18.188  0.00  0.00    +0.000 HD
BRANCH  16  18
ATOM     18  C   UNL     1       8.734   9.007  18.952  0.00  0.00    +0.000 C 
BRANCH  18  19
ATOM     19  C   UNL     1       9.280  10.405  19.124  0.00  0.00    +0.000 A 
ATOM     20  C   UNL     1       9.710  10.846  20.383  0.00  0.00    +0.000 A 
ATOM     21  C   UNL     1      10.258  12.122  20.540  0.00  0.00    +0.000 A 
ATOM     22  C   UNL     1      10.385  12.983  19.443  0.00  0.00    +0.000 A 
ATOM     23  C   UNL     1       9.939  12.546  18.184  0.00  0.00    +0.000 A 
ATOM     24  C   UNL     1       9.392  11.272  18.030  0.00  0.00    +0.000 A 
BRANCH  22  25
ATOM     25  C   UNL     1      10.993  14.355  19.596  0.00  0.00    +0.000 C 
ATOM     26  F   UNL     1      10.459  15.077  20.621  0.00  0.00    +0.000 F 
ATOM     27  F   UNL     1      12.333  14.307  19.837  0.00  0.00    +0.000 F 
ATOM     28  F   UNL     1      10.841  15.123  18.482  0.00  0.00    +0.000 F 
ENDBRANCH  22  25
ENDBRANCH  18  19
ENDBRANCH  16  18
ENDBRANCH  15  16
ENDBRANCH   3  15
TORSDOF 8
ENDMDL
MODEL 7
REMARK VINA RESULT:      -7.2      1.348      1.916
REMARK  Name = 
REMARK  9 active torsions:
REMARK  status: ('A' for Active; 'I' for Inactive)
REMARK    1  A    between atoms: C_1  and  C_2
REMARK    2  A    between atoms: C_2  and  O_3
REMARK    3  A    between atoms: O_3  and  C_4
REMARK    4  A    between atoms: C_9  and  C_10
REMARK    5  A    between atoms: C_12  and  C_13
REMARK    6  A    between atoms: C_13  and  N_14
REMARK    7  A    between atoms: N_14  and  C_15
REMARK    8  A    between atoms: C_15  and  C_16
REMARK    9  A    between atoms: C_19  and  C_20
REMARK                            x       y       z     vdW  Elec       q    Type
REMARK                         _______ _______ _______ _____ _____    ______ ____
ROOT
ATOM      1  C   UNL     1       2.194   6.746  19.802  0.00  0.00    +0.000 A 
ATOM      2  N   UNL     1       3.062   5.981  19.154  0.00  0.00    +0.000 NA
ATOM      3  C   UNL     1       2.884   4.723  19.693  0.00  0.00    +0.000 A 
ATOM      4  C   UNL     1       1.944   4.795  20.695  0.00  0.00    +0.000 A 
ATOM      5  O   UNL     1       1.502   6.077  20.776  0.00  0.00    +0.000 OA
ENDROOT
BRANCH   1  11
ATOM      6  C   UNL     1       1.178   9.015  20.420  0.00  0.00    +0.000 A 
ATOM      7  C   UNL     1       0.815  10.301  19.979  0.00  0.00    +0.000 A 
ATOM      8  C   UNL     1       1.086  10.731  18.680  0.00  0.00    +0.000 A 
ATOM      9  C   UNL     1       1.748   9.891  17.801  0.00  0.00    +0.000 A 
ATOM     10  C   UNL     1       2.125   8.617  18.222  0.00  0.00    +0.000 A 
ATOM     11  C   UNL     1       1.837   8.144  19.523  0.00  0.00    +0.000 A 
BRANCH   6  12
ATOM     12  O   UNL     1       0.909   8.571  21.696  0.00  0.00    +0.000 OA
BRANCH  12  14
ATOM     13  C   UNL     1      -0.410   9.731  23.351  0.00  0.00    +0.000 C 
ATOM     14  C   UNL     1      -0.422   8.759  22.185  0.00  0.00    +0.000 C 
ENDBRANCH  12  14
ENDBRANCH   6  12
ENDBRANCH   1  11
BRANCH   3  15
ATOM     15  C   UNL     1       3.619   3.528  19.187  0.00  0.00    +0.000 C 
BRANCH  15  16
ATOM     16  N   UNL     1       3.507   3.388  17.731  0.00  0.00    +0.000 NA
ATOM     17  H   UNL     1       3.046   4.223  17.370  0.00  0.00    +0.000 HD
BRANCH  16  18
ATOM     18  C   UNL     1       4.812   3.254  17.087  0.00  0.00    +0.000 C 
BRANCH  18  19
ATOM     19  C   UNL     1       5.632   4.514  17.232  0.00  0.00    +0.000 A 
ATOM     20  C   UNL     1       5.189   5.716  16.663  0.00  0.00    +0.000 A 
ATOM     21  C   UNL     1       5.919   6.894  16.831  0.00  0.00    +0.000 A 
ATOM     22  C   UNL     1       7.110   6.896  17.570  0.00  0.00    +0.000 A 
ATOM     23  C   UNL     1       7.562   5.688  18.127  0.00  0.00    +0.000 A 
ATOM     24  C   UNL     1       6.830   4.512  17.957  0.00  0.00    +0.000 A 
BRANCH  22  25
ATOM     25  C   UNL     1       7.898   8.165  17.775  0.00  0.00    +0.000 C 
ATOM     26  F   UNL     1       8.681   8.145  18.890  0.00  0.00    +0.000 F 
ATOM     27  F   UNL     1       8.740   8.428  16.737  0.00  0.00    +0.000 F 
ATOM     28  F   UNL     1       7.103   9.262  17.899  0.00  0.00    +0.000 F 
ENDBRANCH  22  25
ENDBRANCH  18  19
ENDBRANCH  16  18
ENDBRANCH  15  16
ENDBRANCH   3  15
TORSDOF 8
ENDMDL
MODEL 8
REMARK VINA RESULT:      -7.2      5.615      8.209
REMARK  Name = 
REMARK  9 active torsions:
REMARK  status: ('A' for Active; 'I' for Inactive)
REMARK    1  A    between atoms: C_1  and  C_2
REMARK    2  A    between atoms: C_2  and  O_3
REMARK    3  A    between atoms: O_3  and  C_4
REMARK    4  A    between atoms: C_9  and  C_10
REMARK    5  A    between atoms: C_12  and  C_13
REMARK    6  A    between atoms: C_13  and  N_14
REMARK    7  A    between atoms: N_14  and  C_15
REMARK    8  A    between atoms: C_15  and  C_16
REMARK    9  A    between atoms: C_19  and  C_20
REMARK                            x       y       z     vdW  Elec       q    Type
REMARK                         _______ _______ _______ _____ _____    ______ ____
ROOT
ATOM      1  C   UNL     1       5.566   5.674  18.295  0.00  0.00    +0.000 A 
ATOM      2  N   UNL     1       5.921   6.756  17.615  0.00  0.00    +0.000 NA
ATOM      3  C   UNL     1       7.246   6.955  17.950  0.00  0.00    +0.000 A 
ATOM      4  C   UNL     1       7.621   6.006  18.873  0.00  0.00    +0.000 A 
ATOM      5  O   UNL     1       6.559   5.189  19.103  0.00  0.00    +0.000 OA
ENDROOT
BRANCH   1  11
ATOM      6  C   UNL     1       4.028   3.931  17.221  0.00  0.00    +0.000 A 
ATOM      7  C   UNL     1       2.744   3.353  17.189  0.00  0.00    +0.000 A 
ATOM      8  C   UNL     1       1.750   3.735  18.091  0.00  0.00    +0.000 A 
ATOM      9  C   UNL     1       2.026   4.685  19.059  0.00  0.00    +0.000 A 
ATOM     10  C   UNL     1       3.294   5.260  19.113  0.00  0.00    +0.000 A 
ATOM     11  C   UNL     1       4.311   4.915  18.194  0.00  0.00    +0.000 A 
BRANCH   6  12
ATOM     12  O   UNL     1       5.017   3.572  16.333  0.00  0.00    +0.000 OA
BRANCH  12  14
ATOM     13  C   UNL     1       6.398   3.998  14.400  0.00  0.00    +0.000 C 
ATOM     14  C   UNL     1       5.092   4.308  15.109  0.00  0.00    +0.000 C 
ENDBRANCH  12  14
ENDBRANCH   6  12
ENDBRANCH   1  11
BRANCH   3  15
ATOM     15  C   UNL     1       8.069   8.037  17.337  0.00  0.00    +0.000 C 
BRANCH  15  16
ATOM     16  N   UNL     1       7.973   9.295  18.085  0.00  0.00    +0.000 NA
ATOM     17  H   UNL     1       7.079   9.299  18.577  0.00  0.00    +0.000 HD
BRANCH  16  18
ATOM     18  C   UNL     1       9.049   9.442  19.061  0.00  0.00    +0.000 C 
BRANCH  18  19
ATOM     19  C   UNL     1       9.628  10.837  19.041  0.00  0.00    +0.000 A 
ATOM     20  C   UNL     1       9.670  11.602  20.215  0.00  0.00    +0.000 A 
ATOM     21  C   UNL     1      10.245  12.875  20.214  0.00  0.00    +0.000 A 
ATOM     22  C   UNL     1      10.787  13.411  19.039  0.00  0.00    +0.000 A 
ATOM     23  C   UNL     1      10.731  12.650  17.859  0.00  0.00    +0.000 A 
ATOM     24  C   UNL     1      10.155  11.379  17.863  0.00  0.00    +0.000 A 
BRANCH  22  25
ATOM     25  C   UNL     1      11.428  14.776  19.028  0.00  0.00    +0.000 C 
ATOM     26  F   UNL     1      10.535  15.798  19.157  0.00  0.00    +0.000 F 
ATOM     27  F   UNL     1      12.324  14.938  20.042  0.00  0.00    +0.000 F 
ATOM     28  F   UNL     1      12.114  15.025  17.879  0.00  0.00    +0.000 F 
ENDBRANCH  22  25
ENDBRANCH  18  19
ENDBRANCH  16  18
ENDBRANCH  15  16
ENDBRANCH   3  15
TORSDOF 8
ENDMDL
MODEL 9
REMARK VINA RESULT:      -7.1      2.707      3.566
REMARK  Name = 
REMARK  9 active torsions:
REMARK  status: ('A' for Active; 'I' for Inactive)
REMARK    1  A    between atoms: C_1  and  C_2
REMARK    2  A    between atoms: C_2  and  O_3
REMARK    3  A    between atoms: O_3  and  C_4
REMARK    4  A    between atoms: C_9  and  C_10
REMARK    5  A    between atoms: C_12  and  C_13
REMARK    6  A    between atoms: C_13  and  N_14
REMARK    7  A    between atoms: N_14  and  C_15
REMARK    8  A    between atoms: C_15  and  C_16
REMARK    9  A    between atoms: C_19  and  C_20
REMARK                            x       y       z     vdW  Elec       q    Type
REMARK                         _______ _______ _______ _____ _____    ______ ____
ROOT
ATOM      1  C   UNL     1       2.478   6.732  19.053  0.00  0.00    +0.000 A 
ATOM      2  N   UNL     1       3.463   6.209  19.771  0.00  0.00    +0.000 NA
ATOM      3  C   UNL     1       3.578   4.913  19.306  0.00  0.00    +0.000 A 
ATOM      4  C   UNL     1       2.608   4.691  18.357  0.00  0.00    +0.000 A 
ATOM      5  O   UNL     1       1.900   5.839  18.191  0.00  0.00    +0.000 OA
ENDROOT
BRANCH   1  11
ATOM      6  C   UNL     1       1.342   8.802  20.045  0.00  0.00    +0.000 A 
ATOM      7  C   UNL     1       0.897  10.120  19.826  0.00  0.00    +0.000 A 
ATOM      8  C   UNL     1       1.122  10.773  18.614  0.00  0.00    +0.000 A 
ATOM      9  C   UNL     1       1.817  10.132  17.604  0.00  0.00    +0.000 A 
ATOM     10  C   UNL     1       2.275   8.831  17.806  0.00  0.00    +0.000 A 
ATOM     11  C   UNL     1       2.036   8.133  19.012  0.00  0.00    +0.000 A 
BRANCH   6  12
ATOM     12  O   UNL     1       1.121   8.139  21.232  0.00  0.00    +0.000 OA
BRANCH  12  14
ATOM     13  C   UNL     1      -0.160   9.266  22.939  0.00  0.00    +0.000 C 
ATOM     14  C   UNL     1       1.226   8.904  22.436  0.00  0.00    +0.000 C 
ENDBRANCH  12  14
ENDBRANCH   6  12
ENDBRANCH   1  11
BRANCH   3  15
ATOM     15  C   UNL     1       4.636   3.982  19.796  0.00  0.00    +0.000 C 
BRANCH  15  16
ATOM     16  N   UNL     1       5.578   3.612  18.736  0.00  0.00    +0.000 NA
ATOM     17  H   UNL     1       5.092   2.994  18.085  0.00  0.00    +0.000 HD
BRANCH  16  18
ATOM     18  C   UNL     1       6.072   4.775  18.003  0.00  0.00    +0.000 C 
BRANCH  18  19
ATOM     19  C   UNL     1       6.195   4.487  16.525  0.00  0.00    +0.000 A 
ATOM     20  C   UNL     1       5.317   3.586  15.904  0.00  0.00    +0.000 A 
ATOM     21  C   UNL     1       5.396   3.350  14.530  0.00  0.00    +0.000 A 
ATOM     22  C   UNL     1       6.354   4.007  13.748  0.00  0.00    +0.000 A 
ATOM     23  C   UNL     1       7.243   4.898  14.373  0.00  0.00    +0.000 A 
ATOM     24  C   UNL     1       7.163   5.131  15.746  0.00  0.00    +0.000 A 
BRANCH  22  25
ATOM     25  C   UNL     1       6.437   3.776  12.260  0.00  0.00    +0.000 C 
ATOM     26  F   UNL     1       5.241   3.909  11.620  0.00  0.00    +0.000 F 
ATOM     27  F   UNL     1       7.285   4.648  11.644  0.00  0.00    +0.000 F 
ATOM     28  F   UNL     1       6.889   2.531  11.947  0.00  0.00    +0.000 F 
ENDBRANCH  22  25
ENDBRANCH  18  19
ENDBRANCH  16  18
ENDBRANCH  15  16
ENDBRANCH   3  15
TORSDOF 8
ENDMDL
