MODEL 1
REMARK VINA RESULT:      -7.7      0.000      0.000
REMARK  Name = 
REMARK  6 active torsions:
REMARK  status: ('A' for Active; 'I' for Inactive)
REMARK    1  A    between atoms: C_1  and  C_2
REMARK    2  A    between atoms: C_2  and  C_3
REMARK    3  A    between atoms: C_2  and  C_4
REMARK    4  A    between atoms: C_9  and  C_10
REMARK    5  A    between atoms: N_12  and  C_13
REMARK    6  A    between atoms: C_13  and  C_14
REMARK                            x       y       z     vdW  Elec       q    Type
REMARK                         _______ _______ _______ _____ _____    ______ ____
ROOT
ATOM      1  C   UNL     1       6.526   4.215  14.774  0.00  0.00    +0.000 A 
ATOM      2  N   UNL     1       7.378   4.430  15.758  0.00  0.00    +0.000 NA
ATOM      3  C   UNL     1       6.576   4.728  16.819  0.00  0.00    +0.000 A 
ATOM      4  C   UNL     1       6.907   5.095  18.128  0.00  0.00    +0.000 A 
ATOM      5  C   UNL     1       5.868   5.375  19.025  0.00  0.00    +0.000 A 
ATOM      6  C   UNL     1       4.520   5.279  18.628  0.00  0.00    +0.000 A 
ATOM      7  C   UNL     1       4.176   4.921  17.310  0.00  0.00    +0.000 A 
ATOM      8  C   UNL     1       5.242   4.659  16.452  0.00  0.00    +0.000 A 
ATOM      9  O   UNL     1       5.202   4.321  15.125  0.00  0.00    +0.000 OA
ENDROOT
BRANCH   6  10
ATOM     10  C   UNL     1       3.421   5.621  19.578  0.00  0.00    +0.000 C 
ATOM     11  O   UNL     1       2.988   4.768  20.343  0.00  0.00    +0.000 OA
ATOM     12  N   UNL     1       2.958   6.922  19.536  0.00  0.00    +0.000 N 
ATOM     13  H   UNL     1       3.485   7.622  19.037  0.00  0.00    +0.000 HD
BRANCH  12  14
ATOM     14  C   UNL     1       1.909   7.396  20.418  0.00  0.00    +0.000 C 
BRANCH  14  15
ATOM     15  C   UNL     1       1.267   8.662  19.908  0.00  0.00    +0.000 A 
ATOM     16  C   UNL     1       1.527   9.050  18.581  0.00  0.00    +0.000 A 
ATOM     17  C   UNL     1       0.962  10.206  18.039  0.00  0.00    +0.000 A 
ATOM     18  C   UNL     1       0.132  11.005  18.820  0.00  0.00    +0.000 A 
ATOM     19  C   UNL     1      -0.147  10.636  20.134  0.00  0.00    +0.000 A 
ATOM     20  C   UNL     1       0.403   9.464  20.673  0.00  0.00    +0.000 A 
ATOM     21 BR   UNL     1      -0.099   9.014  22.449  0.00  0.00    +0.000 Br
ENDBRANCH  14  15
ENDBRANCH  12  14
ENDBRANCH   6  10
BRANCH   1  23
ATOM     22  C   UNL     1       5.559   3.671  12.572  0.00  0.00    +0.000 C 
ATOM     23  C   UNL     1       6.853   3.949  13.342  0.00  0.00    +0.000 C 
ATOM     24  C   UNL     1       7.582   5.146  12.729  0.00  0.00    +0.000 C 
ENDBRANCH   1  23
TORSDOF 4
ENDMDL
MODEL 2
REMARK VINA RESULT:      -7.6      2.838      4.138
REMARK  Name = 
REMARK  6 active torsions:
REMARK  status: ('A' for Active; 'I' for Inactive)
REMARK    1  A    between atoms: C_1  and  C_2
REMARK    2  A    between atoms: C_2  and  C_3
REMARK    3  A    between atoms: C_2  and  C_4
REMARK    4  A    between atoms: C_9  and  C_10
REMARK    5  A    between atoms: N_12  and  C_13
REMARK    6  A    between atoms: C_13  and  C_14
REMARK                            x       y       z     vdW  Elec       q    Type
REMARK                         _______ _______ _______ _____ _____    ______ ____
ROOT
ATOM      1  C   UNL     1       4.921   4.975  17.443  0.00  0.00    +0.000 A 
ATOM      2  N   UNL     1       4.281   4.739  18.572  0.00  0.00    +0.000 NA
ATOM      3  C   UNL     1       3.519   5.855  18.749  0.00  0.00    +0.000 A 
ATOM      4  C   UNL     1       2.662   6.208  19.798  0.00  0.00    +0.000 A 
ATOM      5  C   UNL     1       2.010   7.447  19.738  0.00  0.00    +0.000 A 
ATOM      6  C   UNL     1       2.199   8.315  18.645  0.00  0.00    +0.000 A 
ATOM      7  C   UNL     1       3.068   7.974  17.591  0.00  0.00    +0.000 A 
ATOM      8  C   UNL     1       3.699   6.737  17.697  0.00  0.00    +0.000 A 
ATOM      9  O   UNL     1       4.606   6.169  16.841  0.00  0.00    +0.000 OA
ENDROOT
BRANCH   6  10
ATOM     10  C   UNL     1       1.535   9.651  18.611  0.00  0.00    +0.000 C 
ATOM     11  O   UNL     1       2.071  10.584  18.024  0.00  0.00    +0.000 OA
ATOM     12  N   UNL     1       0.316   9.746  19.254  0.00  0.00    +0.000 N 
ATOM     13  H   UNL     1      -0.164   8.905  19.538  0.00  0.00    +0.000 HD
BRANCH  12  14
ATOM     14  C   UNL     1      -0.447  10.978  19.280  0.00  0.00    +0.000 C 
BRANCH  14  15
ATOM     15  C   UNL     1      -1.679  10.902  18.412  0.00  0.00    +0.000 A 
ATOM     16  C   UNL     1      -1.645  10.060  17.285  0.00  0.00    +0.000 A 
ATOM     17  C   UNL     1      -2.749   9.935  16.440  0.00  0.00    +0.000 A 
ATOM     18  C   UNL     1      -3.909  10.658  16.701  0.00  0.00    +0.000 A 
ATOM     19  C   UNL     1      -3.969  11.491  17.816  0.00  0.00    +0.000 A 
ATOM     20  C   UNL     1      -2.868  11.602  18.677  0.00  0.00    +0.000 A 
ATOM     21 BR   UNL     1      -3.079  12.708  20.208  0.00  0.00    +0.000 Br
ENDBRANCH  14  15
ENDBRANCH  12  14
ENDBRANCH   6  10
BRANCH   1  23
ATOM     22  C   UNL     1       5.794   4.139  15.294  0.00  0.00    +0.000 C 
ATOM     23  C   UNL     1       5.978   4.130  16.814  0.00  0.00    +0.000 C 
ATOM     24  C   UNL     1       7.369   4.654  17.178  0.00  0.00    +0.000 C 
ENDBRANCH   1  23
TORSDOF 4
ENDMDL
MODEL 3
REMARK VINA RESULT:      -7.6      3.401      5.264
REMARK  Name = 
REMARK  6 active torsions:
REMARK  status: ('A' for Active; 'I' for Inactive)
REMARK    1  A    between atoms: C_1  and  C_2
REMARK    2  A    between atoms: C_2  and  C_3
REMARK    3  A    between atoms: C_2  and  C_4
REMARK    4  A    between atoms: C_9  and  C_10
REMARK    5  A    between atoms: N_12  and  C_13
REMARK    6  A    between atoms: C_13  and  C_14
REMARK                            x       y       z     vdW  Elec       q    Type
REMARK                         _______ _______ _______ _____ _____    ______ ____
ROOT
ATOM      1  C   UNL     1       2.990   4.024  19.592  0.00  0.00    +0.000 A 
ATOM      2  N   UNL     1       3.843   4.407  18.661  0.00  0.00    +0.000 NA
ATOM      3  C   UNL     1       3.506   5.708  18.432  0.00  0.00    +0.000 A 
ATOM      4  C   UNL     1       4.025   6.629  17.515  0.00  0.00    +0.000 A 
ATOM      5  C   UNL     1       3.469   7.914  17.473  0.00  0.00    +0.000 A 
ATOM      6  C   UNL     1       2.421   8.281  18.339  0.00  0.00    +0.000 A 
ATOM      7  C   UNL     1       1.885   7.359  19.258  0.00  0.00    +0.000 A 
ATOM      8  C   UNL     1       2.463   6.092  19.259  0.00  0.00    +0.000 A 
ATOM      9  O   UNL     1       2.126   5.003  20.019  0.00  0.00    +0.000 OA
ENDROOT
BRANCH   6  10
ATOM     10  C   UNL     1       1.806   9.638  18.257  0.00  0.00    +0.000 C 
ATOM     11  O   UNL     1       2.306  10.491  17.534  0.00  0.00    +0.000 OA
ATOM     12  N   UNL     1       0.671   9.843  19.018  0.00  0.00    +0.000 N 
ATOM     13  H   UNL     1       0.196   9.053  19.427  0.00  0.00    +0.000 HD
BRANCH  12  14
ATOM     14  C   UNL     1      -0.040  11.107  19.016  0.00  0.00    +0.000 C 
BRANCH  14  15
ATOM     15  C   UNL     1      -1.420  10.981  18.420  0.00  0.00    +0.000 A 
ATOM     16  C   UNL     1      -1.609  10.061  17.372  0.00  0.00    +0.000 A 
ATOM     17  C   UNL     1      -2.860   9.886  16.776  0.00  0.00    +0.000 A 
ATOM     18  C   UNL     1      -3.947  10.638  17.211  0.00  0.00    +0.000 A 
ATOM     19  C   UNL     1      -3.786  11.549  18.253  0.00  0.00    +0.000 A 
ATOM     20  C   UNL     1      -2.535  11.711  18.866  0.00  0.00    +0.000 A 
ATOM     21 BR   UNL     1      -2.440  12.925  20.324  0.00  0.00    +0.000 Br
ENDBRANCH  14  15
ENDBRANCH  12  14
ENDBRANCH   6  10
BRANCH   1  23
ATOM     22  C   UNL     1       2.329   2.753  21.599  0.00  0.00    +0.000 C 
ATOM     23  C   UNL     1       2.828   2.651  20.155  0.00  0.00    +0.000 C 
ATOM     24  C   UNL     1       1.840   1.841  19.313  0.00  0.00    +0.000 C 
ENDBRANCH   1  23
TORSDOF 4
ENDMDL
MODEL 4
REMARK VINA RESULT:      -7.6      2.579      3.639
REMARK  Name = 
REMARK  6 active torsions:
REMARK  status: ('A' for Active; 'I' for Inactive)
REMARK    1  A    between atoms: C_1  and  C_2
REMARK    2  A    between atoms: C_2  and  C_3
REMARK    3  A    between atoms: C_2  and  C_4
REMARK    4  A    between atoms: C_9  and  C_10
REMARK    5  A    between atoms: N_12  and  C_13
REMARK    6  A    between atoms: C_13  and  C_14
REMARK                            x       y       z     vdW  Elec       q    Type
REMARK                         _______ _______ _______ _____ _____    ______ ____
ROOT
ATOM      1  C   UNL     1       5.136   5.534  16.418  0.00  0.00    +0.000 A 
ATOM      2  N   UNL     1       4.694   4.800  17.421  0.00  0.00    +0.000 NA
ATOM      3  C   UNL     1       3.840   5.633  18.079  0.00  0.00    +0.000 A 
ATOM      4  C   UNL     1       3.105   5.432  19.252  0.00  0.00    +0.000 A 
ATOM      5  C   UNL     1       2.310   6.483  19.730  0.00  0.00    +0.000 A 
ATOM      6  C   UNL     1       2.240   7.711  19.043  0.00  0.00    +0.000 A 
ATOM      7  C   UNL     1       2.985   7.927  17.867  0.00  0.00    +0.000 A 
ATOM      8  C   UNL     1       3.765   6.857  17.434  0.00  0.00    +0.000 A 
ATOM      9  O   UNL     1       4.602   6.798  16.351  0.00  0.00    +0.000 OA
ENDROOT
BRANCH   6  10
ATOM     10  C   UNL     1       1.426   8.839  19.582  0.00  0.00    +0.000 C 
ATOM     11  O   UNL     1       1.253   8.942  20.791  0.00  0.00    +0.000 OA
ATOM     12  N   UNL     1       0.918   9.727  18.654  0.00  0.00    +0.000 N 
ATOM     13  H   UNL     1       1.261   9.707  17.706  0.00  0.00    +0.000 HD
BRANCH  12  14
ATOM     14  C   UNL     1       0.128  10.879  19.042  0.00  0.00    +0.000 C 
BRANCH  14  15
ATOM     15  C   UNL     1      -1.260  10.842  18.451  0.00  0.00    +0.000 A 
ATOM     16  C   UNL     1      -1.519   9.916  17.424  0.00  0.00    +0.000 A 
ATOM     17  C   UNL     1      -2.782   9.821  16.835  0.00  0.00    +0.000 A 
ATOM     18  C   UNL     1      -3.809  10.659  17.256  0.00  0.00    +0.000 A 
ATOM     19  C   UNL     1      -3.578  11.578  18.278  0.00  0.00    +0.000 A 
ATOM     20  C   UNL     1      -2.317  11.660  18.884  0.00  0.00    +0.000 A 
ATOM     21 BR   UNL     1      -2.128  12.895  20.316  0.00  0.00    +0.000 Br
ENDBRANCH  14  15
ENDBRANCH  12  14
ENDBRANCH   6  10
BRANCH   1  23
ATOM     22  C   UNL     1       7.424   4.650  16.162  0.00  0.00    +0.000 C 
ATOM     23  C   UNL     1       6.185   5.163  15.423  0.00  0.00    +0.000 C 
ATOM     24  C   UNL     1       5.660   4.089  14.469  0.00  0.00    +0.000 C 
ENDBRANCH   1  23
TORSDOF 4
ENDMDL
MODEL 5
REMARK VINA RESULT:      -7.6      2.754      8.551
REMARK  Name = 
REMARK  6 active torsions:
REMARK  status: ('A' for Active; 'I' for Inactive)
REMARK    1  A    between atoms: C_1  and  C_2
REMARK    2  A    between atoms: C_2  and  C_3
REMARK    3  A    between atoms: C_2  and  C_4
REMARK    4  A    between atoms: C_9  and  C_10
REMARK    5  A    between atoms: N_12  and  C_13
REMARK    6  A    between atoms: C_13  and  C_14
REMARK                            x       y       z     vdW  Elec       q    Type
REMARK                         _______ _______ _______ _____ _____    ______ ____
ROOT
ATOM      1  C   UNL     1      -0.085  10.495  20.734  0.00  0.00    +0.000 A 
ATOM      2  N   UNL     1       0.308  10.758  19.502  0.00  0.00    +0.000 NA
ATOM      3  C   UNL     1       1.062   9.673  19.167  0.00  0.00    +0.000 A 
ATOM      4  C   UNL     1       1.786   9.400  18.001  0.00  0.00    +0.000 A 
ATOM      5  C   UNL     1       2.505   8.200  17.928  0.00  0.00    +0.000 A 
ATOM      6  C   UNL     1       2.493   7.280  18.995  0.00  0.00    +0.000 A 
ATOM      7  C   UNL     1       1.776   7.550  20.176  0.00  0.00    +0.000 A 
ATOM      8  C   UNL     1       1.083   8.758  20.207  0.00  0.00    +0.000 A 
ATOM      9  O   UNL     1       0.335   9.284  21.227  0.00  0.00    +0.000 OA
ENDROOT
BRANCH   6  10
ATOM     10  C   UNL     1       3.297   6.024  18.926  0.00  0.00    +0.000 C 
ATOM     11  O   UNL     1       3.692   5.496  19.958  0.00  0.00    +0.000 OA
ATOM     12  N   UNL     1       3.538   5.520  17.663  0.00  0.00    +0.000 N 
ATOM     13  H   UNL     1       3.020   5.880  16.876  0.00  0.00    +0.000 HD
BRANCH  12  14
ATOM     14  C   UNL     1       4.286   4.296  17.452  0.00  0.00    +0.000 C 
BRANCH  14  15
ATOM     15  C   UNL     1       5.322   4.444  16.365  0.00  0.00    +0.000 A 
ATOM     16  C   UNL     1       4.949   4.125  15.045  0.00  0.00    +0.000 A 
ATOM     17  C   UNL     1       5.853   4.244  13.988  0.00  0.00    +0.000 A 
ATOM     18  C   UNL     1       7.154   4.674  14.231  0.00  0.00    +0.000 A 
ATOM     19  C   UNL     1       7.543   5.004  15.528  0.00  0.00    +0.000 A 
ATOM     20  C   UNL     1       6.630   4.905  16.587  0.00  0.00    +0.000 A 
ATOM     21 BR   UNL     1       7.240   5.447  18.303  0.00  0.00    +0.000 Br
ENDBRANCH  14  15
ENDBRANCH  12  14
ENDBRANCH   6  10
BRANCH   1  23
ATOM     22  C   UNL     1      -0.954  10.747  23.028  0.00  0.00    +0.000 C 
ATOM     23  C   UNL     1      -0.858  11.392  21.643  0.00  0.00    +0.000 C 
ATOM     24  C   UNL     1      -0.180  12.760  21.747  0.00  0.00    +0.000 C 
ENDBRANCH   1  23
TORSDOF 4
ENDMDL
MODEL 6
REMARK VINA RESULT:      -7.5      2.879      8.749
REMARK  Name = 
REMARK  6 active torsions:
REMARK  status: ('A' for Active; 'I' for Inactive)
REMARK    1  A    between atoms: C_1  and  C_2
REMARK    2  A    between atoms: C_2  and  C_3
REMARK    3  A    between atoms: C_2  and  C_4
REMARK    4  A    between atoms: C_9  and  C_10
REMARK    5  A    between atoms: N_12  and  C_13
REMARK    6  A    between atoms: C_13  and  C_14
REMARK                            x       y       z     vdW  Elec       q    Type
REMARK                         _______ _______ _______ _____ _____    ______ ____
ROOT
ATOM      1  C   UNL     1      -0.403  11.209  20.859  0.00  0.00    +0.000 A 
ATOM      2  N   UNL     1       0.008  11.255  19.606  0.00  0.00    +0.000 NA
ATOM      3  C   UNL     1       0.681  10.081  19.445  0.00  0.00    +0.000 A 
ATOM      4  C   UNL     1       1.383   9.585  18.341  0.00  0.00    +0.000 A 
ATOM      5  C   UNL     1       2.014   8.339  18.456  0.00  0.00    +0.000 A 
ATOM      6  C   UNL     1       1.936   7.593  19.649  0.00  0.00    +0.000 A 
ATOM      7  C   UNL     1       1.241   8.088  20.769  0.00  0.00    +0.000 A 
ATOM      8  C   UNL     1       0.637   9.333  20.611  0.00  0.00    +0.000 A 
ATOM      9  O   UNL     1      -0.070  10.059  21.532  0.00  0.00    +0.000 OA
ENDROOT
BRANCH   6  10
ATOM     10  C   UNL     1       2.647   6.287  19.777  0.00  0.00    +0.000 C 
ATOM     11  O   UNL     1       2.216   5.431  20.540  0.00  0.00    +0.000 OA
ATOM     12  N   UNL     1       3.772   6.123  18.993  0.00  0.00    +0.000 N 
ATOM     13  H   UNL     1       3.956   6.773  18.244  0.00  0.00    +0.000 HD
BRANCH  12  14
ATOM     14  C   UNL     1       4.545   4.896  19.002  0.00  0.00    +0.000 C 
BRANCH  14  15
ATOM     15  C   UNL     1       5.333   4.711  17.729  0.00  0.00    +0.000 A 
ATOM     16  C   UNL     1       4.659   4.214  16.598  0.00  0.00    +0.000 A 
ATOM     17  C   UNL     1       5.322   4.023  15.384  0.00  0.00    +0.000 A 
ATOM     18  C   UNL     1       6.678   4.317  15.280  0.00  0.00    +0.000 A 
ATOM     19  C   UNL     1       7.364   4.819  16.384  0.00  0.00    +0.000 A 
ATOM     20  C   UNL     1       6.695   5.030  17.598  0.00  0.00    +0.000 A 
ATOM     21 BR   UNL     1       7.705   5.785  19.019  0.00  0.00    +0.000 Br
ENDBRANCH  14  15
ENDBRANCH  12  14
ENDBRANCH   6  10
BRANCH   1  23
ATOM     22  C   UNL     1      -2.258  12.831  20.765  0.00  0.00    +0.000 C 
ATOM     23  C   UNL     1      -1.108  12.286  21.615  0.00  0.00    +0.000 C 
ATOM     24  C   UNL     1      -1.646  11.743  22.941  0.00  0.00    +0.000 C 
ENDBRANCH   1  23
TORSDOF 4
ENDMDL
MODEL 7
REMARK VINA RESULT:      -7.4      2.779      8.048
REMARK  Name = 
REMARK  6 active torsions:
REMARK  status: ('A' for Active; 'I' for Inactive)
REMARK    1  A    between atoms: C_1  and  C_2
REMARK    2  A    between atoms: C_2  and  C_3
REMARK    3  A    between atoms: C_2  and  C_4
REMARK    4  A    between atoms: C_9  and  C_10
REMARK    5  A    between atoms: N_12  and  C_13
REMARK    6  A    between atoms: C_13  and  C_14
REMARK                            x       y       z     vdW  Elec       q    Type
REMARK                         _______ _______ _______ _____ _____    ______ ____
ROOT
ATOM      1  C   UNL     1       0.523  11.157  19.137  0.00  0.00    +0.000 A 
ATOM      2  N   UNL     1       0.429  10.652  20.352  0.00  0.00    +0.000 NA
ATOM      3  C   UNL     1       0.990   9.415  20.231  0.00  0.00    +0.000 A 
ATOM      4  C   UNL     1       1.133   8.392  21.174  0.00  0.00    +0.000 A 
ATOM      5  C   UNL     1       1.735   7.192  20.770  0.00  0.00    +0.000 A 
ATOM      6  C   UNL     1       2.198   7.021  19.451  0.00  0.00    +0.000 A 
ATOM      7  C   UNL     1       2.048   8.041  18.492  0.00  0.00    +0.000 A 
ATOM      8  C   UNL     1       1.438   9.211  18.936  0.00  0.00    +0.000 A 
ATOM      9  O   UNL     1       1.142  10.341  18.221  0.00  0.00    +0.000 OA
ENDROOT
BRANCH   6  10
ATOM     10  C   UNL     1       2.797   5.725  19.018  0.00  0.00    +0.000 C 
ATOM     11  O   UNL     1       2.120   4.918  18.392  0.00  0.00    +0.000 OA
ATOM     12  N   UNL     1       4.122   5.521  19.352  0.00  0.00    +0.000 N 
ATOM     13  H   UNL     1       4.678   6.296  19.681  0.00  0.00    +0.000 HD
BRANCH  12  14
ATOM     14  C   UNL     1       4.836   4.316  18.975  0.00  0.00    +0.000 C 
BRANCH  14  15
ATOM     15  C   UNL     1       5.534   4.461  17.645  0.00  0.00    +0.000 A 
ATOM     16  C   UNL     1       4.888   3.961  16.499  0.00  0.00    +0.000 A 
ATOM     17  C   UNL     1       5.471   4.066  15.235  0.00  0.00    +0.000 A 
ATOM     18  C   UNL     1       6.719   4.665  15.093  0.00  0.00    +0.000 A 
ATOM     19  C   UNL     1       7.373   5.175  16.213  0.00  0.00    +0.000 A 
ATOM     20  C   UNL     1       6.779   5.089  17.480  0.00  0.00    +0.000 A 
ATOM     21 BR   UNL     1       7.721   5.880  18.928  0.00  0.00    +0.000 Br
ENDBRANCH  14  15
ENDBRANCH  12  14
ENDBRANCH   6  10
BRANCH   1  23
ATOM     22  C   UNL     1      -1.418  12.228  18.056  0.00  0.00    +0.000 C 
ATOM     23  C   UNL     1      -0.028  12.458  18.657  0.00  0.00    +0.000 C 
ATOM     24  C   UNL     1      -0.114  13.460  19.810  0.00  0.00    +0.000 C 
ENDBRANCH   1  23
TORSDOF 4
ENDMDL
MODEL 8
REMARK VINA RESULT:      -7.3      4.079      9.306
REMARK  Name = 
REMARK  6 active torsions:
REMARK  status: ('A' for Active; 'I' for Inactive)
REMARK    1  A    between atoms: C_1  and  C_2
REMARK    2  A    between atoms: C_2  and  C_3
REMARK    3  A    between atoms: C_2  and  C_4
REMARK    4  A    between atoms: C_9  and  C_10
REMARK    5  A    between atoms: N_12  and  C_13
REMARK    6  A    between atoms: C_13  and  C_14
REMARK                            x       y       z     vdW  Elec       q    Type
REMARK                         _______ _______ _______ _____ _____    ______ ____
ROOT
ATOM      1  C   UNL     1      -1.350  11.773  21.674  0.00  0.00    +0.000 A 
ATOM      2  N   UNL     1      -1.384  12.056  20.386  0.00  0.00    +0.000 NA
ATOM      3  C   UNL     1      -0.570  11.115  19.828  0.00  0.00    +0.000 A 
ATOM      4  C   UNL     1      -0.174  10.935  18.498  0.00  0.00    +0.000 A 
ATOM      5  C   UNL     1       0.704   9.885  18.200  0.00  0.00    +0.000 A 
ATOM      6  C   UNL     1       1.171   9.020  19.209  0.00  0.00    +0.000 A 
ATOM      7  C   UNL     1       0.788   9.199  20.551  0.00  0.00    +0.000 A 
ATOM      8  C   UNL     1      -0.079  10.260  20.802  0.00  0.00    +0.000 A 
ATOM      9  O   UNL     1      -0.587  10.679  22.004  0.00  0.00    +0.000 OA
ENDROOT
BRANCH   6  10
ATOM     10  C   UNL     1       2.141   7.932  18.888  0.00  0.00    +0.000 C 
ATOM     11  O   UNL     1       2.695   7.912  17.796  0.00  0.00    +0.000 OA
ATOM     12  N   UNL     1       2.362   6.997  19.881  0.00  0.00    +0.000 N 
ATOM     13  H   UNL     1       2.038   7.180  20.819  0.00  0.00    +0.000 HD
BRANCH  12  14
ATOM     14  C   UNL     1       3.295   5.900  19.712  0.00  0.00    +0.000 C 
BRANCH  14  15
ATOM     15  C   UNL     1       2.597   4.613  19.348  0.00  0.00    +0.000 A 
ATOM     16  C   UNL     1       1.442   4.257  20.068  0.00  0.00    +0.000 A 
ATOM     17  C   UNL     1       0.741   3.084  19.781  0.00  0.00    +0.000 A 
ATOM     18  C   UNL     1       1.188   2.236  18.773  0.00  0.00    +0.000 A 
ATOM     19  C   UNL     1       2.326   2.572  18.041  0.00  0.00    +0.000 A 
ATOM     20  C   UNL     1       3.018   3.760  18.314  0.00  0.00    +0.000 A 
ATOM     21 BR   UNL     1       4.512   4.159  17.210  0.00  0.00    +0.000 Br
ENDBRANCH  14  15
ENDBRANCH  12  14
ENDBRANCH   6  10
BRANCH   1  23
ATOM     22  C   UNL     1      -1.048  13.688  23.198  0.00  0.00    +0.000 C 
ATOM     23  C   UNL     1      -1.981  12.547  22.784  0.00  0.00    +0.000 C 
ATOM     24  C   UNL     1      -3.333  13.109  22.342  0.00  0.00    +0.000 C 
ENDBRANCH   1  23
TORSDOF 4
ENDMDL
MODEL 9
REMARK VINA RESULT:      -7.3      2.763      8.656
REMARK  Name = 
REMARK  6 active torsions:
REMARK  status: ('A' for Active; 'I' for Inactive)
REMARK    1  A    between atoms: C_1  and  C_2
REMARK    2  A    between atoms: C_2  and  C_3
REMARK    3  A    between atoms: C_2  and  C_4
REMARK    4  A    between atoms: C_9  and  C_10
REMARK    5  A    between atoms: N_12  and  C_13
REMARK    6  A    between atoms: C_13  and  C_14
REMARK                            x       y       z     vdW  Elec       q    Type
REMARK                         _______ _______ _______ _____ _____    ______ ____
ROOT
ATOM      1  C   UNL     1      -0.283  11.190  20.863  0.00  0.00    +0.000 A 
ATOM      2  N   UNL     1       0.139  11.229  19.614  0.00  0.00    +0.000 NA
ATOM      3  C   UNL     1       0.783  10.039  19.454  0.00  0.00    +0.000 A 
ATOM      4  C   UNL     1       1.481   9.529  18.353  0.00  0.00    +0.000 A 
ATOM      5  C   UNL     1       2.079   8.267  18.469  0.00  0.00    +0.000 A 
ATOM      6  C   UNL     1       1.973   7.520  19.658  0.00  0.00    +0.000 A 
ATOM      7  C   UNL     1       1.282   8.028  20.775  0.00  0.00    +0.000 A 
ATOM      8  C   UNL     1       0.711   9.289  20.616  0.00  0.00    +0.000 A 
ATOM      9  O   UNL     1       0.015  10.029  21.535  0.00  0.00    +0.000 OA
ENDROOT
BRANCH   6  10
ATOM     10  C   UNL     1       2.650   6.196  19.788  0.00  0.00    +0.000 C 
ATOM     11  O   UNL     1       2.026   5.231  20.213  0.00  0.00    +0.000 OA
ATOM     12  N   UNL     1       3.973   6.144  19.395  0.00  0.00    +0.000 N 
ATOM     13  H   UNL     1       4.367   6.908  18.868  0.00  0.00    +0.000 HD
BRANCH  12  14
ATOM     14  C   UNL     1       4.744   4.917  19.447  0.00  0.00    +0.000 C 
BRANCH  14  15
ATOM     15  C   UNL     1       5.399   4.601  18.125  0.00  0.00    +0.000 A 
ATOM     16  C   UNL     1       6.765   4.901  17.972  0.00  0.00    +0.000 A 
ATOM     17  C   UNL     1       7.439   4.630  16.780  0.00  0.00    +0.000 A 
ATOM     18  C   UNL     1       6.755   4.062  15.710  0.00  0.00    +0.000 A 
ATOM     19  C   UNL     1       5.404   3.747  15.841  0.00  0.00    +0.000 A 
ATOM     20  C   UNL     1       4.731   4.000  17.045  0.00  0.00    +0.000 A 
ATOM     21 BR   UNL     1       2.910   3.467  17.143  0.00  0.00    +0.000 Br
ENDBRANCH  14  15
ENDBRANCH  12  14
ENDBRANCH   6  10
BRANCH   1  23
ATOM     22  C   UNL     1      -1.436  11.742  22.972  0.00  0.00    +0.000 C 
ATOM     23  C   UNL     1      -0.966  12.281  21.618  0.00  0.00    +0.000 C 
ATOM     24  C   UNL     1      -0.018  13.464  21.824  0.00  0.00    +0.000 C 
ENDBRANCH   1  23
TORSDOF 4
ENDMDL
