MODEL 1
REMARK VINA RESULT:      -9.2      0.000      0.000
REMARK  Name = 
REMARK  6 active torsions:
REMARK  status: ('A' for Active; 'I' for Inactive)
REMARK    1  A    between atoms: C_1  and  C_2
REMARK    2  A    between atoms: C_5  and  C_6
REMARK    3  A    between atoms: N_8  and  C_9
REMARK    4  A    between atoms: C_12  and  N_13
REMARK    5  A    between atoms: C_15  and  C_16
REMARK    6  A    between atoms: C_21  and  C_22
REMARK                            x       y       z     vdW  Elec       q    Type
REMARK                         _______ _______ _______ _____ _____    ______ ____
ROOT
ATOM      1  C   UNL     1       1.322   8.858  19.661  0.00  0.00    +0.000 A 
ATOM      2  C   UNL     1       1.824   8.991  18.365  0.00  0.00    +0.000 A 
ATOM      3  C   UNL     1       2.628   8.000  17.799  0.00  0.00    +0.000 A 
ATOM      4  C   UNL     1       2.917   6.833  18.515  0.00  0.00    +0.000 A 
ATOM      5  C   UNL     1       2.449   6.701  19.826  0.00  0.00    +0.000 A 
ATOM      6  C   UNL     1       1.661   7.716  20.397  0.00  0.00    +0.000 A 
ENDROOT
BRANCH   4   7
ATOM      7  N   UNL     1       3.720   5.841  17.890  0.00  0.00    +0.000 N 
ATOM      8  N   UNL     1       4.957   6.202  17.449  0.00  0.00    +0.000 NA
ATOM      9  C   UNL     1       5.585   5.056  17.139  0.00  0.00    +0.000 A 
ATOM     10  C   UNL     1       4.688   3.970  17.234  0.00  0.00    +0.000 A 
ATOM     11  C   UNL     1       3.483   4.508  17.653  0.00  0.00    +0.000 A 
BRANCH   9  12
ATOM     12  C   UNL     1       7.032   4.985  16.718  0.00  0.00    +0.000 C 
ATOM     13  F   UNL     1       7.230   4.385  15.516  0.00  0.00    +0.000 F 
ATOM     14  F   UNL     1       7.577   6.230  16.626  0.00  0.00    +0.000 F 
ATOM     15  F   UNL     1       7.785   4.308  17.627  0.00  0.00    +0.000 F 
ENDBRANCH   9  12
BRANCH  11  16
ATOM     16  C   UNL     1       2.171   3.849  17.743  0.00  0.00    +0.000 C 
ATOM     17  F   UNL     1       1.144   4.542  17.202  0.00  0.00    +0.000 F 
ATOM     18  F   UNL     1       2.190   2.650  17.105  0.00  0.00    +0.000 F 
ATOM     19  F   UNL     1       1.842   3.593  19.034  0.00  0.00    +0.000 F 
ENDBRANCH  11  16
ENDBRANCH   4   7
BRANCH   1  22
ATOM     20  C   UNL     1       0.623  10.269  21.583  0.00  0.00    +0.000 C 
ATOM     21  O   UNL     1       1.513   9.955  22.366  0.00  0.00    +0.000 OA
ATOM     22  N   UNL     1       0.499   9.836  20.271  0.00  0.00    +0.000 N 
ATOM     23  H   UNL     1      -0.138  10.335  19.665  0.00  0.00    +0.000 HD
BRANCH  20  28
ATOM     24  C   UNL     1      -2.839  14.431  23.431  0.00  0.00    +0.000 C 
ATOM     25  C   UNL     1      -2.015  13.274  22.952  0.00  0.00    +0.000 A 
ATOM     26  C   UNL     1      -2.193  11.988  23.457  0.00  0.00    +0.000 A 
ATOM     27  C   UNL     1      -1.368  10.953  23.003  0.00  0.00    +0.000 A 
ATOM     28  C   UNL     1      -0.379  11.243  22.065  0.00  0.00    +0.000 A 
ATOM     29  C   UNL     1      -0.265  12.553  21.620  0.00  0.00    +0.000 A 
ATOM     30  N   UNL     1      -1.068  13.566  22.030  0.00  0.00    +0.000 NA
ENDBRANCH  20  28
ENDBRANCH   1  22
TORSDOF 5
ENDMDL
MODEL 2
REMARK VINA RESULT:      -9.1      0.682      1.190
REMARK  Name = 
REMARK  6 active torsions:
REMARK  status: ('A' for Active; 'I' for Inactive)
REMARK    1  A    between atoms: C_1  and  C_2
REMARK    2  A    between atoms: C_5  and  C_6
REMARK    3  A    between atoms: N_8  and  C_9
REMARK    4  A    between atoms: C_12  and  N_13
REMARK    5  A    between atoms: C_15  and  C_16
REMARK    6  A    between atoms: C_21  and  C_22
REMARK                            x       y       z     vdW  Elec       q    Type
REMARK                         _______ _______ _______ _____ _____    ______ ____
ROOT
ATOM      1  C   UNL     1       1.213   8.859  19.577  0.00  0.00    +0.000 A 
ATOM      2  C   UNL     1       1.759   8.975  18.296  0.00  0.00    +0.000 A 
ATOM      3  C   UNL     1       2.612   7.994  17.787  0.00  0.00    +0.000 A 
ATOM      4  C   UNL     1       2.910   6.856  18.543  0.00  0.00    +0.000 A 
ATOM      5  C   UNL     1       2.398   6.743  19.840  0.00  0.00    +0.000 A 
ATOM      6  C   UNL     1       1.560   7.748  20.354  0.00  0.00    +0.000 A 
ENDROOT
BRANCH   4   7
ATOM      7  N   UNL     1       3.765   5.874  17.975  0.00  0.00    +0.000 N 
ATOM      8  N   UNL     1       5.023   6.252  17.611  0.00  0.00    +0.000 NA
ATOM      9  C   UNL     1       5.685   5.114  17.346  0.00  0.00    +0.000 A 
ATOM     10  C   UNL     1       4.800   4.015  17.389  0.00  0.00    +0.000 A 
ATOM     11  C   UNL     1       3.563   4.536  17.729  0.00  0.00    +0.000 A 
BRANCH   9  12
ATOM     12  C   UNL     1       7.157   5.063  17.018  0.00  0.00    +0.000 C 
ATOM     13  F   UNL     1       7.902   4.377  17.922  0.00  0.00    +0.000 F 
ATOM     14  F   UNL     1       7.369   4.472  15.809  0.00  0.00    +0.000 F 
ATOM     15  F   UNL     1       7.693   6.311  16.929  0.00  0.00    +0.000 F 
ENDBRANCH   9  12
BRANCH  11  16
ATOM     16  C   UNL     1       2.258   3.859  17.739  0.00  0.00    +0.000 C 
ATOM     17  F   UNL     1       1.231   4.585  17.241  0.00  0.00    +0.000 F 
ATOM     18  F   UNL     1       2.302   2.719  17.000  0.00  0.00    +0.000 F 
ATOM     19  F   UNL     1       1.911   3.489  18.997  0.00  0.00    +0.000 F 
ENDBRANCH  11  16
ENDBRANCH   4   7
BRANCH   1  22
ATOM     20  C   UNL     1       0.456  10.363  21.403  0.00  0.00    +0.000 C 
ATOM     21  O   UNL     1       1.378  10.165  22.189  0.00  0.00    +0.000 OA
ATOM     22  N   UNL     1       0.339   9.826  20.130  0.00  0.00    +0.000 N 
ATOM     23  H   UNL     1      -0.339  10.237  19.502  0.00  0.00    +0.000 HD
BRANCH  20  28
ATOM     24  C   UNL     1      -3.902  13.557  23.282  0.00  0.00    +0.000 C 
ATOM     25  C   UNL     1      -2.714  12.809  22.754  0.00  0.00    +0.000 A 
ATOM     26  C   UNL     1      -2.095  13.168  21.559  0.00  0.00    +0.000 A 
ATOM     27  C   UNL     1      -1.015  12.410  21.093  0.00  0.00    +0.000 A 
ATOM     28  C   UNL     1      -0.598  11.305  21.834  0.00  0.00    +0.000 A 
ATOM     29  C   UNL     1      -1.276  11.015  23.009  0.00  0.00    +0.000 A 
ATOM     30  N   UNL     1      -2.311  11.748  23.490  0.00  0.00    +0.000 NA
ENDBRANCH  20  28
ENDBRANCH   1  22
TORSDOF 5
ENDMDL
MODEL 3
REMARK VINA RESULT:      -9.1      0.102      1.141
REMARK  Name = 
REMARK  6 active torsions:
REMARK  status: ('A' for Active; 'I' for Inactive)
REMARK    1  A    between atoms: C_1  and  C_2
REMARK    2  A    between atoms: C_5  and  C_6
REMARK    3  A    between atoms: N_8  and  C_9
REMARK    4  A    between atoms: C_12  and  N_13
REMARK    5  A    between atoms: C_15  and  C_16
REMARK    6  A    between atoms: C_21  and  C_22
REMARK                            x       y       z     vdW  Elec       q    Type
REMARK                         _______ _______ _______ _____ _____    ______ ____
ROOT
ATOM      1  C   UNL     1       1.291   8.836  19.709  0.00  0.00    +0.000 A 
ATOM      2  C   UNL     1       1.658   7.671  20.387  0.00  0.00    +0.000 A 
ATOM      3  C   UNL     1       2.444   6.697  19.769  0.00  0.00    +0.000 A 
ATOM      4  C   UNL     1       2.908   6.888  18.463  0.00  0.00    +0.000 A 
ATOM      5  C   UNL     1       2.521   8.034  17.761  0.00  0.00    +0.000 A 
ATOM      6  C   UNL     1       1.708   8.998  18.382  0.00  0.00    +0.000 A 
ENDROOT
BRANCH   4   7
ATOM      7  N   UNL     1       3.723   5.879  17.883  0.00  0.00    +0.000 N 
ATOM      8  N   UNL     1       4.963   6.231  17.442  0.00  0.00    +0.000 NA
ATOM      9  C   UNL     1       5.601   5.078  17.181  0.00  0.00    +0.000 A 
ATOM     10  C   UNL     1       4.709   3.991  17.306  0.00  0.00    +0.000 A 
ATOM     11  C   UNL     1       3.496   4.536  17.693  0.00  0.00    +0.000 A 
BRANCH   9  12
ATOM     12  C   UNL     1       7.053   5.001  16.779  0.00  0.00    +0.000 C 
ATOM     13  F   UNL     1       7.261   4.422  15.568  0.00  0.00    +0.000 F 
ATOM     14  F   UNL     1       7.611   6.242  16.718  0.00  0.00    +0.000 F 
ATOM     15  F   UNL     1       7.787   4.299  17.685  0.00  0.00    +0.000 F 
ENDBRANCH   9  12
BRANCH  11  16
ATOM     16  C   UNL     1       2.187   3.873  17.793  0.00  0.00    +0.000 C 
ATOM     17  F   UNL     1       1.778   3.600  19.053  0.00  0.00    +0.000 F 
ATOM     18  F   UNL     1       1.214   4.646  17.243  0.00  0.00    +0.000 F 
ATOM     19  F   UNL     1       2.181   2.702  17.108  0.00  0.00    +0.000 F 
ENDBRANCH  11  16
ENDBRANCH   4   7
BRANCH   1  22
ATOM     20  C   UNL     1       0.629  10.296  21.607  0.00  0.00    +0.000 C 
ATOM     21  O   UNL     1       1.499   9.957  22.403  0.00  0.00    +0.000 OA
ATOM     22  N   UNL     1       0.501   9.852  20.299  0.00  0.00    +0.000 N 
ATOM     23  H   UNL     1      -0.111  10.367  19.681  0.00  0.00    +0.000 HD
BRANCH  20  28
ATOM     24  C   UNL     1      -2.684  14.603  23.395  0.00  0.00    +0.000 C 
ATOM     25  C   UNL     1      -1.902  13.412  22.927  0.00  0.00    +0.000 A 
ATOM     26  C   UNL     1      -2.167  12.130  23.401  0.00  0.00    +0.000 A 
ATOM     27  C   UNL     1      -1.379  11.060  22.961  0.00  0.00    +0.000 A 
ATOM     28  C   UNL     1      -0.340  11.313  22.068  0.00  0.00    +0.000 A 
ATOM     29  C   UNL     1      -0.141  12.622  21.652  0.00  0.00    +0.000 A 
ATOM     30  N   UNL     1      -0.905  13.669  22.049  0.00  0.00    +0.000 NA
ENDBRANCH  20  28
ENDBRANCH   1  22
TORSDOF 5
ENDMDL
MODEL 4
REMARK VINA RESULT:      -9.0      0.668      1.218
REMARK  Name = 
REMARK  6 active torsions:
REMARK  status: ('A' for Active; 'I' for Inactive)
REMARK    1  A    between atoms: C_1  and  C_2
REMARK    2  A    between atoms: C_5  and  C_6
REMARK    3  A    between atoms: N_8  and  C_9
REMARK    4  A    between atoms: C_12  and  N_13
REMARK    5  A    between atoms: C_15  and  C_16
REMARK    6  A    between atoms: C_21  and  C_22
REMARK                            x       y       z     vdW  Elec       q    Type
REMARK                         _______ _______ _______ _____ _____    ______ ____
ROOT
ATOM      1  C   UNL     1       1.010   9.047  19.882  0.00  0.00    +0.000 A 
ATOM      2  C   UNL     1       1.383   9.204  18.545  0.00  0.00    +0.000 A 
ATOM      3  C   UNL     1       2.217   8.277  17.917  0.00  0.00    +0.000 A 
ATOM      4  C   UNL     1       2.668   7.149  18.612  0.00  0.00    +0.000 A 
ATOM      5  C   UNL     1       2.330   6.997  19.960  0.00  0.00    +0.000 A 
ATOM      6  C   UNL     1       1.511   7.949  20.592  0.00  0.00    +0.000 A 
ENDROOT
BRANCH   4   7
ATOM      7  N   UNL     1       3.496   6.221  17.925  0.00  0.00    +0.000 N 
ATOM      8  N   UNL     1       4.679   6.669  17.420  0.00  0.00    +0.000 NA
ATOM      9  C   UNL     1       5.361   5.570  17.054  0.00  0.00    +0.000 A 
ATOM     10  C   UNL     1       4.543   4.426  17.182  0.00  0.00    +0.000 A 
ATOM     11  C   UNL     1       3.332   4.878  17.679  0.00  0.00    +0.000 A 
BRANCH   9  12
ATOM     12  C   UNL     1       6.783   5.601  16.550  0.00  0.00    +0.000 C 
ATOM     13  F   UNL     1       7.442   6.756  16.826  0.00  0.00    +0.000 F 
ATOM     14  F   UNL     1       7.517   4.592  17.095  0.00  0.00    +0.000 F 
ATOM     15  F   UNL     1       6.839   5.425  15.202  0.00  0.00    +0.000 F 
ENDBRANCH   9  12
BRANCH  11  16
ATOM     16  C   UNL     1       2.073   4.134  17.833  0.00  0.00    +0.000 C 
ATOM     17  F   UNL     1       1.697   3.902  19.111  0.00  0.00    +0.000 F 
ATOM     18  F   UNL     1       1.043   4.806  17.255  0.00  0.00    +0.000 F 
ATOM     19  F   UNL     1       2.142   2.929  17.213  0.00  0.00    +0.000 F 
ENDBRANCH  11  16
ENDBRANCH   4   7
BRANCH   1  22
ATOM     20  C   UNL     1       0.592  11.104  21.210  0.00  0.00    +0.000 C 
ATOM     21  O   UNL     1       1.737  11.548  21.213  0.00  0.00    +0.000 OA
ATOM     22  N   UNL     1       0.163   9.960  20.555  0.00  0.00    +0.000 N 
ATOM     23  H   UNL     1      -0.833   9.824  20.441  0.00  0.00    +0.000 HD
BRANCH  20  28
ATOM     24  C   UNL     1      -2.963  14.538  24.089  0.00  0.00    +0.000 C 
ATOM     25  C   UNL     1      -2.113  13.574  23.316  0.00  0.00    +0.000 A 
ATOM     26  C   UNL     1      -2.307  12.197  23.401  0.00  0.00    +0.000 A 
ATOM     27  C   UNL     1      -1.458  11.342  22.689  0.00  0.00    +0.000 A 
ATOM     28  C   UNL     1      -0.433  11.894  21.923  0.00  0.00    +0.000 A 
ATOM     29  C   UNL     1      -0.307  13.277  21.901  0.00  0.00    +0.000 A 
ATOM     30  N   UNL     1      -1.131  14.124  22.566  0.00  0.00    +0.000 NA
ENDBRANCH  20  28
ENDBRANCH   1  22
TORSDOF 5
ENDMDL
MODEL 5
REMARK VINA RESULT:      -9.0      0.601      1.357
REMARK  Name = 
REMARK  6 active torsions:
REMARK  status: ('A' for Active; 'I' for Inactive)
REMARK    1  A    between atoms: C_1  and  C_2
REMARK    2  A    between atoms: C_5  and  C_6
REMARK    3  A    between atoms: N_8  and  C_9
REMARK    4  A    between atoms: C_12  and  N_13
REMARK    5  A    between atoms: C_15  and  C_16
REMARK    6  A    between atoms: C_21  and  C_22
REMARK                            x       y       z     vdW  Elec       q    Type
REMARK                         _______ _______ _______ _____ _____    ______ ____
ROOT
ATOM      1  C   UNL     1       1.294   8.863  19.622  0.00  0.00    +0.000 A 
ATOM      2  C   UNL     1       1.800   8.992  18.326  0.00  0.00    +0.000 A 
ATOM      3  C   UNL     1       2.608   8.000  17.768  0.00  0.00    +0.000 A 
ATOM      4  C   UNL     1       2.899   6.837  18.489  0.00  0.00    +0.000 A 
ATOM      5  C   UNL     1       2.426   6.710  19.800  0.00  0.00    +0.000 A 
ATOM      6  C   UNL     1       1.634   7.725  20.363  0.00  0.00    +0.000 A 
ENDROOT
BRANCH   4   7
ATOM      7  N   UNL     1       3.707   5.846  17.872  0.00  0.00    +0.000 N 
ATOM      8  N   UNL     1       4.935   6.214  17.412  0.00  0.00    +0.000 NA
ATOM      9  C   UNL     1       5.573   5.070  17.113  0.00  0.00    +0.000 A 
ATOM     10  C   UNL     1       4.690   3.975  17.234  0.00  0.00    +0.000 A 
ATOM     11  C   UNL     1       3.483   4.506  17.658  0.00  0.00    +0.000 A 
BRANCH   9  12
ATOM     12  C   UNL     1       7.017   5.009  16.679  0.00  0.00    +0.000 C 
ATOM     13  F   UNL     1       7.601   6.227  16.534  0.00  0.00    +0.000 F 
ATOM     14  F   UNL     1       7.771   4.319  17.578  0.00  0.00    +0.000 F 
ATOM     15  F   UNL     1       7.154   4.360  15.490  0.00  0.00    +0.000 F 
ENDBRANCH   9  12
BRANCH  11  16
ATOM     16  C   UNL     1       2.180   3.833  17.772  0.00  0.00    +0.000 C 
ATOM     17  F   UNL     1       2.112   2.614  17.191  0.00  0.00    +0.000 F 
ATOM     18  F   UNL     1       1.847   3.646  19.076  0.00  0.00    +0.000 F 
ATOM     19  F   UNL     1       1.193   4.589  17.228  0.00  0.00    +0.000 F 
ENDBRANCH  11  16
ENDBRANCH   4   7
BRANCH   1  22
ATOM     20  C   UNL     1       0.625  10.328  21.513  0.00  0.00    +0.000 C 
ATOM     21  O   UNL     1       1.553  10.069  22.274  0.00  0.00    +0.000 OA
ATOM     22  N   UNL     1       0.466   9.841  20.225  0.00  0.00    +0.000 N 
ATOM     23  H   UNL     1      -0.208  10.298  19.624  0.00  0.00    +0.000 HD
BRANCH  20  28
ATOM     24  C   UNL     1      -3.642  13.614  23.441  0.00  0.00    +0.000 C 
ATOM     25  C   UNL     1      -2.464  12.840  22.928  0.00  0.00    +0.000 A 
ATOM     26  C   UNL     1      -1.618  13.358  21.951  0.00  0.00    +0.000 A 
ATOM     27  C   UNL     1      -0.557  12.575  21.480  0.00  0.00    +0.000 A 
ATOM     28  C   UNL     1      -0.386  11.292  21.996  0.00  0.00    +0.000 A 
ATOM     29  C   UNL     1      -1.280  10.853  22.962  0.00  0.00    +0.000 A 
ATOM     30  N   UNL     1      -2.302  11.601  23.448  0.00  0.00    +0.000 NA
ENDBRANCH  20  28
ENDBRANCH   1  22
TORSDOF 5
ENDMDL
MODEL 6
REMARK VINA RESULT:      -9.0      0.348      1.199
REMARK  Name = 
REMARK  6 active torsions:
REMARK  status: ('A' for Active; 'I' for Inactive)
REMARK    1  A    between atoms: C_1  and  C_2
REMARK    2  A    between atoms: C_5  and  C_6
REMARK    3  A    between atoms: N_8  and  C_9
REMARK    4  A    between atoms: C_12  and  N_13
REMARK    5  A    between atoms: C_15  and  C_16
REMARK    6  A    between atoms: C_21  and  C_22
REMARK                            x       y       z     vdW  Elec       q    Type
REMARK                         _______ _______ _______ _____ _____    ______ ____
ROOT
ATOM      1  C   UNL     1       1.215   8.985  19.617  0.00  0.00    +0.000 A 
ATOM      2  C   UNL     1       1.604   7.863  20.351  0.00  0.00    +0.000 A 
ATOM      3  C   UNL     1       2.413   6.876  19.784  0.00  0.00    +0.000 A 
ATOM      4  C   UNL     1       2.877   7.014  18.471  0.00  0.00    +0.000 A 
ATOM      5  C   UNL     1       2.468   8.116  17.713  0.00  0.00    +0.000 A 
ATOM      6  C   UNL     1       1.633   9.091  18.285  0.00  0.00    +0.000 A 
ENDROOT
BRANCH   4   7
ATOM      7  N   UNL     1       3.716   5.996  17.944  0.00  0.00    +0.000 N 
ATOM      8  N   UNL     1       4.979   6.338  17.563  0.00  0.00    +0.000 NA
ATOM      9  C   UNL     1       5.623   5.180  17.345  0.00  0.00    +0.000 A 
ATOM     10  C   UNL     1       4.720   4.097  17.435  0.00  0.00    +0.000 A 
ATOM     11  C   UNL     1       3.492   4.652  17.755  0.00  0.00    +0.000 A 
BRANCH   9  12
ATOM     12  C   UNL     1       7.093   5.092  17.018  0.00  0.00    +0.000 C 
ATOM     13  F   UNL     1       7.739   6.286  17.056  0.00  0.00    +0.000 F 
ATOM     14  F   UNL     1       7.741   4.270  17.889  0.00  0.00    +0.000 F 
ATOM     15  F   UNL     1       7.299   4.569  15.778  0.00  0.00    +0.000 F 
ENDBRANCH   9  12
BRANCH  11  16
ATOM     16  C   UNL     1       2.176   3.996  17.794  0.00  0.00    +0.000 C 
ATOM     17  F   UNL     1       1.167   4.703  17.237  0.00  0.00    +0.000 F 
ATOM     18  F   UNL     1       2.211   2.809  17.134  0.00  0.00    +0.000 F 
ATOM     19  F   UNL     1       1.810   3.716  19.070  0.00  0.00    +0.000 F 
ENDBRANCH  11  16
ENDBRANCH   4   7
BRANCH   1  22
ATOM     20  C   UNL     1       0.455  10.460  21.466  0.00  0.00    +0.000 C 
ATOM     21  O   UNL     1       1.272  10.115  22.314  0.00  0.00    +0.000 OA
ATOM     22  N   UNL     1       0.401  10.012  20.155  0.00  0.00    +0.000 N 
ATOM     23  H   UNL     1      -0.167  10.531  19.499  0.00  0.00    +0.000 HD
BRANCH  20  28
ATOM     24  C   UNL     1      -2.970  14.831  22.841  0.00  0.00    +0.000 C 
ATOM     25  C   UNL     1      -2.149  13.620  22.512  0.00  0.00    +0.000 A 
ATOM     26  C   UNL     1      -2.177  12.478  23.310  0.00  0.00    +0.000 A 
ATOM     27  C   UNL     1      -1.359  11.391  22.979  0.00  0.00    +0.000 A 
ATOM     28  C   UNL     1      -0.529  11.488  21.864  0.00  0.00    +0.000 A 
ATOM     29  C   UNL     1      -0.559  12.665  21.129  0.00  0.00    +0.000 A 
ATOM     30  N   UNL     1      -1.358  13.722  21.419  0.00  0.00    +0.000 NA
ENDBRANCH  20  28
ENDBRANCH   1  22
TORSDOF 5
ENDMDL
MODEL 7
REMARK VINA RESULT:      -8.9      1.173      1.472
REMARK  Name = 
REMARK  6 active torsions:
REMARK  status: ('A' for Active; 'I' for Inactive)
REMARK    1  A    between atoms: C_1  and  C_2
REMARK    2  A    between atoms: C_5  and  C_6
REMARK    3  A    between atoms: N_8  and  C_9
REMARK    4  A    between atoms: C_12  and  N_13
REMARK    5  A    between atoms: C_15  and  C_16
REMARK    6  A    between atoms: C_21  and  C_22
REMARK                            x       y       z     vdW  Elec       q    Type
REMARK                         _______ _______ _______ _____ _____    ______ ____
ROOT
ATOM      1  C   UNL     1       1.379   8.899  19.748  0.00  0.00    +0.000 A 
ATOM      2  C   UNL     1       1.876   9.051  18.452  0.00  0.00    +0.000 A 
ATOM      3  C   UNL     1       2.643   8.050  17.853  0.00  0.00    +0.000 A 
ATOM      4  C   UNL     1       2.899   6.855  18.533  0.00  0.00    +0.000 A 
ATOM      5  C   UNL     1       2.436   6.702  19.844  0.00  0.00    +0.000 A 
ATOM      6  C   UNL     1       1.686   7.726  20.449  0.00  0.00    +0.000 A 
ENDROOT
BRANCH   4   7
ATOM      7  N   UNL     1       3.664   5.856  17.875  0.00  0.00    +0.000 N 
ATOM      8  N   UNL     1       4.890   6.201  17.391  0.00  0.00    +0.000 NA
ATOM      9  C   UNL     1       5.490   5.048  17.053  0.00  0.00    +0.000 A 
ATOM     10  C   UNL     1       4.581   3.974  17.175  0.00  0.00    +0.000 A 
ATOM     11  C   UNL     1       3.400   4.527  17.641  0.00  0.00    +0.000 A 
BRANCH   9  12
ATOM     12  C   UNL     1       6.919   4.959  16.580  0.00  0.00    +0.000 C 
ATOM     13  F   UNL     1       7.728   4.235  17.396  0.00  0.00    +0.000 F 
ATOM     14  F   UNL     1       6.993   4.384  15.347  0.00  0.00    +0.000 F 
ATOM     15  F   UNL     1       7.483   6.192  16.457  0.00  0.00    +0.000 F 
ENDBRANCH   9  12
BRANCH  11  16
ATOM     16  C   UNL     1       2.083   3.886  17.775  0.00  0.00    +0.000 C 
ATOM     17  F   UNL     1       1.056   4.564  17.213  0.00  0.00    +0.000 F 
ATOM     18  F   UNL     1       2.083   2.658  17.193  0.00  0.00    +0.000 F 
ATOM     19  F   UNL     1       1.766   3.693  19.080  0.00  0.00    +0.000 F 
ENDBRANCH  11  16
ENDBRANCH   4   7
BRANCH   1  22
ATOM     20  C   UNL     1      -0.563  10.443  19.867  0.00  0.00    +0.000 C 
ATOM     21  O   UNL     1      -1.128  10.096  18.835  0.00  0.00    +0.000 OA
ATOM     22  N   UNL     1       0.593   9.885  20.392  0.00  0.00    +0.000 N 
ATOM     23  H   UNL     1       0.832  10.101  21.350  0.00  0.00    +0.000 HD
BRANCH  20  28
ATOM     24  C   UNL     1      -3.000  14.260  23.362  0.00  0.00    +0.000 C 
ATOM     25  C   UNL     1      -2.373  13.329  22.368  0.00  0.00    +0.000 A 
ATOM     26  C   UNL     1      -2.837  13.238  21.057  0.00  0.00    +0.000 A 
ATOM     27  C   UNL     1      -2.241  12.323  20.182  0.00  0.00    +0.000 A 
ATOM     28  C   UNL     1      -1.206  11.517  20.653  0.00  0.00    +0.000 A 
ATOM     29  C   UNL     1      -0.811  11.669  21.975  0.00  0.00    +0.000 A 
ATOM     30  N   UNL     1      -1.360  12.563  22.834  0.00  0.00    +0.000 NA
ENDBRANCH  20  28
ENDBRANCH   1  22
TORSDOF 5
ENDMDL
MODEL 8
REMARK VINA RESULT:      -8.9      1.075      1.497
REMARK  Name = 
REMARK  6 active torsions:
REMARK  status: ('A' for Active; 'I' for Inactive)
REMARK    1  A    between atoms: C_1  and  C_2
REMARK    2  A    between atoms: C_5  and  C_6
REMARK    3  A    between atoms: N_8  and  C_9
REMARK    4  A    between atoms: C_12  and  N_13
REMARK    5  A    between atoms: C_15  and  C_16
REMARK    6  A    between atoms: C_21  and  C_22
REMARK                            x       y       z     vdW  Elec       q    Type
REMARK                         _______ _______ _______ _____ _____    ______ ____
ROOT
ATOM      1  C   UNL     1       1.423   8.757  19.911  0.00  0.00    +0.000 A 
ATOM      2  C   UNL     1       1.774   7.539  20.499  0.00  0.00    +0.000 A 
ATOM      3  C   UNL     1       2.503   6.582  19.792  0.00  0.00    +0.000 A 
ATOM      4  C   UNL     1       2.927   6.843  18.484  0.00  0.00    +0.000 A 
ATOM      5  C   UNL     1       2.556   8.044  17.872  0.00  0.00    +0.000 A 
ATOM      6  C   UNL     1       1.799   8.991  18.583  0.00  0.00    +0.000 A 
ENDROOT
BRANCH   4   7
ATOM      7  N   UNL     1       3.687   5.848  17.812  0.00  0.00    +0.000 N 
ATOM      8  N   UNL     1       4.907   6.198  17.317  0.00  0.00    +0.000 NA
ATOM      9  C   UNL     1       5.504   5.047  16.966  0.00  0.00    +0.000 A 
ATOM     10  C   UNL     1       4.598   3.972  17.090  0.00  0.00    +0.000 A 
ATOM     11  C   UNL     1       3.421   4.521  17.571  0.00  0.00    +0.000 A 
BRANCH   9  12
ATOM     12  C   UNL     1       6.929   4.963  16.477  0.00  0.00    +0.000 C 
ATOM     13  F   UNL     1       7.059   4.400  15.248  0.00  0.00    +0.000 F 
ATOM     14  F   UNL     1       7.496   6.199  16.403  0.00  0.00    +0.000 F 
ATOM     15  F   UNL     1       7.707   4.239  17.328  0.00  0.00    +0.000 F 
ENDBRANCH   9  12
BRANCH  11  16
ATOM     16  C   UNL     1       2.106   3.878  17.715  0.00  0.00    +0.000 C 
ATOM     17  F   UNL     1       1.064   4.592  17.231  0.00  0.00    +0.000 F 
ATOM     18  F   UNL     1       2.078   2.687  17.061  0.00  0.00    +0.000 F 
ATOM     19  F   UNL     1       1.835   3.609  19.016  0.00  0.00    +0.000 F 
ENDBRANCH  11  16
ENDBRANCH   4   7
BRANCH   1  22
ATOM     20  C   UNL     1      -0.476  10.344  20.124  0.00  0.00    +0.000 C 
ATOM     21  O   UNL     1      -1.093  10.017  19.115  0.00  0.00    +0.000 OA
ATOM     22  N   UNL     1       0.689   9.757  20.594  0.00  0.00    +0.000 N 
ATOM     23  H   UNL     1       0.974   9.961  21.542  0.00  0.00    +0.000 HD
BRANCH  20  28
ATOM     24  C   UNL     1      -2.684  14.186  23.741  0.00  0.00    +0.000 C 
ATOM     25  C   UNL     1      -2.117  13.251  22.715  0.00  0.00    +0.000 A 
ATOM     26  C   UNL     1      -2.612  13.202  21.415  0.00  0.00    +0.000 A 
ATOM     27  C   UNL     1      -2.072  12.281  20.510  0.00  0.00    +0.000 A 
ATOM     28  C   UNL     1      -1.058  11.428  20.942  0.00  0.00    +0.000 A 
ATOM     29  C   UNL     1      -0.629  11.539  22.258  0.00  0.00    +0.000 A 
ATOM     30  N   UNL     1      -1.124  12.437  23.145  0.00  0.00    +0.000 NA
ENDBRANCH  20  28
ENDBRANCH   1  22
TORSDOF 5
ENDMDL
MODEL 9
REMARK VINA RESULT:      -8.9      1.142      1.179
REMARK  Name = 
REMARK  6 active torsions:
REMARK  status: ('A' for Active; 'I' for Inactive)
REMARK    1  A    between atoms: C_1  and  C_2
REMARK    2  A    between atoms: C_5  and  C_6
REMARK    3  A    between atoms: N_8  and  C_9
REMARK    4  A    between atoms: C_12  and  N_13
REMARK    5  A    between atoms: C_15  and  C_16
REMARK    6  A    between atoms: C_21  and  C_22
REMARK                            x       y       z     vdW  Elec       q    Type
REMARK                         _______ _______ _______ _____ _____    ______ ____
ROOT
ATOM      1  C   UNL     1       1.406   8.881  19.793  0.00  0.00    +0.000 A 
ATOM      2  C   UNL     1       1.860   9.044  18.482  0.00  0.00    +0.000 A 
ATOM      3  C   UNL     1       2.605   8.047  17.849  0.00  0.00    +0.000 A 
ATOM      4  C   UNL     1       2.880   6.845  18.511  0.00  0.00    +0.000 A 
ATOM      5  C   UNL     1       2.460   6.682  19.835  0.00  0.00    +0.000 A 
ATOM      6  C   UNL     1       1.733   7.702  20.473  0.00  0.00    +0.000 A 
ENDROOT
BRANCH   4   7
ATOM      7  N   UNL     1       3.622   5.850  17.819  0.00  0.00    +0.000 N 
ATOM      8  N   UNL     1       4.833   6.197  17.301  0.00  0.00    +0.000 NA
ATOM      9  C   UNL     1       5.418   5.045  16.933  0.00  0.00    +0.000 A 
ATOM     10  C   UNL     1       4.509   3.973  17.072  0.00  0.00    +0.000 A 
ATOM     11  C   UNL     1       3.345   4.525  17.579  0.00  0.00    +0.000 A 
BRANCH   9  12
ATOM     12  C   UNL     1       6.832   4.956  16.415  0.00  0.00    +0.000 C 
ATOM     13  F   UNL     1       6.932   4.425  15.169  0.00  0.00    +0.000 F 
ATOM     14  F   UNL     1       7.412   6.187  16.362  0.00  0.00    +0.000 F 
ATOM     15  F   UNL     1       7.617   4.202  17.232  0.00  0.00    +0.000 F 
ENDBRANCH   9  12
BRANCH  11  16
ATOM     16  C   UNL     1       2.030   3.887  17.747  0.00  0.00    +0.000 C 
ATOM     17  F   UNL     1       0.993   4.561  17.200  0.00  0.00    +0.000 F 
ATOM     18  F   UNL     1       2.018   2.654  17.177  0.00  0.00    +0.000 F 
ATOM     19  F   UNL     1       1.741   3.707  19.060  0.00  0.00    +0.000 F 
ENDBRANCH  11  16
ENDBRANCH   4   7
BRANCH   1  22
ATOM     20  C   UNL     1      -0.525  10.432  19.986  0.00  0.00    +0.000 C 
ATOM     21  O   UNL     1      -1.121  10.101  18.966  0.00  0.00    +0.000 OA
ATOM     22  N   UNL     1       0.644   9.863  20.470  0.00  0.00    +0.000 N 
ATOM     23  H   UNL     1       0.911  10.067  21.424  0.00  0.00    +0.000 HD
BRANCH  20  28
ATOM     24  C   UNL     1      -2.893  14.892  22.675  0.00  0.00    +0.000 C 
ATOM     25  C   UNL     1      -2.279  13.669  22.061  0.00  0.00    +0.000 A 
ATOM     26  C   UNL     1      -1.397  12.858  22.771  0.00  0.00    +0.000 A 
ATOM     27  C   UNL     1      -0.821  11.752  22.135  0.00  0.00    +0.000 A 
ATOM     28  C   UNL     1      -1.139  11.500  20.802  0.00  0.00    +0.000 A 
ATOM     29  C   UNL     1      -2.022  12.364  20.168  0.00  0.00    +0.000 A 
ATOM     30  N   UNL     1      -2.607  13.429  20.770  0.00  0.00    +0.000 NA
ENDBRANCH  20  28
ENDBRANCH   1  22
TORSDOF 5
ENDMDL
