MODEL 1
REMARK VINA RESULT:      -8.6      0.000      0.000
REMARK  Name = 
REMARK  6 active torsions:
REMARK  status: ('A' for Active; 'I' for Inactive)
REMARK    1  A    between atoms: C_1  and  C_2
REMARK    2  A    between atoms: C_2  and  O_3
REMARK    3  A    between atoms: O_3  and  C_4
REMARK    4  A    between atoms: C_13  and  C_14
REMARK    5  A    between atoms: C_17  and  C_18
REMARK    6  A    between atoms: N_27  and  C_28
REMARK                            x       y       z     vdW  Elec       q    Type
REMARK                         _______ _______ _______ _____ _____    ______ ____
ROOT
ATOM      1  C   UNL     1      -2.651  13.670  21.392  0.00  0.00    +0.000 A 
ATOM      2  C   UNL     1      -2.120  13.480  20.109  0.00  0.00    +0.000 A 
ATOM      3  C   UNL     1      -1.297  12.406  19.840  0.00  0.00    +0.000 A 
ATOM      4  C   UNL     1      -0.975  11.462  20.847  0.00  0.00    +0.000 A 
ATOM      5  C   UNL     1      -1.502  11.667  22.140  0.00  0.00    +0.000 A 
ATOM      6  C   UNL     1      -2.331  12.763  22.407  0.00  0.00    +0.000 A 
ATOM      7  C   UNL     1      -1.217  10.699  23.209  0.00  0.00    +0.000 C 
ATOM      8  C   UNL     1      -0.443   9.641  22.982  0.00  0.00    +0.000 C 
ATOM      9  C   UNL     1       0.165   9.403  21.646  0.00  0.00    +0.000 C 
ATOM     10  C   UNL     1       1.005   8.326  21.579  0.00  0.00    +0.000 C 
ATOM     11  N   UNL     1      -0.170  10.306  20.552  0.00  0.00    +0.000 N 
ATOM     12  C   UNL     1       0.074  10.034  19.131  0.00  0.00    +0.000 C 
ENDROOT
BRANCH  10  13
ATOM     13  C   UNL     1       1.827   7.934  20.420  0.00  0.00    +0.000 C 
ATOM     14  C   UNL     1       2.153   6.668  20.092  0.00  0.00    +0.000 C 
ATOM     15  C   UNL     1       1.754   5.479  20.902  0.00  0.00    +0.000 C 
ATOM     16  C   UNL     1       2.059   4.221  20.516  0.00  0.00    +0.000 C 
ATOM     17  C   UNL     1       1.653   3.065  21.402  0.00  0.00    +0.000 C 
ATOM     18  C   UNL     1       2.790   3.974  19.227  0.00  0.00    +0.000 A 
ATOM     19  C   UNL     1       3.091   2.675  18.780  0.00  0.00    +0.000 A 
ATOM     20  C   UNL     1       3.748   2.484  17.562  0.00  0.00    +0.000 A 
ATOM     21  C   UNL     1       4.101   3.590  16.792  0.00  0.00    +0.000 A 
ATOM     22  N   UNL     1       3.816   4.838  17.233  0.00  0.00    +0.000 NA
ATOM     23  C   UNL     1       3.181   5.057  18.415  0.00  0.00    +0.000 A 
ATOM     24  C   UNL     1       2.896   6.431  18.829  0.00  0.00    +0.000 C 
ATOM     25  O   UNL     1       3.226   7.359  18.104  0.00  0.00    +0.000 OA
ENDBRANCH  10  13
BRANCH   1  26
ATOM     26  O   UNL     1      -3.483  14.700  21.670  0.00  0.00    +0.000 OA
BRANCH  26  28
ATOM     27  C   UNL     1      -5.737  14.348  22.280  0.00  0.00    +0.000 C 
ATOM     28  C   UNL     1      -4.350  14.711  22.741  0.00  0.00    +0.000 C 
ENDBRANCH  26  28
ENDBRANCH   1  26
TORSDOF 3
ENDMDL
MODEL 2
REMARK VINA RESULT:      -8.3      1.116      1.176
REMARK  Name = 
REMARK  6 active torsions:
REMARK  status: ('A' for Active; 'I' for Inactive)
REMARK    1  A    between atoms: C_1  and  C_2
REMARK    2  A    between atoms: C_2  and  O_3
REMARK    3  A    between atoms: O_3  and  C_4
REMARK    4  A    between atoms: C_13  and  C_14
REMARK    5  A    between atoms: C_17  and  C_18
REMARK    6  A    between atoms: N_27  and  C_28
REMARK                            x       y       z     vdW  Elec       q    Type
REMARK                         _______ _______ _______ _____ _____    ______ ____
ROOT
ATOM      1  C   UNL     1      -1.646  14.167  21.610  0.00  0.00    +0.000 A 
ATOM      2  C   UNL     1      -0.977  14.022  20.387  0.00  0.00    +0.000 A 
ATOM      3  C   UNL     1      -0.341  12.839  20.070  0.00  0.00    +0.000 A 
ATOM      4  C   UNL     1      -0.355  11.739  20.962  0.00  0.00    +0.000 A 
ATOM      5  C   UNL     1      -1.019  11.897  22.198  0.00  0.00    +0.000 A 
ATOM      6  C   UNL     1      -1.656  13.102  22.516  0.00  0.00    +0.000 A 
ATOM      7  C   UNL     1      -1.082  10.775  23.145  0.00  0.00    +0.000 C 
ATOM      8  C   UNL     1      -0.498   9.613  22.865  0.00  0.00    +0.000 C 
ATOM      9  C   UNL     1       0.245   9.411  21.592  0.00  0.00    +0.000 C 
ATOM     10  C   UNL     1       0.867   8.198  21.475  0.00  0.00    +0.000 C 
ATOM     11  N   UNL     1       0.252  10.484  20.606  0.00  0.00    +0.000 N 
ATOM     12  C   UNL     1       0.647  10.332  19.201  0.00  0.00    +0.000 C 
ENDROOT
BRANCH  10  13
ATOM     13  C   UNL     1       1.762   7.781  20.381  0.00  0.00    +0.000 C 
ATOM     14  C   UNL     1       2.072   6.506  20.074  0.00  0.00    +0.000 C 
ATOM     15  C   UNL     1       1.575   5.330  20.847  0.00  0.00    +0.000 C 
ATOM     16  C   UNL     1       1.870   4.062  20.482  0.00  0.00    +0.000 C 
ATOM     17  C   UNL     1       1.361   2.920  21.331  0.00  0.00    +0.000 C 
ATOM     18  C   UNL     1       2.688   3.794  19.251  0.00  0.00    +0.000 A 
ATOM     19  C   UNL     1       2.982   2.487  18.824  0.00  0.00    +0.000 A 
ATOM     20  C   UNL     1       3.723   2.276  17.659  0.00  0.00    +0.000 A 
ATOM     21  C   UNL     1       4.168   3.371  16.921  0.00  0.00    +0.000 A 
ATOM     22  N   UNL     1       3.889   4.627  17.343  0.00  0.00    +0.000 NA
ATOM     23  C   UNL     1       3.173   4.865  18.475  0.00  0.00    +0.000 A 
ATOM     24  C   UNL     1       2.900   6.247  18.871  0.00  0.00    +0.000 C 
ATOM     25  O   UNL     1       3.313   7.164  18.175  0.00  0.00    +0.000 OA
ENDBRANCH  10  13
BRANCH   1  26
ATOM     26  O   UNL     1      -2.299  15.308  21.929  0.00  0.00    +0.000 OA
BRANCH  26  28
ATOM     27  C   UNL     1      -2.675  17.491  22.750  0.00  0.00    +0.000 C 
ATOM     28  C   UNL     1      -1.661  16.471  22.303  0.00  0.00    +0.000 C 
ENDBRANCH  26  28
ENDBRANCH   1  26
TORSDOF 3
ENDMDL
MODEL 3
REMARK VINA RESULT:      -8.3      1.966      9.765
REMARK  Name = 
REMARK  6 active torsions:
REMARK  status: ('A' for Active; 'I' for Inactive)
REMARK    1  A    between atoms: C_1  and  C_2
REMARK    2  A    between atoms: C_2  and  O_3
REMARK    3  A    between atoms: O_3  and  C_4
REMARK    4  A    between atoms: C_13  and  C_14
REMARK    5  A    between atoms: C_17  and  C_18
REMARK    6  A    between atoms: N_27  and  C_28
REMARK                            x       y       z     vdW  Elec       q    Type
REMARK                         _______ _______ _______ _____ _____    ______ ____
ROOT
ATOM      1  C   UNL     1       3.127   5.248  19.021  0.00  0.00    +0.000 A 
ATOM      2  C   UNL     1       2.497   5.315  20.271  0.00  0.00    +0.000 A 
ATOM      3  C   UNL     1       1.850   6.467  20.672  0.00  0.00    +0.000 A 
ATOM      4  C   UNL     1       1.796   7.605  19.831  0.00  0.00    +0.000 A 
ATOM      5  C   UNL     1       2.446   7.536  18.579  0.00  0.00    +0.000 A 
ATOM      6  C   UNL     1       3.105   6.367  18.182  0.00  0.00    +0.000 A 
ATOM      7  C   UNL     1       2.394   8.683  17.662  0.00  0.00    +0.000 C 
ATOM      8  C   UNL     1       1.763   9.803  18.007  0.00  0.00    +0.000 C 
ATOM      9  C   UNL     1       1.097   9.937  19.329  0.00  0.00    +0.000 C 
ATOM     10  C   UNL     1       0.564  11.171  19.583  0.00  0.00    +0.000 C 
ATOM     11  N   UNL     1       1.068   8.784  20.221  0.00  0.00    +0.000 N 
ATOM     12  C   UNL     1       0.193   8.646  21.390  0.00  0.00    +0.000 C 
ENDROOT
BRANCH  10  13
ATOM     13  C   UNL     1      -0.044  11.612  20.851  0.00  0.00    +0.000 C 
ATOM     14  C   UNL     1      -1.335  11.964  21.013  0.00  0.00    +0.000 C 
ATOM     15  C   UNL     1      -2.325  11.996  19.896  0.00  0.00    +0.000 C 
ATOM     16  C   UNL     1      -3.623  12.309  20.105  0.00  0.00    +0.000 C 
ATOM     17  C   UNL     1      -4.563  12.355  18.923  0.00  0.00    +0.000 C 
ATOM     18  C   UNL     1      -4.123  12.604  21.490  0.00  0.00    +0.000 A 
ATOM     19  C   UNL     1      -5.474  12.898  21.746  0.00  0.00    +0.000 A 
ATOM     20  C   UNL     1      -5.907  13.141  23.052  0.00  0.00    +0.000 A 
ATOM     21  C   UNL     1      -4.991  13.089  24.100  0.00  0.00    +0.000 A 
ATOM     22  N   UNL     1      -3.689  12.814  23.846  0.00  0.00    +0.000 NA
ATOM     23  C   UNL     1      -3.237  12.576  22.585  0.00  0.00    +0.000 A 
ATOM     24  C   UNL     1      -1.818  12.278  22.380  0.00  0.00    +0.000 C 
ATOM     25  O   UNL     1      -1.067  12.240  23.344  0.00  0.00    +0.000 OA
ENDBRANCH  10  13
BRANCH   1  26
ATOM     26  O   UNL     1       3.741   4.120  18.597  0.00  0.00    +0.000 OA
BRANCH  26  28
ATOM     27  C   UNL     1       2.452   2.300  17.820  0.00  0.00    +0.000 C 
ATOM     28  C   UNL     1       3.314   2.851  18.925  0.00  0.00    +0.000 C 
ENDBRANCH  26  28
ENDBRANCH   1  26
TORSDOF 3
ENDMDL
MODEL 4
REMARK VINA RESULT:      -8.1      1.511      1.772
REMARK  Name = 
REMARK  6 active torsions:
REMARK  status: ('A' for Active; 'I' for Inactive)
REMARK    1  A    between atoms: C_1  and  C_2
REMARK    2  A    between atoms: C_2  and  O_3
REMARK    3  A    between atoms: O_3  and  C_4
REMARK    4  A    between atoms: C_13  and  C_14
REMARK    5  A    between atoms: C_17  and  C_18
REMARK    6  A    between atoms: N_27  and  C_28
REMARK                            x       y       z     vdW  Elec       q    Type
REMARK                         _______ _______ _______ _____ _____    ______ ____
ROOT
ATOM      1  C   UNL     1      -1.069  14.243  20.394  0.00  0.00    +0.000 A 
ATOM      2  C   UNL     1      -0.439  13.889  19.193  0.00  0.00    +0.000 A 
ATOM      3  C   UNL     1       0.137  12.644  19.041  0.00  0.00    +0.000 A 
ATOM      4  C   UNL     1       0.098  11.689  20.086  0.00  0.00    +0.000 A 
ATOM      5  C   UNL     1      -0.526  12.057  21.298  0.00  0.00    +0.000 A 
ATOM      6  C   UNL     1      -1.102  13.324  21.447  0.00  0.00    +0.000 A 
ATOM      7  C   UNL     1      -0.613  11.089  22.400  0.00  0.00    +0.000 C 
ATOM      8  C   UNL     1      -0.087   9.872  22.283  0.00  0.00    +0.000 C 
ATOM      9  C   UNL     1       0.613   9.452  21.040  0.00  0.00    +0.000 C 
ATOM     10  C   UNL     1       1.179   8.208  21.091  0.00  0.00    +0.000 C 
ATOM     11  N   UNL     1       0.641  10.368  19.906  0.00  0.00    +0.000 N 
ATOM     12  C   UNL     1       0.993   9.995  18.532  0.00  0.00    +0.000 C 
ENDROOT
BRANCH  10  13
ATOM     13  C   UNL     1       2.027   7.595  20.053  0.00  0.00    +0.000 C 
ATOM     14  C   UNL     1       2.237   6.272  19.904  0.00  0.00    +0.000 C 
ATOM     15  C   UNL     1       1.665   5.240  20.818  0.00  0.00    +0.000 C 
ATOM     16  C   UNL     1       1.860   3.918  20.610  0.00  0.00    +0.000 C 
ATOM     17  C   UNL     1       1.279   2.930  21.594  0.00  0.00    +0.000 C 
ATOM     18  C   UNL     1       2.640   3.441  19.418  0.00  0.00    +0.000 A 
ATOM     19  C   UNL     1       2.831   2.073  19.154  0.00  0.00    +0.000 A 
ATOM     20  C   UNL     1       3.539   1.666  18.021  0.00  0.00    +0.000 A 
ATOM     21  C   UNL     1       4.055   2.626  17.153  0.00  0.00    +0.000 A 
ATOM     22  N   UNL     1       3.876   3.942  17.418  0.00  0.00    +0.000 NA
ATOM     23  C   UNL     1       3.193   4.369  18.515  0.00  0.00    +0.000 A 
ATOM     24  C   UNL     1       3.029   5.806  18.739  0.00  0.00    +0.000 C 
ATOM     25  O   UNL     1       3.500   6.598  17.934  0.00  0.00    +0.000 OA
ENDBRANCH  10  13
BRANCH   1  26
ATOM     26  O   UNL     1      -1.664  15.447  20.554  0.00  0.00    +0.000 OA
BRANCH  26  28
ATOM     27  C   UNL     1       0.017  16.993  21.157  0.00  0.00    +0.000 C 
ATOM     28  C   UNL     1      -1.297  16.355  21.524  0.00  0.00    +0.000 C 
ENDBRANCH  26  28
ENDBRANCH   1  26
TORSDOF 3
ENDMDL
MODEL 5
REMARK VINA RESULT:      -7.9      2.034      9.686
REMARK  Name = 
REMARK  6 active torsions:
REMARK  status: ('A' for Active; 'I' for Inactive)
REMARK    1  A    between atoms: C_1  and  C_2
REMARK    2  A    between atoms: C_2  and  O_3
REMARK    3  A    between atoms: O_3  and  C_4
REMARK    4  A    between atoms: C_13  and  C_14
REMARK    5  A    between atoms: C_17  and  C_18
REMARK    6  A    between atoms: N_27  and  C_28
REMARK                            x       y       z     vdW  Elec       q    Type
REMARK                         _______ _______ _______ _____ _____    ______ ____
ROOT
ATOM      1  C   UNL     1       2.987   4.544  19.765  0.00  0.00    +0.000 A 
ATOM      2  C   UNL     1       2.266   4.933  20.902  0.00  0.00    +0.000 A 
ATOM      3  C   UNL     1       1.742   6.205  21.001  0.00  0.00    +0.000 A 
ATOM      4  C   UNL     1       1.909   7.147  19.957  0.00  0.00    +0.000 A 
ATOM      5  C   UNL     1       2.648   6.754  18.821  0.00  0.00    +0.000 A 
ATOM      6  C   UNL     1       3.182   5.463  18.730  0.00  0.00    +0.000 A 
ATOM      7  C   UNL     1       2.824   7.689  17.701  0.00  0.00    +0.000 C 
ATOM      8  C   UNL     1       2.317   8.918  17.753  0.00  0.00    +0.000 C 
ATOM      9  C   UNL     1       1.563   9.391  18.944  0.00  0.00    +0.000 C 
ATOM     10  C   UNL     1       1.173  10.702  18.896  0.00  0.00    +0.000 C 
ATOM     11  N   UNL     1       1.308   8.454  20.031  0.00  0.00    +0.000 N 
ATOM     12  C   UNL     1       0.326   8.654  21.102  0.00  0.00    +0.000 C 
ENDROOT
BRANCH  10  13
ATOM     13  C   UNL     1       0.522  11.456  19.982  0.00  0.00    +0.000 C 
ATOM     14  C   UNL     1      -0.777  11.815  20.007  0.00  0.00    +0.000 C 
ATOM     15  C   UNL     1      -1.731  11.529  18.895  0.00  0.00    +0.000 C 
ATOM     16  C   UNL     1      -3.038  11.864  18.975  0.00  0.00    +0.000 C 
ATOM     17  C   UNL     1      -3.941  11.575  17.798  0.00  0.00    +0.000 C 
ATOM     18  C   UNL     1      -3.585  12.511  20.216  0.00  0.00    +0.000 A 
ATOM     19  C   UNL     1      -4.946  12.839  20.346  0.00  0.00    +0.000 A 
ATOM     20  C   UNL     1      -5.423  13.415  21.525  0.00  0.00    +0.000 A 
ATOM     21  C   UNL     1      -4.540  13.661  22.574  0.00  0.00    +0.000 A 
ATOM     22  N   UNL     1      -3.229  13.352  22.440  0.00  0.00    +0.000 NA
ATOM     23  C   UNL     1      -2.734  12.793  21.303  0.00  0.00    +0.000 A 
ATOM     24  C   UNL     1      -1.307  12.475  21.225  0.00  0.00    +0.000 C 
ATOM     25  O   UNL     1      -0.586  12.710  22.185  0.00  0.00    +0.000 OA
ENDBRANCH  10  13
BRANCH   1  26
ATOM     26  O   UNL     1       3.485   3.292  19.635  0.00  0.00    +0.000 OA
BRANCH  26  28
ATOM     27  C   UNL     1       3.598   1.396  18.230  0.00  0.00    +0.000 C 
ATOM     28  C   UNL     1       2.751   2.227  19.158  0.00  0.00    +0.000 C 
ENDBRANCH  26  28
ENDBRANCH   1  26
TORSDOF 3
ENDMDL
MODEL 6
REMARK VINA RESULT:      -7.7      1.229      1.551
REMARK  Name = 
REMARK  6 active torsions:
REMARK  status: ('A' for Active; 'I' for Inactive)
REMARK    1  A    between atoms: C_1  and  C_2
REMARK    2  A    between atoms: C_2  and  O_3
REMARK    3  A    between atoms: O_3  and  C_4
REMARK    4  A    between atoms: C_13  and  C_14
REMARK    5  A    between atoms: C_17  and  C_18
REMARK    6  A    between atoms: N_27  and  C_28
REMARK                            x       y       z     vdW  Elec       q    Type
REMARK                         _______ _______ _______ _____ _____    ______ ____
ROOT
ATOM      1  C   UNL     1      -2.002  13.378  22.508  0.00  0.00    +0.000 A 
ATOM      2  C   UNL     1      -1.430  13.642  21.256  0.00  0.00    +0.000 A 
ATOM      3  C   UNL     1      -0.671  12.685  20.613  0.00  0.00    +0.000 A 
ATOM      4  C   UNL     1      -0.458  11.411  21.194  0.00  0.00    +0.000 A 
ATOM      5  C   UNL     1      -1.024  11.157  22.462  0.00  0.00    +0.000 A 
ATOM      6  C   UNL     1      -1.788  12.135  23.110  0.00  0.00    +0.000 A 
ATOM      7  C   UNL     1      -0.851   9.840  23.091  0.00  0.00    +0.000 C 
ATOM      8  C   UNL     1      -0.142   8.886  22.493  0.00  0.00    +0.000 C 
ATOM      9  C   UNL     1       0.505   9.119  21.175  0.00  0.00    +0.000 C 
ATOM     10  C   UNL     1       1.273   8.083  20.718  0.00  0.00    +0.000 C 
ATOM     11  N   UNL     1       0.280  10.390  20.497  0.00  0.00    +0.000 N 
ATOM     12  C   UNL     1       0.565  10.651  19.082  0.00  0.00    +0.000 C 
ENDROOT
BRANCH  10  13
ATOM     13  C   UNL     1       2.115   8.090  19.509  0.00  0.00    +0.000 C 
ATOM     14  C   UNL     1       2.807   7.034  19.038  0.00  0.00    +0.000 C 
ATOM     15  C   UNL     1       2.847   5.707  19.720  0.00  0.00    +0.000 C 
ATOM     16  C   UNL     1       3.515   4.656  19.194  0.00  0.00    +0.000 C 
ATOM     17  C   UNL     1       3.541   3.350  19.955  0.00  0.00    +0.000 C 
ATOM     18  C   UNL     1       4.217   4.784  17.872  0.00  0.00    +0.000 A 
ATOM     19  C   UNL     1       4.890   3.700  17.280  0.00  0.00    +0.000 A 
ATOM     20  C   UNL     1       5.510   3.850  16.037  0.00  0.00    +0.000 A 
ATOM     21  C   UNL     1       5.454   5.081  15.387  0.00  0.00    +0.000 A 
ATOM     22  N   UNL     1       4.812   6.122  15.966  0.00  0.00    +0.000 NA
ATOM     23  C   UNL     1       4.203   6.009  17.177  0.00  0.00    +0.000 A 
ATOM     24  C   UNL     1       3.519   7.172  17.744  0.00  0.00    +0.000 C 
ATOM     25  O   UNL     1       3.501   8.223  17.119  0.00  0.00    +0.000 OA
ENDBRANCH  10  13
BRANCH   1  26
ATOM     26  O   UNL     1      -2.772  14.292  23.142  0.00  0.00    +0.000 OA
BRANCH  26  28
ATOM     27  C   UNL     1      -5.041  14.654  23.691  0.00  0.00    +0.000 C 
ATOM     28  C   UNL     1      -3.968  14.758  22.640  0.00  0.00    +0.000 C 
ENDBRANCH  26  28
ENDBRANCH   1  26
TORSDOF 3
ENDMDL
MODEL 7
REMARK VINA RESULT:      -7.6      2.091     10.063
REMARK  Name = 
REMARK  6 active torsions:
REMARK  status: ('A' for Active; 'I' for Inactive)
REMARK    1  A    between atoms: C_1  and  C_2
REMARK    2  A    between atoms: C_2  and  O_3
REMARK    3  A    between atoms: O_3  and  C_4
REMARK    4  A    between atoms: C_13  and  C_14
REMARK    5  A    between atoms: C_17  and  C_18
REMARK    6  A    between atoms: N_27  and  C_28
REMARK                            x       y       z     vdW  Elec       q    Type
REMARK                         _______ _______ _______ _____ _____    ______ ____
ROOT
ATOM      1  C   UNL     1       2.574   7.217  18.335  0.00  0.00    +0.000 A 
ATOM      2  C   UNL     1       2.188   8.324  17.566  0.00  0.00    +0.000 A 
ATOM      3  C   UNL     1       1.505   9.376  18.142  0.00  0.00    +0.000 A 
ATOM      4  C   UNL     1       1.185   9.371  19.521  0.00  0.00    +0.000 A 
ATOM      5  C   UNL     1       1.563   8.247  20.286  0.00  0.00    +0.000 A 
ATOM      6  C   UNL     1       2.250   7.181  19.694  0.00  0.00    +0.000 A 
ATOM      7  C   UNL     1       1.275   8.210  21.727  0.00  0.00    +0.000 C 
ATOM      8  C   UNL     1       0.635   9.214  22.320  0.00  0.00    +0.000 C 
ATOM      9  C   UNL     1       0.183  10.403  21.549  0.00  0.00    +0.000 C 
ATOM     10  C   UNL     1      -0.536  11.317  22.269  0.00  0.00    +0.000 C 
ATOM     11  N   UNL     1       0.529  10.496  20.136  0.00  0.00    +0.000 N 
ATOM     12  C   UNL     1       0.449  11.718  19.329  0.00  0.00    +0.000 C 
ENDROOT
BRANCH  10  13
ATOM     13  C   UNL     1      -1.201  12.518  21.733  0.00  0.00    +0.000 C 
ATOM     14  C   UNL     1      -2.355  13.038  22.195  0.00  0.00    +0.000 C 
ATOM     15  C   UNL     1      -3.148  12.426  23.302  0.00  0.00    +0.000 C 
ATOM     16  C   UNL     1      -4.278  13.001  23.770  0.00  0.00    +0.000 C 
ATOM     17  C   UNL     1      -5.049  12.309  24.871  0.00  0.00    +0.000 C 
ATOM     18  C   UNL     1      -4.758  14.309  23.208  0.00  0.00    +0.000 A 
ATOM     19  C   UNL     1      -5.909  14.951  23.697  0.00  0.00    +0.000 A 
ATOM     20  C   UNL     1      -6.309  16.180  23.167  0.00  0.00    +0.000 A 
ATOM     21  C   UNL     1      -5.558  16.766  22.150  0.00  0.00    +0.000 A 
ATOM     22  N   UNL     1      -4.456  16.138  21.677  0.00  0.00    +0.000 NA
ATOM     23  C   UNL     1      -4.043  14.939  22.170  0.00  0.00    +0.000 A 
ATOM     24  C   UNL     1      -2.838  14.317  21.619  0.00  0.00    +0.000 C 
ATOM     25  O   UNL     1      -2.219  14.887  20.732  0.00  0.00    +0.000 OA
ENDBRANCH  10  13
BRANCH   1  26
ATOM     26  O   UNL     1       3.269   6.188  17.796  0.00  0.00    +0.000 OA
BRANCH  26  28
ATOM     27  C   UNL     1       1.802   4.350  17.576  0.00  0.00    +0.000 C 
ATOM     28  C   UNL     1       3.087   4.872  18.163  0.00  0.00    +0.000 C 
ENDBRANCH  26  28
ENDBRANCH   1  26
TORSDOF 3
ENDMDL
MODEL 8
REMARK VINA RESULT:      -7.6      2.237     10.170
REMARK  Name = 
REMARK  6 active torsions:
REMARK  status: ('A' for Active; 'I' for Inactive)
REMARK    1  A    between atoms: C_1  and  C_2
REMARK    2  A    between atoms: C_2  and  O_3
REMARK    3  A    between atoms: O_3  and  C_4
REMARK    4  A    between atoms: C_13  and  C_14
REMARK    5  A    between atoms: C_17  and  C_18
REMARK    6  A    between atoms: N_27  and  C_28
REMARK                            x       y       z     vdW  Elec       q    Type
REMARK                         _______ _______ _______ _____ _____    ______ ____
ROOT
ATOM      1  C   UNL     1       3.529   4.626  18.846  0.00  0.00    +0.000 A 
ATOM      2  C   UNL     1       2.992   4.720  20.137  0.00  0.00    +0.000 A 
ATOM      3  C   UNL     1       2.364   5.876  20.555  0.00  0.00    +0.000 A 
ATOM      4  C   UNL     1       2.235   6.991  19.691  0.00  0.00    +0.000 A 
ATOM      5  C   UNL     1       2.791   6.895  18.397  0.00  0.00    +0.000 A 
ATOM      6  C   UNL     1       3.432   5.722  17.982  0.00  0.00    +0.000 A 
ATOM      7  C   UNL     1       2.658   8.017  17.458  0.00  0.00    +0.000 C 
ATOM      8  C   UNL     1       2.042   9.139  17.819  0.00  0.00    +0.000 C 
ATOM      9  C   UNL     1       1.474   9.302  19.184  0.00  0.00    +0.000 C 
ATOM     10  C   UNL     1       0.946  10.537  19.444  0.00  0.00    +0.000 C 
ATOM     11  N   UNL     1       1.524   8.172  20.104  0.00  0.00    +0.000 N 
ATOM     12  C   UNL     1       0.740   8.057  21.338  0.00  0.00    +0.000 C 
ENDROOT
BRANCH  10  13
ATOM     13  C   UNL     1       0.429  11.005  20.742  0.00  0.00    +0.000 C 
ATOM     14  C   UNL     1      -0.000  12.257  21.002  0.00  0.00    +0.000 C 
ATOM     15  C   UNL     1       0.036  13.362  20.000  0.00  0.00    +0.000 C 
ATOM     16  C   UNL     1      -0.446  14.593  20.281  0.00  0.00    +0.000 C 
ATOM     17  C   UNL     1      -0.346  15.676  19.230  0.00  0.00    +0.000 C 
ATOM     18  C   UNL     1      -1.073  14.880  21.616  0.00  0.00    +0.000 A 
ATOM     19  C   UNL     1      -1.616  16.140  21.927  0.00  0.00    +0.000 A 
ATOM     20  C   UNL     1      -2.214  16.361  23.169  0.00  0.00    +0.000 A 
ATOM     21  C   UNL     1      -2.272  15.324  24.098  0.00  0.00    +0.000 A 
ATOM     22  N   UNL     1      -1.739  14.117  23.796  0.00  0.00    +0.000 NA
ATOM     23  C   UNL     1      -1.146  13.871  22.596  0.00  0.00    +0.000 A 
ATOM     24  C   UNL     1      -0.596  12.541  22.330  0.00  0.00    +0.000 C 
ATOM     25  O   UNL     1      -0.685  11.672  23.185  0.00  0.00    +0.000 OA
ENDBRANCH  10  13
BRANCH   1  26
ATOM     26  O   UNL     1       4.124   3.493  18.406  0.00  0.00    +0.000 OA
BRANCH  26  28
ATOM     27  C   UNL     1       2.271   2.143  17.836  0.00  0.00    +0.000 C 
ATOM     28  C   UNL     1       3.582   2.236  18.571  0.00  0.00    +0.000 C 
ENDBRANCH  26  28
ENDBRANCH   1  26
TORSDOF 3
ENDMDL
MODEL 9
REMARK VINA RESULT:      -7.3      2.688     10.202
REMARK  Name = 
REMARK  6 active torsions:
REMARK  status: ('A' for Active; 'I' for Inactive)
REMARK    1  A    between atoms: C_1  and  C_2
REMARK    2  A    between atoms: C_2  and  O_3
REMARK    3  A    between atoms: O_3  and  C_4
REMARK    4  A    between atoms: C_13  and  C_14
REMARK    5  A    between atoms: C_17  and  C_18
REMARK    6  A    between atoms: N_27  and  C_28
REMARK                            x       y       z     vdW  Elec       q    Type
REMARK                         _______ _______ _______ _____ _____    ______ ____
ROOT
ATOM      1  C   UNL     1       3.248   5.744  18.954  0.00  0.00    +0.000 A 
ATOM      2  C   UNL     1       2.586   5.658  20.186  0.00  0.00    +0.000 A 
ATOM      3  C   UNL     1       1.805   6.701  20.639  0.00  0.00    +0.000 A 
ATOM      4  C   UNL     1       1.643   7.880  19.870  0.00  0.00    +0.000 A 
ATOM      5  C   UNL     1       2.324   7.966  18.637  0.00  0.00    +0.000 A 
ATOM      6  C   UNL     1       3.120   6.906  18.187  0.00  0.00    +0.000 A 
ATOM      7  C   UNL     1       2.164   9.159  17.794  0.00  0.00    +0.000 C 
ATOM      8  C   UNL     1       1.404  10.177  18.189  0.00  0.00    +0.000 C 
ATOM      9  C   UNL     1       0.697  10.148  19.496  0.00  0.00    +0.000 C 
ATOM     10  C   UNL     1       0.021  11.295  19.811  0.00  0.00    +0.000 C 
ATOM     11  N   UNL     1       0.777   8.942  20.311  0.00  0.00    +0.000 N 
ATOM     12  C   UNL     1      -0.104   8.631  21.443  0.00  0.00    +0.000 C 
ENDROOT
BRANCH  10  13
ATOM     13  C   UNL     1      -0.661  11.581  21.086  0.00  0.00    +0.000 C 
ATOM     14  C   UNL     1      -0.554  12.729  21.783  0.00  0.00    +0.000 C 
ATOM     15  C   UNL     1       0.322  13.865  21.369  0.00  0.00    +0.000 C 
ATOM     16  C   UNL     1       0.369  15.020  22.070  0.00  0.00    +0.000 C 
ATOM     17  C   UNL     1       1.304  16.115  21.612  0.00  0.00    +0.000 C 
ATOM     18  C   UNL     1      -0.497  15.212  23.282  0.00  0.00    +0.000 A 
ATOM     19  C   UNL     1      -0.499  16.414  24.011  0.00  0.00    +0.000 A 
ATOM     20  C   UNL     1      -1.338  16.565  25.118  0.00  0.00    +0.000 A 
ATOM     21  C   UNL     1      -2.175  15.517  25.493  0.00  0.00    +0.000 A 
ATOM     22  N   UNL     1      -2.162  14.359  24.792  0.00  0.00    +0.000 NA
ATOM     23  C   UNL     1      -1.354  14.179  23.712  0.00  0.00    +0.000 A 
ATOM     24  C   UNL     1      -1.394  12.905  22.994  0.00  0.00    +0.000 C 
ATOM     25  O   UNL     1      -2.157  12.026  23.370  0.00  0.00    +0.000 OA
ENDBRANCH  10  13
BRANCH   1  26
ATOM     26  O   UNL     1       3.996   4.722  18.478  0.00  0.00    +0.000 OA
BRANCH  26  28
ATOM     27  C   UNL     1       6.283   5.131  18.906  0.00  0.00    +0.000 C 
ATOM     28  C   UNL     1       5.103   4.222  19.129  0.00  0.00    +0.000 C 
ENDBRANCH  26  28
ENDBRANCH   1  26
TORSDOF 3
ENDMDL
