MODEL 1
REMARK VINA RESULT:      -6.5      0.000      0.000
REMARK  Name = 
REMARK  13 active torsions:
REMARK  status: ('A' for Active; 'I' for Inactive)
REMARK    1  A    between atoms: C_1  and  N_2
REMARK    2  A    between atoms: N_2  and  C_3
REMARK    3  A    between atoms: C_3  and  C_4
REMARK    4  A    between atoms: C_4  and  O_5
REMARK    5  A    between atoms: C_4  and  C_6
REMARK    6  A    between atoms: C_6  and  O_7
REMARK    7  A    between atoms: O_7  and  C_8
REMARK    8  A    between atoms: C_11  and  S_12
REMARK    9  A    between atoms: S_12  and  N_15
REMARK   10  A    between atoms: N_15  and  C_16
REMARK   11  A    between atoms: C_16  and  C_17
REMARK   12  A    between atoms: C_16  and  C_18
REMARK   13  A    between atoms: C_16  and  C_19
REMARK                            x       y       z     vdW  Elec       q    Type
REMARK                         _______ _______ _______ _____ _____    ______ ____
ROOT
ATOM      1  C   UNL     1       1.111   9.755  19.430  0.00  0.00    +0.000 A 
ATOM      2  C   UNL     1       1.647   9.284  18.230  0.00  0.00    +0.000 A 
ATOM      3  C   UNL     1       2.202   8.007  18.153  0.00  0.00    +0.000 A 
ATOM      4  C   UNL     1       2.255   7.201  19.287  0.00  0.00    +0.000 A 
ATOM      5  C   UNL     1       1.712   7.648  20.494  0.00  0.00    +0.000 A 
ATOM      6  C   UNL     1       1.143   8.930  20.565  0.00  0.00    +0.000 A 
ENDROOT
BRANCH   4   7
ATOM      7  S   UNL     1       2.905   5.559  19.121  0.00  0.00    +0.000 S 
ATOM      8  O   UNL     1       2.670   5.153  17.751  0.00  0.00    +0.000 OA
ATOM      9  O   UNL     1       4.238   5.538  19.678  0.00  0.00    +0.000 OA
BRANCH   7  10
ATOM     10  N   UNL     1       1.899   4.593  20.055  0.00  0.00    +0.000 NA
ATOM     11  H   UNL     1       0.982   5.032  20.145  0.00  0.00    +0.000 HD
BRANCH  10  12
ATOM     12  C   UNL     1       1.934   3.111  20.123  0.00  0.00    +0.000 C 
ATOM     13  C   UNL     1       1.028   2.481  19.066  0.00  0.00    +0.000 C 
ATOM     14  C   UNL     1       3.386   2.689  19.816  0.00  0.00    +0.000 C 
ATOM     15  C   UNL     1       1.590   2.602  21.524  0.00  0.00    +0.000 C 
ENDBRANCH  10  12
ENDBRANCH   7  10
ENDBRANCH   4   7
BRANCH   1  16
ATOM     16  O   UNL     1       0.530  10.994  19.586  0.00  0.00    +0.000 OA
BRANCH  16  17
ATOM     17  C   UNL     1      -0.894  11.015  19.394  0.00  0.00    +0.000 C 
BRANCH  17  18
ATOM     18  C   UNL     1      -1.293  11.903  18.210  0.00  0.00    +0.000 C 
BRANCH  18  19
ATOM     19  O   UNL     1      -1.498  13.251  18.653  0.00  0.00    +0.000 OA
ATOM     20  H   UNL     1      -2.375  13.269  19.083  0.00  0.00    +0.000 HD
ENDBRANCH  18  19
BRANCH  18  21
ATOM     21  C   UNL     1      -2.559  11.378  17.515  0.00  0.00    +0.000 C 
BRANCH  21  23
ATOM     22  C   UNL     1      -2.834  10.385  15.337  0.00  0.00    +0.000 C 
ATOM     23  N   UNL     1      -2.447  11.581  16.065  0.00  0.00    +0.000 NA
ATOM     24  H   UNL     1      -3.043  12.370  15.804  0.00  0.00    +0.000 HD
ENDBRANCH  21  23
ENDBRANCH  18  21
ENDBRANCH  17  18
ENDBRANCH  16  17
ENDBRANCH   1  16
TORSDOF 9
ENDMDL
MODEL 2
REMARK VINA RESULT:      -6.4      0.838      1.346
REMARK  Name = 
REMARK  13 active torsions:
REMARK  status: ('A' for Active; 'I' for Inactive)
REMARK    1  A    between atoms: C_1  and  N_2
REMARK    2  A    between atoms: N_2  and  C_3
REMARK    3  A    between atoms: C_3  and  C_4
REMARK    4  A    between atoms: C_4  and  O_5
REMARK    5  A    between atoms: C_4  and  C_6
REMARK    6  A    between atoms: C_6  and  O_7
REMARK    7  A    between atoms: O_7  and  C_8
REMARK    8  A    between atoms: C_11  and  S_12
REMARK    9  A    between atoms: S_12  and  N_15
REMARK   10  A    between atoms: N_15  and  C_16
REMARK   11  A    between atoms: C_16  and  C_17
REMARK   12  A    between atoms: C_16  and  C_18
REMARK   13  A    between atoms: C_16  and  C_19
REMARK                            x       y       z     vdW  Elec       q    Type
REMARK                         _______ _______ _______ _____ _____    ______ ____
ROOT
ATOM      1  C   UNL     1       1.027   9.872  19.149  0.00  0.00    +0.000 A 
ATOM      2  C   UNL     1       1.183   8.996  20.225  0.00  0.00    +0.000 A 
ATOM      3  C   UNL     1       1.832   7.773  20.056  0.00  0.00    +0.000 A 
ATOM      4  C   UNL     1       2.304   7.402  18.800  0.00  0.00    +0.000 A 
ATOM      5  C   UNL     1       2.170   8.270  17.714  0.00  0.00    +0.000 A 
ATOM      6  C   UNL     1       1.526   9.505  17.889  0.00  0.00    +0.000 A 
ENDROOT
BRANCH   4   7
ATOM      7  S   UNL     1       3.186   5.870  18.652  0.00  0.00    +0.000 S 
ATOM      8  O   UNL     1       3.888   5.913  17.387  0.00  0.00    +0.000 OA
ATOM      9  O   UNL     1       3.901   5.634  19.885  0.00  0.00    +0.000 OA
BRANCH   7  10
ATOM     10  N   UNL     1       1.999   4.697  18.467  0.00  0.00    +0.000 NA
ATOM     11  H   UNL     1       1.790   4.568  17.476  0.00  0.00    +0.000 HD
BRANCH  10  12
ATOM     12  C   UNL     1       1.794   3.520  19.346  0.00  0.00    +0.000 C 
ATOM     13  C   UNL     1       0.788   2.540  18.744  0.00  0.00    +0.000 C 
ATOM     14  C   UNL     1       3.155   2.801  19.445  0.00  0.00    +0.000 C 
ATOM     15  C   UNL     1       1.385   3.936  20.761  0.00  0.00    +0.000 C 
ENDBRANCH  10  12
ENDBRANCH   7  10
ENDBRANCH   4   7
BRANCH   1  16
ATOM     16  O   UNL     1       0.414  11.102  19.234  0.00  0.00    +0.000 OA
BRANCH  16  17
ATOM     17  C   UNL     1      -1.021  11.056  19.246  0.00  0.00    +0.000 C 
BRANCH  17  18
ATOM     18  C   UNL     1      -1.615  11.560  17.926  0.00  0.00    +0.000 C 
BRANCH  18  19
ATOM     19  O   UNL     1      -1.090  12.857  17.613  0.00  0.00    +0.000 OA
ATOM     20  H   UNL     1      -1.630  13.202  16.877  0.00  0.00    +0.000 HD
ENDBRANCH  18  19
BRANCH  18  21
ATOM     21  C   UNL     1      -3.150  11.613  17.983  0.00  0.00    +0.000 C 
BRANCH  21  23
ATOM     22  C   UNL     1      -3.018  10.781  15.725  0.00  0.00    +0.000 C 
ATOM     23  N   UNL     1      -3.692  11.704  16.621  0.00  0.00    +0.000 NA
ATOM     24  H   UNL     1      -4.694  11.501  16.661  0.00  0.00    +0.000 HD
ENDBRANCH  21  23
ENDBRANCH  18  21
ENDBRANCH  17  18
ENDBRANCH  16  17
ENDBRANCH   1  16
TORSDOF 9
ENDMDL
MODEL 3
REMARK VINA RESULT:      -6.3      3.357      4.521
REMARK  Name = 
REMARK  13 active torsions:
REMARK  status: ('A' for Active; 'I' for Inactive)
REMARK    1  A    between atoms: C_1  and  N_2
REMARK    2  A    between atoms: N_2  and  C_3
REMARK    3  A    between atoms: C_3  and  C_4
REMARK    4  A    between atoms: C_4  and  O_5
REMARK    5  A    between atoms: C_4  and  C_6
REMARK    6  A    between atoms: C_6  and  O_7
REMARK    7  A    between atoms: O_7  and  C_8
REMARK    8  A    between atoms: C_11  and  S_12
REMARK    9  A    between atoms: S_12  and  N_15
REMARK   10  A    between atoms: N_15  and  C_16
REMARK   11  A    between atoms: C_16  and  C_17
REMARK   12  A    between atoms: C_16  and  C_18
REMARK   13  A    between atoms: C_16  and  C_19
REMARK                            x       y       z     vdW  Elec       q    Type
REMARK                         _______ _______ _______ _____ _____    ______ ____
ROOT
ATOM      1  C   UNL     1       1.410   8.708  19.510  0.00  0.00    +0.000 A 
ATOM      2  C   UNL     1       1.858   7.550  20.149  0.00  0.00    +0.000 A 
ATOM      3  C   UNL     1       2.741   6.682  19.507  0.00  0.00    +0.000 A 
ATOM      4  C   UNL     1       3.160   6.949  18.207  0.00  0.00    +0.000 A 
ATOM      5  C   UNL     1       2.734   8.110  17.555  0.00  0.00    +0.000 A 
ATOM      6  C   UNL     1       1.854   8.988  18.208  0.00  0.00    +0.000 A 
ENDROOT
BRANCH   4   7
ATOM      7  S   UNL     1       4.338   5.853  17.461  0.00  0.00    +0.000 S 
ATOM      8  O   UNL     1       3.765   4.525  17.513  0.00  0.00    +0.000 OA
ATOM      9  O   UNL     1       4.761   6.425  16.203  0.00  0.00    +0.000 OA
BRANCH   7  10
ATOM     10  N   UNL     1       5.640   5.822  18.520  0.00  0.00    +0.000 NA
ATOM     11  H   UNL     1       5.394   5.289  19.356  0.00  0.00    +0.000 HD
BRANCH  10  12
ATOM     12  C   UNL     1       7.073   5.833  18.138  0.00  0.00    +0.000 C 
ATOM     13  C   UNL     1       7.483   7.181  17.545  0.00  0.00    +0.000 C 
ATOM     14  C   UNL     1       7.878   5.622  19.437  0.00  0.00    +0.000 C 
ATOM     15  C   UNL     1       7.414   4.682  17.189  0.00  0.00    +0.000 C 
ENDBRANCH  10  12
ENDBRANCH   7  10
ENDBRANCH   4   7
BRANCH   1  16
ATOM     16  O   UNL     1       0.554   9.624  20.078  0.00  0.00    +0.000 OA
BRANCH  16  17
ATOM     17  C   UNL     1       0.824  10.991  19.730  0.00  0.00    +0.000 C 
BRANCH  17  18
ATOM     18  C   UNL     1       0.148  11.967  20.699  0.00  0.00    +0.000 C 
BRANCH  18  19
ATOM     19  O   UNL     1       1.139  12.666  21.466  0.00  0.00    +0.000 OA
ATOM     20  H   UNL     1       1.311  12.119  22.256  0.00  0.00    +0.000 HD
ENDBRANCH  18  19
BRANCH  18  21
ATOM     21  C   UNL     1      -0.828  11.241  21.639  0.00  0.00    +0.000 C 
BRANCH  21  23
ATOM     22  C   UNL     1      -0.277   9.589  23.305  0.00  0.00    +0.000 C 
ATOM     23  N   UNL     1      -0.176  10.989  22.930  0.00  0.00    +0.000 NA
ATOM     24  H   UNL     1       0.804  11.273  22.855  0.00  0.00    +0.000 HD
ENDBRANCH  21  23
ENDBRANCH  18  21
ENDBRANCH  17  18
ENDBRANCH  16  17
ENDBRANCH   1  16
TORSDOF 9
ENDMDL
MODEL 4
REMARK VINA RESULT:      -6.3      0.587      1.127
REMARK  Name = 
REMARK  13 active torsions:
REMARK  status: ('A' for Active; 'I' for Inactive)
REMARK    1  A    between atoms: C_1  and  N_2
REMARK    2  A    between atoms: N_2  and  C_3
REMARK    3  A    between atoms: C_3  and  C_4
REMARK    4  A    between atoms: C_4  and  O_5
REMARK    5  A    between atoms: C_4  and  C_6
REMARK    6  A    between atoms: C_6  and  O_7
REMARK    7  A    between atoms: O_7  and  C_8
REMARK    8  A    between atoms: C_11  and  S_12
REMARK    9  A    between atoms: S_12  and  N_15
REMARK   10  A    between atoms: N_15  and  C_16
REMARK   11  A    between atoms: C_16  and  C_17
REMARK   12  A    between atoms: C_16  and  C_18
REMARK   13  A    between atoms: C_16  and  C_19
REMARK                            x       y       z     vdW  Elec       q    Type
REMARK                         _______ _______ _______ _____ _____    ______ ____
ROOT
ATOM      1  C   UNL     1       1.082   9.814  19.341  0.00  0.00    +0.000 A 
ATOM      2  C   UNL     1       1.692   9.346  18.175  0.00  0.00    +0.000 A 
ATOM      3  C   UNL     1       2.257   8.071  18.133  0.00  0.00    +0.000 A 
ATOM      4  C   UNL     1       2.243   7.265  19.267  0.00  0.00    +0.000 A 
ATOM      5  C   UNL     1       1.625   7.709  20.439  0.00  0.00    +0.000 A 
ATOM      6  C   UNL     1       1.048   8.988  20.476  0.00  0.00    +0.000 A 
ENDROOT
BRANCH   4   7
ATOM      7  S   UNL     1       2.910   5.626  19.142  0.00  0.00    +0.000 S 
ATOM      8  O   UNL     1       2.596   5.148  17.812  0.00  0.00    +0.000 OA
ATOM      9  O   UNL     1       4.275   5.650  19.613  0.00  0.00    +0.000 OA
BRANCH   7  10
ATOM     10  N   UNL     1       1.980   4.693  20.184  0.00  0.00    +0.000 NA
ATOM     11  H   UNL     1       1.114   5.184  20.409  0.00  0.00    +0.000 HD
BRANCH  10  12
ATOM     12  C   UNL     1       1.931   3.211  20.216  0.00  0.00    +0.000 C 
ATOM     13  C   UNL     1       1.558   2.694  21.605  0.00  0.00    +0.000 C 
ATOM     14  C   UNL     1       0.819   2.785  19.236  0.00  0.00    +0.000 C 
ATOM     15  C   UNL     1       3.243   2.592  19.727  0.00  0.00    +0.000 C 
ENDBRANCH  10  12
ENDBRANCH   7  10
ENDBRANCH   4   7
BRANCH   1  16
ATOM     16  O   UNL     1       0.487  11.050  19.461  0.00  0.00    +0.000 OA
BRANCH  16  17
ATOM     17  C   UNL     1      -0.213  11.493  18.287  0.00  0.00    +0.000 C 
BRANCH  17  18
ATOM     18  C   UNL     1      -1.622  11.994  18.623  0.00  0.00    +0.000 C 
BRANCH  18  19
ATOM     19  O   UNL     1      -1.937  11.695  19.990  0.00  0.00    +0.000 OA
ATOM     20  H   UNL     1      -1.938  10.722  20.066  0.00  0.00    +0.000 HD
ENDBRANCH  18  19
BRANCH  18  21
ATOM     21  C   UNL     1      -2.677  11.373  17.693  0.00  0.00    +0.000 C 
BRANCH  21  23
ATOM     22  C   UNL     1      -2.993  10.644  15.418  0.00  0.00    +0.000 C 
ATOM     23  N   UNL     1      -2.263  11.544  16.294  0.00  0.00    +0.000 NA
ATOM     24  H   UNL     1      -2.428  12.518  16.028  0.00  0.00    +0.000 HD
ENDBRANCH  21  23
ENDBRANCH  18  21
ENDBRANCH  17  18
ENDBRANCH  16  17
ENDBRANCH   1  16
TORSDOF 9
ENDMDL
MODEL 5
REMARK VINA RESULT:      -6.3      0.855      1.393
REMARK  Name = 
REMARK  13 active torsions:
REMARK  status: ('A' for Active; 'I' for Inactive)
REMARK    1  A    between atoms: C_1  and  N_2
REMARK    2  A    between atoms: N_2  and  C_3
REMARK    3  A    between atoms: C_3  and  C_4
REMARK    4  A    between atoms: C_4  and  O_5
REMARK    5  A    between atoms: C_4  and  C_6
REMARK    6  A    between atoms: C_6  and  O_7
REMARK    7  A    between atoms: O_7  and  C_8
REMARK    8  A    between atoms: C_11  and  S_12
REMARK    9  A    between atoms: S_12  and  N_15
REMARK   10  A    between atoms: N_15  and  C_16
REMARK   11  A    between atoms: C_16  and  C_17
REMARK   12  A    between atoms: C_16  and  C_18
REMARK   13  A    between atoms: C_16  and  C_19
REMARK                            x       y       z     vdW  Elec       q    Type
REMARK                         _______ _______ _______ _____ _____    ______ ____
ROOT
ATOM      1  C   UNL     1       1.112   9.617  19.253  0.00  0.00    +0.000 A 
ATOM      2  C   UNL     1       1.688   9.251  18.035  0.00  0.00    +0.000 A 
ATOM      3  C   UNL     1       2.344   8.027  17.900  0.00  0.00    +0.000 A 
ATOM      4  C   UNL     1       2.455   7.171  18.992  0.00  0.00    +0.000 A 
ATOM      5  C   UNL     1       1.873   7.513  20.215  0.00  0.00    +0.000 A 
ATOM      6  C   UNL     1       1.205   8.741  20.346  0.00  0.00    +0.000 A 
ENDROOT
BRANCH   4   7
ATOM      7  S   UNL     1       3.234   5.597  18.751  0.00  0.00    +0.000 S 
ATOM      8  O   UNL     1       3.586   5.515  17.348  0.00  0.00    +0.000 OA
ATOM      9  O   UNL     1       4.239   5.422  19.774  0.00  0.00    +0.000 OA
BRANCH   7  10
ATOM     10  N   UNL     1       2.014   4.465  18.973  0.00  0.00    +0.000 NA
ATOM     11  H   UNL     1       1.228   4.676  18.357  0.00  0.00    +0.000 HD
BRANCH  10  12
ATOM     12  C   UNL     1       2.205   3.040  19.339  0.00  0.00    +0.000 C 
ATOM     13  C   UNL     1       2.284   2.858  20.855  0.00  0.00    +0.000 C 
ATOM     14  C   UNL     1       0.959   2.283  18.835  0.00  0.00    +0.000 C 
ATOM     15  C   UNL     1       3.428   2.437  18.644  0.00  0.00    +0.000 C 
ENDBRANCH  10  12
ENDBRANCH   7  10
ENDBRANCH   4   7
BRANCH   1  16
ATOM     16  O   UNL     1       0.434  10.797  19.466  0.00  0.00    +0.000 OA
BRANCH  16  17
ATOM     17  C   UNL     1      -0.973  10.736  19.184  0.00  0.00    +0.000 C 
BRANCH  17  18
ATOM     18  C   UNL     1      -1.396  11.812  18.178  0.00  0.00    +0.000 C 
BRANCH  18  19
ATOM     19  O   UNL     1      -1.927  12.952  18.869  0.00  0.00    +0.000 OA
ATOM     20  H   UNL     1      -2.885  12.793  18.964  0.00  0.00    +0.000 HD
ENDBRANCH  18  19
BRANCH  18  21
ATOM     21  C   UNL     1      -2.433  11.273  17.179  0.00  0.00    +0.000 C 
BRANCH  21  23
ATOM     22  C   UNL     1      -4.803  11.029  17.544  0.00  0.00    +0.000 C 
ATOM     23  N   UNL     1      -3.711  11.971  17.369  0.00  0.00    +0.000 NA
ATOM     24  H   UNL     1      -3.625  12.581  18.186  0.00  0.00    +0.000 HD
ENDBRANCH  21  23
ENDBRANCH  18  21
ENDBRANCH  17  18
ENDBRANCH  16  17
ENDBRANCH   1  16
TORSDOF 9
ENDMDL
MODEL 6
REMARK VINA RESULT:      -6.3      1.611      2.514
REMARK  Name = 
REMARK  13 active torsions:
REMARK  status: ('A' for Active; 'I' for Inactive)
REMARK    1  A    between atoms: C_1  and  N_2
REMARK    2  A    between atoms: N_2  and  C_3
REMARK    3  A    between atoms: C_3  and  C_4
REMARK    4  A    between atoms: C_4  and  O_5
REMARK    5  A    between atoms: C_4  and  C_6
REMARK    6  A    between atoms: C_6  and  O_7
REMARK    7  A    between atoms: O_7  and  C_8
REMARK    8  A    between atoms: C_11  and  S_12
REMARK    9  A    between atoms: S_12  and  N_15
REMARK   10  A    between atoms: N_15  and  C_16
REMARK   11  A    between atoms: C_16  and  C_17
REMARK   12  A    between atoms: C_16  and  C_18
REMARK   13  A    between atoms: C_16  and  C_19
REMARK                            x       y       z     vdW  Elec       q    Type
REMARK                         _______ _______ _______ _____ _____    ______ ____
ROOT
ATOM      1  C   UNL     1       1.174   9.815  19.071  0.00  0.00    +0.000 A 
ATOM      2  C   UNL     1       1.243   8.892  20.117  0.00  0.00    +0.000 A 
ATOM      3  C   UNL     1       1.891   7.669  19.942  0.00  0.00    +0.000 A 
ATOM      4  C   UNL     1       2.451   7.347  18.709  0.00  0.00    +0.000 A 
ATOM      5  C   UNL     1       2.405   8.262  17.655  0.00  0.00    +0.000 A 
ATOM      6  C   UNL     1       1.762   9.497  17.836  0.00  0.00    +0.000 A 
ENDROOT
BRANCH   4   7
ATOM      7  S   UNL     1       3.326   5.812  18.559  0.00  0.00    +0.000 S 
ATOM      8  O   UNL     1       3.991   5.834  17.272  0.00  0.00    +0.000 OA
ATOM      9  O   UNL     1       4.079   5.594  19.773  0.00  0.00    +0.000 OA
BRANCH   7  10
ATOM     10  N   UNL     1       2.134   4.637  18.428  0.00  0.00    +0.000 NA
ATOM     11  H   UNL     1       1.956   4.432  17.444  0.00  0.00    +0.000 HD
BRANCH  10  12
ATOM     12  C   UNL     1       1.889   3.536  19.390  0.00  0.00    +0.000 C 
ATOM     13  C   UNL     1       1.300   4.058  20.700  0.00  0.00    +0.000 C 
ATOM     14  C   UNL     1       0.845   2.604  18.739  0.00  0.00    +0.000 C 
ATOM     15  C   UNL     1       3.154   2.711  19.640  0.00  0.00    +0.000 C 
ENDBRANCH  10  12
ENDBRANCH   7  10
ENDBRANCH   4   7
BRANCH   1  16
ATOM     16  O   UNL     1       0.569  11.049  19.166  0.00  0.00    +0.000 OA
BRANCH  16  17
ATOM     17  C   UNL     1      -0.862  11.005  19.277  0.00  0.00    +0.000 C 
BRANCH  17  18
ATOM     18  C   UNL     1      -1.506  12.316  18.814  0.00  0.00    +0.000 C 
BRANCH  18  19
ATOM     19  O   UNL     1      -1.315  12.488  17.403  0.00  0.00    +0.000 OA
ATOM     20  H   UNL     1      -1.269  13.450  17.246  0.00  0.00    +0.000 HD
ENDBRANCH  18  19
BRANCH  18  21
ATOM     21  C   UNL     1      -0.933  13.524  19.573  0.00  0.00    +0.000 C 
BRANCH  21  23
ATOM     22  C   UNL     1       0.746  15.157  19.003  0.00  0.00    +0.000 C 
ATOM     23  N   UNL     1      -0.520  14.558  18.616  0.00  0.00    +0.000 NA
ATOM     24  H   UNL     1      -0.447  14.128  17.690  0.00  0.00    +0.000 HD
ENDBRANCH  21  23
ENDBRANCH  18  21
ENDBRANCH  17  18
ENDBRANCH  16  17
ENDBRANCH   1  16
TORSDOF 9
ENDMDL
MODEL 7
REMARK VINA RESULT:      -6.2      4.973      7.097
REMARK  Name = 
REMARK  13 active torsions:
REMARK  status: ('A' for Active; 'I' for Inactive)
REMARK    1  A    between atoms: C_1  and  N_2
REMARK    2  A    between atoms: N_2  and  C_3
REMARK    3  A    between atoms: C_3  and  C_4
REMARK    4  A    between atoms: C_4  and  O_5
REMARK    5  A    between atoms: C_4  and  C_6
REMARK    6  A    between atoms: C_6  and  O_7
REMARK    7  A    between atoms: O_7  and  C_8
REMARK    8  A    between atoms: C_11  and  S_12
REMARK    9  A    between atoms: S_12  and  N_15
REMARK   10  A    between atoms: N_15  and  C_16
REMARK   11  A    between atoms: C_16  and  C_17
REMARK   12  A    between atoms: C_16  and  C_18
REMARK   13  A    between atoms: C_16  and  C_19
REMARK                            x       y       z     vdW  Elec       q    Type
REMARK                         _______ _______ _______ _____ _____    ______ ____
ROOT
ATOM      1  C   UNL     1       3.032   5.412  19.778  0.00  0.00    +0.000 A 
ATOM      2  C   UNL     1       4.294   4.831  19.920  0.00  0.00    +0.000 A 
ATOM      3  C   UNL     1       5.309   5.106  19.004  0.00  0.00    +0.000 A 
ATOM      4  C   UNL     1       5.061   5.943  17.920  0.00  0.00    +0.000 A 
ATOM      5  C   UNL     1       3.810   6.546  17.768  0.00  0.00    +0.000 A 
ATOM      6  C   UNL     1       2.793   6.275  18.697  0.00  0.00    +0.000 A 
ENDROOT
BRANCH   4   7
ATOM      7  S   UNL     1       6.405   6.319  16.825  0.00  0.00    +0.000 S 
ATOM      8  O   UNL     1       6.539   7.761  16.809  0.00  0.00    +0.000 OA
ATOM      9  O   UNL     1       7.527   5.478  17.172  0.00  0.00    +0.000 OA
BRANCH   7  10
ATOM     10  N   UNL     1       5.853   5.904  15.294  0.00  0.00    +0.000 NA
ATOM     11  H   UNL     1       5.784   6.739  14.712  0.00  0.00    +0.000 HD
BRANCH  10  12
ATOM     12  C   UNL     1       6.118   4.625  14.592  0.00  0.00    +0.000 C 
ATOM     13  C   UNL     1       5.087   4.365  13.493  0.00  0.00    +0.000 C 
ATOM     14  C   UNL     1       7.500   4.767  13.921  0.00  0.00    +0.000 C 
ATOM     15  C   UNL     1       6.196   3.449  15.568  0.00  0.00    +0.000 C 
ENDBRANCH  10  12
ENDBRANCH   7  10
ENDBRANCH   4   7
BRANCH   1  16
ATOM     16  O   UNL     1       1.982   5.206  20.645  0.00  0.00    +0.000 OA
BRANCH  16  17
ATOM     17  C   UNL     1       0.998   4.269  20.180  0.00  0.00    +0.000 C 
BRANCH  17  18
ATOM     18  C   UNL     1       1.204   2.880  20.796  0.00  0.00    +0.000 C 
BRANCH  18  19
ATOM     19  O   UNL     1       1.811   3.000  22.090  0.00  0.00    +0.000 OA
ATOM     20  H   UNL     1       1.810   2.105  22.478  0.00  0.00    +0.000 HD
ENDBRANCH  18  19
BRANCH  18  21
ATOM     21  C   UNL     1       2.066   1.985  19.892  0.00  0.00    +0.000 C 
BRANCH  21  23
ATOM     22  C   UNL     1       2.555   2.347  17.559  0.00  0.00    +0.000 C 
ATOM     23  N   UNL     1       1.527   1.999  18.525  0.00  0.00    +0.000 NA
ATOM     24  H   UNL     1       1.142   1.073  18.324  0.00  0.00    +0.000 HD
ENDBRANCH  21  23
ENDBRANCH  18  21
ENDBRANCH  17  18
ENDBRANCH  16  17
ENDBRANCH   1  16
TORSDOF 9
ENDMDL
MODEL 8
REMARK VINA RESULT:      -6.2      1.639      2.404
REMARK  Name = 
REMARK  13 active torsions:
REMARK  status: ('A' for Active; 'I' for Inactive)
REMARK    1  A    between atoms: C_1  and  N_2
REMARK    2  A    between atoms: N_2  and  C_3
REMARK    3  A    between atoms: C_3  and  C_4
REMARK    4  A    between atoms: C_4  and  O_5
REMARK    5  A    between atoms: C_4  and  C_6
REMARK    6  A    between atoms: C_6  and  O_7
REMARK    7  A    between atoms: O_7  and  C_8
REMARK    8  A    between atoms: C_11  and  S_12
REMARK    9  A    between atoms: S_12  and  N_15
REMARK   10  A    between atoms: N_15  and  C_16
REMARK   11  A    between atoms: C_16  and  C_17
REMARK   12  A    between atoms: C_16  and  C_18
REMARK   13  A    between atoms: C_16  and  C_19
REMARK                            x       y       z     vdW  Elec       q    Type
REMARK                         _______ _______ _______ _____ _____    ______ ____
ROOT
ATOM      1  C   UNL     1       1.018   9.681  19.373  0.00  0.00    +0.000 A 
ATOM      2  C   UNL     1       1.536   9.334  18.124  0.00  0.00    +0.000 A 
ATOM      3  C   UNL     1       2.208   8.125  17.944  0.00  0.00    +0.000 A 
ATOM      4  C   UNL     1       2.393   7.264  19.022  0.00  0.00    +0.000 A 
ATOM      5  C   UNL     1       1.870   7.586  20.277  0.00  0.00    +0.000 A 
ATOM      6  C   UNL     1       1.185   8.799  20.453  0.00  0.00    +0.000 A 
ENDROOT
BRANCH   4   7
ATOM      7  S   UNL     1       3.189   5.707  18.728  0.00  0.00    +0.000 S 
ATOM      8  O   UNL     1       3.599   5.703  17.339  0.00  0.00    +0.000 OA
ATOM      9  O   UNL     1       4.152   5.480  19.781  0.00  0.00    +0.000 OA
BRANCH   7  10
ATOM     10  N   UNL     1       1.967   4.562  18.838  0.00  0.00    +0.000 NA
ATOM     11  H   UNL     1       1.290   4.704  18.087  0.00  0.00    +0.000 HD
BRANCH  10  12
ATOM     12  C   UNL     1       2.116   3.175  19.342  0.00  0.00    +0.000 C 
ATOM     13  C   UNL     1       2.089   3.129  20.870  0.00  0.00    +0.000 C 
ATOM     14  C   UNL     1       0.900   2.381  18.822  0.00  0.00    +0.000 C 
ATOM     15  C   UNL     1       3.377   2.506  18.790  0.00  0.00    +0.000 C 
ENDBRANCH  10  12
ENDBRANCH   7  10
ENDBRANCH   4   7
BRANCH   1  16
ATOM     16  O   UNL     1       0.329  10.845  19.630  0.00  0.00    +0.000 OA
BRANCH  16  17
ATOM     17  C   UNL     1      -0.923  10.964  18.937  0.00  0.00    +0.000 C 
BRANCH  17  18
ATOM     18  C   UNL     1      -1.136  12.381  18.393  0.00  0.00    +0.000 C 
BRANCH  18  19
ATOM     19  O   UNL     1      -1.633  12.323  17.049  0.00  0.00    +0.000 OA
ATOM     20  H   UNL     1      -2.370  11.683  17.055  0.00  0.00    +0.000 HD
ENDBRANCH  18  19
BRANCH  18  21
ATOM     21  C   UNL     1       0.162  13.203  18.439  0.00  0.00    +0.000 C 
BRANCH  21  23
ATOM     22  C   UNL     1       0.362  15.283  19.641  0.00  0.00    +0.000 C 
ATOM     23  N   UNL     1       0.300  13.836  19.757  0.00  0.00    +0.000 NA
ATOM     24  H   UNL     1      -0.497  13.554  20.333  0.00  0.00    +0.000 HD
ENDBRANCH  21  23
ENDBRANCH  18  21
ENDBRANCH  17  18
ENDBRANCH  16  17
ENDBRANCH   1  16
TORSDOF 9
ENDMDL
MODEL 9
REMARK VINA RESULT:      -6.2      5.121      7.191
REMARK  Name = 
REMARK  13 active torsions:
REMARK  status: ('A' for Active; 'I' for Inactive)
REMARK    1  A    between atoms: C_1  and  N_2
REMARK    2  A    between atoms: N_2  and  C_3
REMARK    3  A    between atoms: C_3  and  C_4
REMARK    4  A    between atoms: C_4  and  O_5
REMARK    5  A    between atoms: C_4  and  C_6
REMARK    6  A    between atoms: C_6  and  O_7
REMARK    7  A    between atoms: O_7  and  C_8
REMARK    8  A    between atoms: C_11  and  S_12
REMARK    9  A    between atoms: S_12  and  N_15
REMARK   10  A    between atoms: N_15  and  C_16
REMARK   11  A    between atoms: C_16  and  C_17
REMARK   12  A    between atoms: C_16  and  C_18
REMARK   13  A    between atoms: C_16  and  C_19
REMARK                            x       y       z     vdW  Elec       q    Type
REMARK                         _______ _______ _______ _____ _____    ______ ____
ROOT
ATOM      1  C   UNL     1       3.195   5.397  19.272  0.00  0.00    +0.000 A 
ATOM      2  C   UNL     1       3.509   6.367  18.318  0.00  0.00    +0.000 A 
ATOM      3  C   UNL     1       4.812   6.493  17.836  0.00  0.00    +0.000 A 
ATOM      4  C   UNL     1       5.819   5.668  18.328  0.00  0.00    +0.000 A 
ATOM      5  C   UNL     1       5.523   4.682  19.272  0.00  0.00    +0.000 A 
ATOM      6  C   UNL     1       4.209   4.550  19.748  0.00  0.00    +0.000 A 
ENDROOT
BRANCH   4   7
ATOM      7  S   UNL     1       7.443   5.819  17.632  0.00  0.00    +0.000 S 
ATOM      8  O   UNL     1       7.988   7.073  18.108  0.00  0.00    +0.000 OA
ATOM      9  O   UNL     1       8.151   4.578  17.850  0.00  0.00    +0.000 OA
BRANCH   7  10
ATOM     10  N   UNL     1       7.196   6.033  15.985  0.00  0.00    +0.000 NA
ATOM     11  H   UNL     1       7.931   6.627  15.598  0.00  0.00    +0.000 HD
BRANCH  10  12
ATOM     12  C   UNL     1       6.587   5.046  15.061  0.00  0.00    +0.000 C 
ATOM     13  C   UNL     1       6.345   3.705  15.754  0.00  0.00    +0.000 C 
ATOM     14  C   UNL     1       5.217   5.618  14.643  0.00  0.00    +0.000 C 
ATOM     15  C   UNL     1       7.423   4.870  13.790  0.00  0.00    +0.000 C 
ENDBRANCH  10  12
ENDBRANCH   7  10
ENDBRANCH   4   7
BRANCH   1  16
ATOM     16  O   UNL     1       1.933   5.195  19.787  0.00  0.00    +0.000 OA
BRANCH  16  17
ATOM     17  C   UNL     1       1.902   4.467  21.025  0.00  0.00    +0.000 C 
BRANCH  17  18
ATOM     18  C   UNL     1       1.087   3.175  20.900  0.00  0.00    +0.000 C 
BRANCH  18  19
ATOM     19  O   UNL     1       0.934   2.563  22.189  0.00  0.00    +0.000 OA
ATOM     20  H   UNL     1       1.643   1.897  22.263  0.00  0.00    +0.000 HD
ENDBRANCH  18  19
BRANCH  18  21
ATOM     21  C   UNL     1       1.745   2.186  19.924  0.00  0.00    +0.000 C 
BRANCH  21  23
ATOM     22  C   UNL     1       2.384   2.276  17.602  0.00  0.00    +0.000 C 
ATOM     23  N   UNL     1       1.305   2.478  18.554  0.00  0.00    +0.000 NA
ATOM     24  H   UNL     1       0.512   1.869  18.335  0.00  0.00    +0.000 HD
ENDBRANCH  21  23
ENDBRANCH  18  21
ENDBRANCH  17  18
ENDBRANCH  16  17
ENDBRANCH   1  16
TORSDOF 9
ENDMDL
