MODEL 1
REMARK VINA RESULT:      -4.3      0.000      0.000
REMARK  Name = 
REMARK  3 active torsions:
REMARK  status: ('A' for Active; 'I' for Inactive)
REMARK    1  A    between atoms: C_1  and  N_2
REMARK    2  A    between atoms: N_2  and  C_3
REMARK    3  A    between atoms: N_6  and  C_7
REMARK                            x       y       z     vdW  Elec       q    Type
REMARK                         _______ _______ _______ _____ _____    ______ ____
ROOT
ATOM      1  C   UNL     1       1.406   3.808  19.390  0.00  0.00    +0.000 C 
ATOM      2  C   UNL     1       1.740   2.739  18.342  0.00  0.00    +0.000 C 
ATOM      3  C   UNL     1       2.612   3.326  17.232  0.00  0.00    +0.000 C 
ATOM      4  N   UNL     1       3.849   3.902  17.772  0.00  0.00    +0.000 NA
ATOM      5  C   UNL     1       4.679   4.426  16.686  0.00  0.00    +0.000 C 
ATOM      6  C   UNL     1       3.563   4.957  18.753  0.00  0.00    +0.000 C 
ATOM      7  C   UNL     1       2.710   4.430  19.909  0.00  0.00    +0.000 C 
ENDROOT
BRANCH   1   9
ATOM      8  C   UNL     1       1.486   2.716  21.575  0.00  0.00    +0.000 C 
ATOM      9  N   UNL     1       0.643   3.288  20.536  0.00  0.00    +0.000 NA
ATOM     10  H   UNL     1       0.074   4.035  20.934  0.00  0.00    +0.000 HD
ENDBRANCH   1   9
TORSDOF 1
ENDMDL
MODEL 2
REMARK VINA RESULT:      -4.3      1.531      1.622
REMARK  Name = 
REMARK  3 active torsions:
REMARK  status: ('A' for Active; 'I' for Inactive)
REMARK    1  A    between atoms: C_1  and  N_2
REMARK    2  A    between atoms: N_2  and  C_3
REMARK    3  A    between atoms: N_6  and  C_7
REMARK                            x       y       z     vdW  Elec       q    Type
REMARK                         _______ _______ _______ _____ _____    ______ ____
ROOT
ATOM      1  C   UNL     1       1.095   4.164  19.917  0.00  0.00    +0.000 C 
ATOM      2  C   UNL     1       1.773   3.719  18.615  0.00  0.00    +0.000 C 
ATOM      3  C   UNL     1       2.214   4.931  17.794  0.00  0.00    +0.000 C 
ATOM      4  N   UNL     1       3.119   5.794  18.561  0.00  0.00    +0.000 NA
ATOM      5  C   UNL     1       3.552   6.927  17.741  0.00  0.00    +0.000 C 
ATOM      6  C   UNL     1       2.486   6.268  19.798  0.00  0.00    +0.000 C 
ATOM      7  C   UNL     1       2.040   5.101  20.681  0.00  0.00    +0.000 C 
ENDROOT
BRANCH   1   9
ATOM      8  C   UNL     1       1.774   2.688  21.743  0.00  0.00    +0.000 C 
ATOM      9  N   UNL     1       0.726   3.045  20.798  0.00  0.00    +0.000 NA
ATOM     10  H   UNL     1      -0.125   3.279  21.309  0.00  0.00    +0.000 HD
ENDBRANCH   1   9
TORSDOF 1
ENDMDL
MODEL 3
REMARK VINA RESULT:      -4.2      1.868      4.131
REMARK  Name = 
REMARK  3 active torsions:
REMARK  status: ('A' for Active; 'I' for Inactive)
REMARK    1  A    between atoms: C_1  and  N_2
REMARK    2  A    between atoms: N_2  and  C_3
REMARK    3  A    between atoms: N_6  and  C_7
REMARK                            x       y       z     vdW  Elec       q    Type
REMARK                         _______ _______ _______ _____ _____    ______ ____
ROOT
ATOM      1  C   UNL     1       4.814   3.920  18.701  0.00  0.00    +0.000 C 
ATOM      2  C   UNL     1       4.429   2.808  19.686  0.00  0.00    +0.000 C 
ATOM      3  C   UNL     1       2.911   2.730  19.844  0.00  0.00    +0.000 C 
ATOM      4  N   UNL     1       2.249   2.508  18.554  0.00  0.00    +0.000 NA
ATOM      5  C   UNL     1       0.800   2.404  18.740  0.00  0.00    +0.000 C 
ATOM      6  C   UNL     1       2.568   3.577  17.599  0.00  0.00    +0.000 C 
ATOM      7  C   UNL     1       4.077   3.694  17.374  0.00  0.00    +0.000 C 
ENDROOT
BRANCH   1   9
ATOM      8  C   UNL     1       6.676   5.266  17.869  0.00  0.00    +0.000 C 
ATOM      9  N   UNL     1       6.259   3.990  18.433  0.00  0.00    +0.000 NA
ATOM     10  H   UNL     1       6.775   3.816  19.295  0.00  0.00    +0.000 HD
ENDBRANCH   1   9
TORSDOF 1
ENDMDL
MODEL 4
REMARK VINA RESULT:      -4.2      3.006      5.675
REMARK  Name = 
REMARK  3 active torsions:
REMARK  status: ('A' for Active; 'I' for Inactive)
REMARK    1  A    between atoms: C_1  and  N_2
REMARK    2  A    between atoms: N_2  and  C_3
REMARK    3  A    between atoms: N_6  and  C_7
REMARK                            x       y       z     vdW  Elec       q    Type
REMARK                         _______ _______ _______ _____ _____    ______ ____
ROOT
ATOM      1  C   UNL     1       6.732   5.867  16.604  0.00  0.00    +0.000 C 
ATOM      2  C   UNL     1       6.824   4.755  17.656  0.00  0.00    +0.000 C 
ATOM      3  C   UNL     1       5.918   5.063  18.848  0.00  0.00    +0.000 C 
ATOM      4  N   UNL     1       4.523   5.241  18.427  0.00  0.00    +0.000 NA
ATOM      5  C   UNL     1       3.674   5.501  19.590  0.00  0.00    +0.000 C 
ATOM      6  C   UNL     1       4.395   6.326  17.445  0.00  0.00    +0.000 C 
ATOM      7  C   UNL     1       5.262   6.068  16.211  0.00  0.00    +0.000 C 
ENDROOT
BRANCH   1   9
ATOM      8  C   UNL     1       6.832   4.696  14.460  0.00  0.00    +0.000 C 
ATOM      9  N   UNL     1       7.511   5.590  15.387  0.00  0.00    +0.000 NA
ATOM     10  H   UNL     1       7.729   6.467  14.914  0.00  0.00    +0.000 HD
ENDBRANCH   1   9
TORSDOF 1
ENDMDL
MODEL 5
REMARK VINA RESULT:      -4.2      2.650      5.781
REMARK  Name = 
REMARK  3 active torsions:
REMARK  status: ('A' for Active; 'I' for Inactive)
REMARK    1  A    between atoms: C_1  and  N_2
REMARK    2  A    between atoms: N_2  and  C_3
REMARK    3  A    between atoms: N_6  and  C_7
REMARK                            x       y       z     vdW  Elec       q    Type
REMARK                         _______ _______ _______ _____ _____    ______ ____
ROOT
ATOM      1  C   UNL     1       6.576   5.321  16.154  0.00  0.00    +0.000 C 
ATOM      2  C   UNL     1       7.208   4.769  17.438  0.00  0.00    +0.000 C 
ATOM      3  C   UNL     1       6.200   4.785  18.586  0.00  0.00    +0.000 C 
ATOM      4  N   UNL     1       4.995   4.018  18.251  0.00  0.00    +0.000 NA
ATOM      5  C   UNL     1       4.062   4.022  19.379  0.00  0.00    +0.000 C 
ATOM      6  C   UNL     1       4.344   4.545  17.044  0.00  0.00    +0.000 C 
ATOM      7  C   UNL     1       5.295   4.535  15.846  0.00  0.00    +0.000 C 
ENDROOT
BRANCH   1   9
ATOM      8  C   UNL     1       6.864   4.574  13.845  0.00  0.00    +0.000 C 
ATOM      9  N   UNL     1       7.466   5.250  14.985  0.00  0.00    +0.000 NA
ATOM     10  H   UNL     1       7.745   6.192  14.710  0.00  0.00    +0.000 HD
ENDBRANCH   1   9
TORSDOF 1
ENDMDL
MODEL 6
REMARK VINA RESULT:      -4.2      1.924      4.409
REMARK  Name = 
REMARK  3 active torsions:
REMARK  status: ('A' for Active; 'I' for Inactive)
REMARK    1  A    between atoms: C_1  and  N_2
REMARK    2  A    between atoms: N_2  and  C_3
REMARK    3  A    between atoms: N_6  and  C_7
REMARK                            x       y       z     vdW  Elec       q    Type
REMARK                         _______ _______ _______ _____ _____    ______ ____
ROOT
ATOM      1  C   UNL     1       4.977   4.135  18.686  0.00  0.00    +0.000 C 
ATOM      2  C   UNL     1       4.472   5.429  19.335  0.00  0.00    +0.000 C 
ATOM      3  C   UNL     1       2.955   5.386  19.517  0.00  0.00    +0.000 C 
ATOM      4  N   UNL     1       2.545   4.228  20.321  0.00  0.00    +0.000 NA
ATOM      5  C   UNL     1       1.094   4.230  20.507  0.00  0.00    +0.000 C 
ATOM      6  C   UNL     1       2.982   2.968  19.705  0.00  0.00    +0.000 C 
ATOM      7  C   UNL     1       4.500   2.935  19.516  0.00  0.00    +0.000 C 
ENDROOT
BRANCH   1   9
ATOM      8  C   UNL     1       6.945   4.696  17.349  0.00  0.00    +0.000 C 
ATOM      9  N   UNL     1       6.442   4.072  18.564  0.00  0.00    +0.000 NA
ATOM     10  H   UNL     1       6.871   4.517  19.375  0.00  0.00    +0.000 HD
ENDBRANCH   1   9
TORSDOF 1
ENDMDL
MODEL 7
REMARK VINA RESULT:      -4.1      1.719      2.291
REMARK  Name = 
REMARK  3 active torsions:
REMARK  status: ('A' for Active; 'I' for Inactive)
REMARK    1  A    between atoms: C_1  and  N_2
REMARK    2  A    between atoms: N_2  and  C_3
REMARK    3  A    between atoms: N_6  and  C_7
REMARK                            x       y       z     vdW  Elec       q    Type
REMARK                         _______ _______ _______ _____ _____    ______ ____
ROOT
ATOM      1  C   UNL     1       2.435   4.302  17.827  0.00  0.00    +0.000 C 
ATOM      2  C   UNL     1       3.655   3.511  17.339  0.00  0.00    +0.000 C 
ATOM      3  C   UNL     1       4.942   4.297  17.584  0.00  0.00    +0.000 C 
ATOM      4  N   UNL     1       5.100   4.637  19.002  0.00  0.00    +0.000 NA
ATOM      5  C   UNL     1       6.356   5.359  19.213  0.00  0.00    +0.000 C 
ATOM      6  C   UNL     1       3.964   5.428  19.492  0.00  0.00    +0.000 C 
ATOM      7  C   UNL     1       2.640   4.686  19.299  0.00  0.00    +0.000 C 
ENDROOT
BRANCH   1   9
ATOM      8  C   UNL     1       0.986   2.560  18.743  0.00  0.00    +0.000 C 
ATOM      9  N   UNL     1       1.169   3.563  17.704  0.00  0.00    +0.000 NA
ATOM     10  H   UNL     1       0.388   4.219  17.725  0.00  0.00    +0.000 HD
ENDBRANCH   1   9
TORSDOF 1
ENDMDL
MODEL 8
REMARK VINA RESULT:      -4.1      1.308      4.350
REMARK  Name = 
REMARK  3 active torsions:
REMARK  status: ('A' for Active; 'I' for Inactive)
REMARK    1  A    between atoms: C_1  and  N_2
REMARK    2  A    between atoms: N_2  and  C_3
REMARK    3  A    between atoms: N_6  and  C_7
REMARK                            x       y       z     vdW  Elec       q    Type
REMARK                         _______ _______ _______ _____ _____    ______ ____
ROOT
ATOM      1  C   UNL     1       3.917   3.382  17.840  0.00  0.00    +0.000 C 
ATOM      2  C   UNL     1       4.235   4.094  19.160  0.00  0.00    +0.000 C 
ATOM      3  C   UNL     1       3.009   4.112  20.073  0.00  0.00    +0.000 C 
ATOM      4  N   UNL     1       2.522   2.754  20.342  0.00  0.00    +0.000 NA
ATOM      5  C   UNL     1       1.371   2.798  21.244  0.00  0.00    +0.000 C 
ATOM      6  C   UNL     1       2.173   2.056  19.097  0.00  0.00    +0.000 C 
ATOM      7  C   UNL     1       3.368   1.981  18.144  0.00  0.00    +0.000 C 
ENDROOT
BRANCH   1   9
ATOM      8  C   UNL     1       5.309   4.427  16.124  0.00  0.00    +0.000 C 
ATOM      9  N   UNL     1       5.080   3.249  16.950  0.00  0.00    +0.000 NA
ATOM     10  H   UNL     1       5.915   3.058  17.505  0.00  0.00    +0.000 HD
ENDBRANCH   1   9
TORSDOF 1
ENDMDL
MODEL 9
REMARK VINA RESULT:      -4.1      1.818      2.552
REMARK  Name = 
REMARK  3 active torsions:
REMARK  status: ('A' for Active; 'I' for Inactive)
REMARK    1  A    between atoms: C_1  and  N_2
REMARK    2  A    between atoms: N_2  and  C_3
REMARK    3  A    between atoms: N_6  and  C_7
REMARK                            x       y       z     vdW  Elec       q    Type
REMARK                         _______ _______ _______ _____ _____    ______ ____
ROOT
ATOM      1  C   UNL     1       3.235   2.356  18.221  0.00  0.00    +0.000 C 
ATOM      2  C   UNL     1       3.769   3.015  19.499  0.00  0.00    +0.000 C 
ATOM      3  C   UNL     1       5.000   3.868  19.192  0.00  0.00    +0.000 C 
ATOM      4  N   UNL     1       4.702   4.894  18.186  0.00  0.00    +0.000 NA
ATOM      5  C   UNL     1       5.887   5.717  17.937  0.00  0.00    +0.000 C 
ATOM      6  C   UNL     1       4.223   4.293  16.935  0.00  0.00    +0.000 C 
ATOM      7  C   UNL     1       2.973   3.441  17.167  0.00  0.00    +0.000 C 
ENDROOT
BRANCH   1   9
ATOM      8  C   UNL     1       0.872   2.420  18.842  0.00  0.00    +0.000 C 
ATOM      9  N   UNL     1       1.996   1.591  18.429  0.00  0.00    +0.000 NA
ATOM     10  H   UNL     1       1.753   1.094  17.572  0.00  0.00    +0.000 HD
ENDBRANCH   1   9
TORSDOF 1
ENDMDL
