MODEL 1
REMARK VINA RESULT:      -7.9      0.000      0.000
REMARK  Name = 
REMARK  14 active torsions:
REMARK  status: ('A' for Active; 'I' for Inactive)
REMARK    1  A    between atoms: C_1  and  O_2
REMARK    2  A    between atoms: O_2  and  C_3
REMARK    3  A    between atoms: C_3  and  C_5
REMARK    4  A    between atoms: C_5  and  C_6
REMARK    5  A    between atoms: C_5  and  N_14
REMARK    6  A    between atoms: C_6  and  C_7
REMARK    7  A    between atoms: C_10  and  O_11
REMARK    8  A    between atoms: C_15  and  C_17
REMARK    9  A    between atoms: C_17  and  N_18
REMARK   10  A    between atoms: C_19  and  C_21
REMARK   11  A    between atoms: C_21  and  C_22
REMARK   12  A    between atoms: C_21  and  N_23
REMARK   13  A    between atoms: C_24  and  C_26
REMARK   14  A    between atoms: C_27  and  C_28
REMARK                            x       y       z     vdW  Elec       q    Type
REMARK                         _______ _______ _______ _____ _____    ______ ____
ROOT
ATOM      1  C   UNL     1       2.280   7.891  17.515  0.00  0.00    +0.000 C 
ENDROOT
BRANCH   1   3
ATOM      2  N   UNL     1       1.220   9.287  19.205  0.00  0.00    +0.000 N 
ATOM      3  C   UNL     1       2.019   9.282  18.088  0.00  0.00    +0.000 C 
ATOM      4  O   UNL     1       2.488  10.302  17.590  0.00  0.00    +0.000 OA
ATOM      5  H   UNL     1       0.844   8.400  19.541  0.00  0.00    +0.000 HD
BRANCH   2   6
ATOM      6  C   UNL     1       0.926  10.498  19.974  0.00  0.00    +0.000 C 
BRANCH   6   7
ATOM      7  C   UNL     1       0.095  10.201  21.230  0.00  0.00    +0.000 C 
ATOM      8  O   UNL     1      -0.430   9.115  21.462  0.00  0.00    +0.000 OA
BRANCH   7  10
ATOM      9  C   UNL     1      -1.022  11.196  23.036  0.00  0.00    +0.000 C 
ATOM     10  O   UNL     1       0.005  11.288  22.051  0.00  0.00    +0.000 OA
ENDBRANCH   7  10
ENDBRANCH   6   7
BRANCH   6  11
ATOM     11  C   UNL     1       0.269  11.602  19.123  0.00  0.00    +0.000 C 
BRANCH  11  12
ATOM     12  C   UNL     1      -1.163  11.304  18.731  0.00  0.00    +0.000 A 
ATOM     13  C   UNL     1      -1.464  10.289  17.810  0.00  0.00    +0.000 A 
ATOM     14  C   UNL     1      -2.773  10.109  17.356  0.00  0.00    +0.000 A 
ATOM     15  C   UNL     1      -3.785  10.930  17.843  0.00  0.00    +0.000 A 
ATOM     16  C   UNL     1      -3.517  11.895  18.804  0.00  0.00    +0.000 A 
ATOM     17  C   UNL     1      -2.208  12.084  19.246  0.00  0.00    +0.000 A 
BRANCH  15  18
ATOM     18  O   UNL     1      -5.067  10.825  17.389  0.00  0.00    +0.000 OA
ATOM     19  H   UNL     1      -5.350  11.695  17.063  0.00  0.00    +0.000 HD
ENDBRANCH  15  18
ENDBRANCH  11  12
ENDBRANCH   6  11
ENDBRANCH   2   6
ENDBRANCH   1   3
BRANCH   1  20
ATOM     20  N   UNL     1       3.661   7.505  17.733  0.00  0.00    +0.000 N 
ATOM     21  C   UNL     1       4.053   6.194  17.831  0.00  0.00    +0.000 C 
ATOM     22  O   UNL     1       3.241   5.272  17.840  0.00  0.00    +0.000 OA
ATOM     23  H   UNL     1       4.343   8.226  17.930  0.00  0.00    +0.000 HD
BRANCH  21  24
ATOM     24  C   UNL     1       5.574   5.959  17.993  0.00  0.00    +0.000 C 
ATOM     25  C   UNL     1       5.825   5.076  19.209  0.00  0.00    +0.000 C 
BRANCH  24  26
ATOM     26  N   UNL     1       6.323   7.212  18.110  0.00  0.00    +0.000 N 
ATOM     27  C   UNL     1       7.355   7.492  17.248  0.00  0.00    +0.000 C 
ATOM     28  O   UNL     1       7.713   6.750  16.340  0.00  0.00    +0.000 OA
ATOM     29  H   UNL     1       6.034   7.886  18.804  0.00  0.00    +0.000 HD
BRANCH  27  30
ATOM     30  C   UNL     1       7.992   8.799  17.516  0.00  0.00    +0.000 C 
ATOM     31  C   UNL     1       8.630   9.013  18.678  0.00  0.00    +0.000 C 
BRANCH  31  32
ATOM     32  C   UNL     1       9.258  10.295  19.032  0.00  0.00    +0.000 A 
ATOM     33  C   UNL     1       9.655  11.220  18.053  0.00  0.00    +0.000 A 
ATOM     34  C   UNL     1      10.246  12.431  18.416  0.00  0.00    +0.000 A 
ATOM     35  C   UNL     1      10.423  12.729  19.758  0.00  0.00    +0.000 A 
ATOM     36  F   UNL     1      10.996  13.890  20.105  0.00  0.00    +0.000 F 
ATOM     37  C   UNL     1      10.009  11.846  20.747  0.00  0.00    +0.000 A 
ATOM     38  C   UNL     1       9.421  10.631  20.385  0.00  0.00    +0.000 A 
ENDBRANCH  31  32
ENDBRANCH  27  30
ENDBRANCH  24  26
ENDBRANCH  21  24
ENDBRANCH   1  20
TORSDOF 12
ENDMDL
MODEL 2
REMARK VINA RESULT:      -7.8      4.321      9.846
REMARK  Name = 
REMARK  14 active torsions:
REMARK  status: ('A' for Active; 'I' for Inactive)
REMARK    1  A    between atoms: C_1  and  O_2
REMARK    2  A    between atoms: O_2  and  C_3
REMARK    3  A    between atoms: C_3  and  C_5
REMARK    4  A    between atoms: C_5  and  C_6
REMARK    5  A    between atoms: C_5  and  N_14
REMARK    6  A    between atoms: C_6  and  C_7
REMARK    7  A    between atoms: C_10  and  O_11
REMARK    8  A    between atoms: C_15  and  C_17
REMARK    9  A    between atoms: C_17  and  N_18
REMARK   10  A    between atoms: C_19  and  C_21
REMARK   11  A    between atoms: C_21  and  C_22
REMARK   12  A    between atoms: C_21  and  N_23
REMARK   13  A    between atoms: C_24  and  C_26
REMARK   14  A    between atoms: C_27  and  C_28
REMARK                            x       y       z     vdW  Elec       q    Type
REMARK                         _______ _______ _______ _____ _____    ______ ____
ROOT
ATOM      1  C   UNL     1       3.088   7.933  17.625  0.00  0.00    +0.000 C 
ENDROOT
BRANCH   1   3
ATOM      2  N   UNL     1       4.767   6.360  18.423  0.00  0.00    +0.000 N 
ATOM      3  C   UNL     1       4.230   6.968  17.315  0.00  0.00    +0.000 C 
ATOM      4  O   UNL     1       4.628   6.757  16.172  0.00  0.00    +0.000 OA
ATOM      5  H   UNL     1       4.402   6.610  19.343  0.00  0.00    +0.000 HD
BRANCH   2   6
ATOM      6  C   UNL     1       5.800   5.325  18.347  0.00  0.00    +0.000 C 
BRANCH   6   7
ATOM      7  C   UNL     1       7.048   5.803  17.591  0.00  0.00    +0.000 C 
ATOM      8  O   UNL     1       7.410   5.343  16.511  0.00  0.00    +0.000 OA
BRANCH   7  10
ATOM      9  C   UNL     1       7.789   8.028  17.557  0.00  0.00    +0.000 C 
ATOM     10  O   UNL     1       7.705   6.791  18.264  0.00  0.00    +0.000 OA
ENDBRANCH   7  10
ENDBRANCH   6   7
BRANCH   6  11
ATOM     11  C   UNL     1       5.275   3.997  17.767  0.00  0.00    +0.000 C 
BRANCH  11  12
ATOM     12  C   UNL     1       3.935   3.570  18.327  0.00  0.00    +0.000 A 
ATOM     13  C   UNL     1       2.772   3.633  17.545  0.00  0.00    +0.000 A 
ATOM     14  C   UNL     1       1.523   3.362  18.109  0.00  0.00    +0.000 A 
ATOM     15  C   UNL     1       1.441   3.003  19.450  0.00  0.00    +0.000 A 
ATOM     16  C   UNL     1       2.588   2.870  20.221  0.00  0.00    +0.000 A 
ATOM     17  C   UNL     1       3.833   3.155  19.662  0.00  0.00    +0.000 A 
BRANCH  15  18
ATOM     18  O   UNL     1       0.239   2.781  20.056  0.00  0.00    +0.000 OA
ATOM     19  H   UNL     1      -0.140   1.963  19.697  0.00  0.00    +0.000 HD
ENDBRANCH  15  18
ENDBRANCH  11  12
ENDBRANCH   6  11
ENDBRANCH   2   6
ENDBRANCH   1   3
BRANCH   1  20
ATOM     20  N   UNL     1       2.636   7.759  18.992  0.00  0.00    +0.000 N 
ATOM     21  C   UNL     1       1.760   8.626  19.595  0.00  0.00    +0.000 C 
ATOM     22  O   UNL     1       1.384   9.657  19.044  0.00  0.00    +0.000 OA
ATOM     23  H   UNL     1       3.064   7.038  19.559  0.00  0.00    +0.000 HD
BRANCH  21  24
ATOM     24  C   UNL     1       1.329   8.252  21.033  0.00  0.00    +0.000 C 
ATOM     25  C   UNL     1       1.022   6.761  21.100  0.00  0.00    +0.000 C 
BRANCH  24  26
ATOM     26  N   UNL     1       0.176   9.031  21.491  0.00  0.00    +0.000 N 
ATOM     27  C   UNL     1       0.190   9.643  22.721  0.00  0.00    +0.000 C 
ATOM     28  O   UNL     1       1.136   9.597  23.500  0.00  0.00    +0.000 OA
ATOM     29  H   UNL     1      -0.608   9.149  20.865  0.00  0.00    +0.000 HD
BRANCH  27  30
ATOM     30  C   UNL     1      -1.056  10.384  23.011  0.00  0.00    +0.000 C 
ATOM     31  C   UNL     1      -1.329  11.526  22.360  0.00  0.00    +0.000 C 
BRANCH  31  32
ATOM     32  C   UNL     1      -2.529  12.337  22.617  0.00  0.00    +0.000 A 
ATOM     33  C   UNL     1      -3.026  13.243  21.667  0.00  0.00    +0.000 A 
ATOM     34  C   UNL     1      -4.168  13.999  21.934  0.00  0.00    +0.000 A 
ATOM     35  C   UNL     1      -4.828  13.835  23.143  0.00  0.00    +0.000 A 
ATOM     36  F   UNL     1      -5.921  14.566  23.400  0.00  0.00    +0.000 F 
ATOM     37  C   UNL     1      -4.376  12.922  24.086  0.00  0.00    +0.000 A 
ATOM     38  C   UNL     1      -3.229  12.168  23.822  0.00  0.00    +0.000 A 
ENDBRANCH  31  32
ENDBRANCH  27  30
ENDBRANCH  24  26
ENDBRANCH  21  24
ENDBRANCH   1  20
TORSDOF 12
ENDMDL
MODEL 3
REMARK VINA RESULT:      -7.7      1.835      2.847
REMARK  Name = 
REMARK  14 active torsions:
REMARK  status: ('A' for Active; 'I' for Inactive)
REMARK    1  A    between atoms: C_1  and  O_2
REMARK    2  A    between atoms: O_2  and  C_3
REMARK    3  A    between atoms: C_3  and  C_5
REMARK    4  A    between atoms: C_5  and  C_6
REMARK    5  A    between atoms: C_5  and  N_14
REMARK    6  A    between atoms: C_6  and  C_7
REMARK    7  A    between atoms: C_10  and  O_11
REMARK    8  A    between atoms: C_15  and  C_17
REMARK    9  A    between atoms: C_17  and  N_18
REMARK   10  A    between atoms: C_19  and  C_21
REMARK   11  A    between atoms: C_21  and  C_22
REMARK   12  A    between atoms: C_21  and  N_23
REMARK   13  A    between atoms: C_24  and  C_26
REMARK   14  A    between atoms: C_27  and  C_28
REMARK                            x       y       z     vdW  Elec       q    Type
REMARK                         _______ _______ _______ _____ _____    ______ ____
ROOT
ATOM      1  C   UNL     1       2.066   7.426  18.151  0.00  0.00    +0.000 C 
ENDROOT
BRANCH   1   3
ATOM      2  N   UNL     1       1.237   9.299  19.468  0.00  0.00    +0.000 N 
ATOM      3  C   UNL     1       1.853   8.931  18.297  0.00  0.00    +0.000 C 
ATOM      4  O   UNL     1       2.206   9.736  17.440  0.00  0.00    +0.000 OA
ATOM      5  H   UNL     1       0.945   8.567  20.118  0.00  0.00    +0.000 HD
BRANCH   2   6
ATOM      6  C   UNL     1       1.026  10.694  19.858  0.00  0.00    +0.000 C 
BRANCH   6   7
ATOM      7  C   UNL     1       0.317  10.818  21.214  0.00  0.00    +0.000 C 
ATOM      8  O   UNL     1       0.350  11.828  21.913  0.00  0.00    +0.000 OA
BRANCH   7  10
ATOM      9  C   UNL     1      -0.317   9.365  22.943  0.00  0.00    +0.000 C 
ATOM     10  O   UNL     1      -0.345   9.673  21.550  0.00  0.00    +0.000 OA
ENDBRANCH   7  10
ENDBRANCH   6   7
BRANCH   6  11
ATOM     11  C   UNL     1       0.298  11.514  18.776  0.00  0.00    +0.000 C 
BRANCH  11  12
ATOM     12  C   UNL     1       0.793  12.939  18.649  0.00  0.00    +0.000 A 
ATOM     13  C   UNL     1       2.117  13.215  18.276  0.00  0.00    +0.000 A 
ATOM     14  C   UNL     1       2.600  14.525  18.289  0.00  0.00    +0.000 A 
ATOM     15  C   UNL     1       1.749  15.564  18.653  0.00  0.00    +0.000 A 
ATOM     16  C   UNL     1       0.418  15.318  18.960  0.00  0.00    +0.000 A 
ATOM     17  C   UNL     1      -0.060  14.008  18.961  0.00  0.00    +0.000 A 
BRANCH  15  18
ATOM     18  O   UNL     1       2.191  16.852  18.731  0.00  0.00    +0.000 OA
ATOM     19  H   UNL     1       2.945  16.883  19.342  0.00  0.00    +0.000 HD
ENDBRANCH  15  18
ENDBRANCH  11  12
ENDBRANCH   6  11
ENDBRANCH   2   6
ENDBRANCH   1   3
BRANCH   1  20
ATOM     20  N   UNL     1       3.478   7.104  18.242  0.00  0.00    +0.000 N 
ATOM     21  C   UNL     1       3.988   5.900  17.825  0.00  0.00    +0.000 C 
ATOM     22  O   UNL     1       3.263   4.985  17.442  0.00  0.00    +0.000 OA
ATOM     23  H   UNL     1       4.092   7.742  18.730  0.00  0.00    +0.000 HD
BRANCH  21  24
ATOM     24  C   UNL     1       5.524   5.751  17.929  0.00  0.00    +0.000 C 
ATOM     25  C   UNL     1       5.870   4.879  19.130  0.00  0.00    +0.000 C 
BRANCH  24  26
ATOM     26  N   UNL     1       6.206   7.043  18.025  0.00  0.00    +0.000 N 
ATOM     27  C   UNL     1       7.297   7.318  17.237  0.00  0.00    +0.000 C 
ATOM     28  O   UNL     1       7.765   6.538  16.415  0.00  0.00    +0.000 OA
ATOM     29  H   UNL     1       5.828   7.745  18.645  0.00  0.00    +0.000 HD
BRANCH  27  30
ATOM     30  C   UNL     1       7.852   8.669  17.470  0.00  0.00    +0.000 C 
ATOM     31  C   UNL     1       8.527   8.935  18.600  0.00  0.00    +0.000 C 
BRANCH  31  32
ATOM     32  C   UNL     1       9.078  10.261  18.919  0.00  0.00    +0.000 A 
ATOM     33  C   UNL     1       9.162  11.279  17.956  0.00  0.00    +0.000 A 
ATOM     34  C   UNL     1       9.687  12.529  18.286  0.00  0.00    +0.000 A 
ATOM     35  C   UNL     1      10.109  12.772  19.584  0.00  0.00    +0.000 A 
ATOM     36  F   UNL     1      10.618  13.971  19.898  0.00  0.00    +0.000 F 
ATOM     37  C   UNL     1      10.006  11.793  20.564  0.00  0.00    +0.000 A 
ATOM     38  C   UNL     1       9.485  10.538  20.234  0.00  0.00    +0.000 A 
ENDBRANCH  31  32
ENDBRANCH  27  30
ENDBRANCH  24  26
ENDBRANCH  21  24
ENDBRANCH   1  20
TORSDOF 12
ENDMDL
MODEL 4
REMARK VINA RESULT:      -7.6      3.697      8.970
REMARK  Name = 
REMARK  14 active torsions:
REMARK  status: ('A' for Active; 'I' for Inactive)
REMARK    1  A    between atoms: C_1  and  O_2
REMARK    2  A    between atoms: O_2  and  C_3
REMARK    3  A    between atoms: C_3  and  C_5
REMARK    4  A    between atoms: C_5  and  C_6
REMARK    5  A    between atoms: C_5  and  N_14
REMARK    6  A    between atoms: C_6  and  C_7
REMARK    7  A    between atoms: C_10  and  O_11
REMARK    8  A    between atoms: C_15  and  C_17
REMARK    9  A    between atoms: C_17  and  N_18
REMARK   10  A    between atoms: C_19  and  C_21
REMARK   11  A    between atoms: C_21  and  C_22
REMARK   12  A    between atoms: C_21  and  N_23
REMARK   13  A    between atoms: C_24  and  C_26
REMARK   14  A    between atoms: C_27  and  C_28
REMARK                            x       y       z     vdW  Elec       q    Type
REMARK                         _______ _______ _______ _____ _____    ______ ____
ROOT
ATOM      1  C   UNL     1       8.372   7.818  18.391  0.00  0.00    +0.000 C 
ENDROOT
BRANCH   1   3
ATOM      2  N   UNL     1       9.278   9.844  19.393  0.00  0.00    +0.000 N 
ATOM      3  C   UNL     1       8.465   9.343  18.408  0.00  0.00    +0.000 C 
ATOM      4  O   UNL     1       7.862  10.052  17.606  0.00  0.00    +0.000 OA
ATOM      5  H   UNL     1       9.721   9.191  20.041  0.00  0.00    +0.000 HD
BRANCH   2   6
ATOM      6  C   UNL     1       9.590  11.268  19.527  0.00  0.00    +0.000 C 
BRANCH   6   7
ATOM      7  C   UNL     1      10.706  11.712  18.571  0.00  0.00    +0.000 C 
ATOM      8  O   UNL     1      11.885  11.392  18.701  0.00  0.00    +0.000 OA
BRANCH   7  10
ATOM      9  C   UNL     1      11.244  13.192  16.833  0.00  0.00    +0.000 C 
ATOM     10  O   UNL     1      10.231  12.507  17.568  0.00  0.00    +0.000 OA
ENDBRANCH   7  10
ENDBRANCH   6   7
BRANCH   6  11
ATOM     11  C   UNL     1       9.910  11.676  20.979  0.00  0.00    +0.000 C 
BRANCH  11  12
ATOM     12  C   UNL     1       8.725  12.243  21.732  0.00  0.00    +0.000 A 
ATOM     13  C   UNL     1       8.113  11.519  22.766  0.00  0.00    +0.000 A 
ATOM     14  C   UNL     1       6.943  11.991  23.366  0.00  0.00    +0.000 A 
ATOM     15  C   UNL     1       6.400  13.201  22.947  0.00  0.00    +0.000 A 
ATOM     16  C   UNL     1       7.030  13.964  21.973  0.00  0.00    +0.000 A 
ATOM     17  C   UNL     1       8.189  13.485  21.364  0.00  0.00    +0.000 A 
BRANCH  15  18
ATOM     18  O   UNL     1       5.231  13.676  23.467  0.00  0.00    +0.000 OA
ATOM     19  H   UNL     1       5.055  13.211  24.301  0.00  0.00    +0.000 HD
ENDBRANCH  15  18
ENDBRANCH  11  12
ENDBRANCH   6  11
ENDBRANCH   2   6
ENDBRANCH   1   3
BRANCH   1  20
ATOM     20  N   UNL     1       7.054   7.396  17.960  0.00  0.00    +0.000 N 
ATOM     21  C   UNL     1       6.861   6.545  16.901  0.00  0.00    +0.000 C 
ATOM     22  O   UNL     1       7.791   6.170  16.192  0.00  0.00    +0.000 OA
ATOM     23  H   UNL     1       6.242   7.828  18.383  0.00  0.00    +0.000 HD
BRANCH  21  24
ATOM     24  C   UNL     1       5.393   6.143  16.623  0.00  0.00    +0.000 C 
ATOM     25  C   UNL     1       5.066   6.396  15.156  0.00  0.00    +0.000 C 
BRANCH  24  26
ATOM     26  N   UNL     1       4.446   6.852  17.486  0.00  0.00    +0.000 N 
ATOM     27  C   UNL     1       3.337   6.210  17.982  0.00  0.00    +0.000 C 
ATOM     28  O   UNL     1       3.065   5.036  17.758  0.00  0.00    +0.000 OA
ATOM     29  H   UNL     1       4.651   7.805  17.749  0.00  0.00    +0.000 HD
BRANCH  27  30
ATOM     30  C   UNL     1       2.499   7.082  18.833  0.00  0.00    +0.000 C 
ATOM     31  C   UNL     1       2.109   8.288  18.387  0.00  0.00    +0.000 C 
BRANCH  31  32
ATOM     32  C   UNL     1       1.306   9.225  19.187  0.00  0.00    +0.000 A 
ATOM     33  C   UNL     1       1.008   8.979  20.537  0.00  0.00    +0.000 A 
ATOM     34  C   UNL     1       0.245   9.886  21.274  0.00  0.00    +0.000 A 
ATOM     35  C   UNL     1      -0.203  11.050  20.669  0.00  0.00    +0.000 A 
ATOM     36  F   UNL     1      -0.941  11.917  21.377  0.00  0.00    +0.000 F 
ATOM     37  C   UNL     1       0.104  11.333  19.345  0.00  0.00    +0.000 A 
ATOM     38  C   UNL     1       0.864  10.423  18.604  0.00  0.00    +0.000 A 
ENDBRANCH  31  32
ENDBRANCH  27  30
ENDBRANCH  24  26
ENDBRANCH  21  24
ENDBRANCH   1  20
TORSDOF 12
ENDMDL
MODEL 5
REMARK VINA RESULT:      -7.6      5.021     10.138
REMARK  Name = 
REMARK  14 active torsions:
REMARK  status: ('A' for Active; 'I' for Inactive)
REMARK    1  A    between atoms: C_1  and  O_2
REMARK    2  A    between atoms: O_2  and  C_3
REMARK    3  A    between atoms: C_3  and  C_5
REMARK    4  A    between atoms: C_5  and  C_6
REMARK    5  A    between atoms: C_5  and  N_14
REMARK    6  A    between atoms: C_6  and  C_7
REMARK    7  A    between atoms: C_10  and  O_11
REMARK    8  A    between atoms: C_15  and  C_17
REMARK    9  A    between atoms: C_17  and  N_18
REMARK   10  A    between atoms: C_19  and  C_21
REMARK   11  A    between atoms: C_21  and  C_22
REMARK   12  A    between atoms: C_21  and  N_23
REMARK   13  A    between atoms: C_24  and  C_26
REMARK   14  A    between atoms: C_27  and  C_28
REMARK                            x       y       z     vdW  Elec       q    Type
REMARK                         _______ _______ _______ _____ _____    ______ ____
ROOT
ATOM      1  C   UNL     1       1.056   7.388  21.578  0.00  0.00    +0.000 C 
ENDROOT
BRANCH   1   3
ATOM      2  N   UNL     1       2.380   5.864  20.217  0.00  0.00    +0.000 N 
ATOM      3  C   UNL     1       1.871   7.135  20.311  0.00  0.00    +0.000 C 
ATOM      4  O   UNL     1       2.049   7.998  19.455  0.00  0.00    +0.000 OA
ATOM      5  H   UNL     1       2.213   5.212  20.985  0.00  0.00    +0.000 HD
BRANCH   2   6
ATOM      6  C   UNL     1       3.103   5.375  19.041  0.00  0.00    +0.000 C 
BRANCH   6   7
ATOM      7  C   UNL     1       2.725   3.931  18.684  0.00  0.00    +0.000 C 
ATOM      8  O   UNL     1       3.126   3.348  17.680  0.00  0.00    +0.000 OA
BRANCH   7  10
ATOM      9  C   UNL     1       0.813   2.625  19.055  0.00  0.00    +0.000 C 
ATOM     10  O   UNL     1       1.889   3.379  19.611  0.00  0.00    +0.000 OA
ENDBRANCH   7  10
ENDBRANCH   6   7
BRANCH   6  11
ATOM     11  C   UNL     1       4.630   5.532  19.171  0.00  0.00    +0.000 C 
BRANCH  11  12
ATOM     12  C   UNL     1       5.364   5.514  17.847  0.00  0.00    +0.000 A 
ATOM     13  C   UNL     1       4.899   6.258  16.753  0.00  0.00    +0.000 A 
ATOM     14  C   UNL     1       5.506   6.133  15.500  0.00  0.00    +0.000 A 
ATOM     15  C   UNL     1       6.595   5.280  15.351  0.00  0.00    +0.000 A 
ATOM     16  C   UNL     1       7.111   4.588  16.437  0.00  0.00    +0.000 A 
ATOM     17  C   UNL     1       6.495   4.702  17.684  0.00  0.00    +0.000 A 
BRANCH  15  18
ATOM     18  O   UNL     1       7.186   5.086  14.136  0.00  0.00    +0.000 OA
ATOM     19  H   UNL     1       6.505   5.160  13.448  0.00  0.00    +0.000 HD
ENDBRANCH  15  18
ENDBRANCH  11  12
ENDBRANCH   6  11
ENDBRANCH   2   6
ENDBRANCH   1   3
BRANCH   1  20
ATOM     20  N   UNL     1       0.352   8.652  21.483  0.00  0.00    +0.000 N 
ATOM     21  C   UNL     1       0.517   9.659  22.401  0.00  0.00    +0.000 C 
ATOM     22  O   UNL     1       1.196   9.510  23.413  0.00  0.00    +0.000 OA
ATOM     23  H   UNL     1      -0.368   8.757  20.780  0.00  0.00    +0.000 HD
BRANCH  21  24
ATOM     24  C   UNL     1      -0.258  10.966  22.108  0.00  0.00    +0.000 C 
ATOM     25  C   UNL     1      -1.375  11.135  23.131  0.00  0.00    +0.000 C 
BRANCH  24  26
ATOM     26  N   UNL     1      -0.802  11.001  20.749  0.00  0.00    +0.000 N 
ATOM     27  C   UNL     1      -0.399  11.967  19.859  0.00  0.00    +0.000 C 
ATOM     28  O   UNL     1       0.423  12.839  20.117  0.00  0.00    +0.000 OA
ATOM     29  H   UNL     1      -1.441  10.272  20.465  0.00  0.00    +0.000 HD
BRANCH  27  30
ATOM     30  C   UNL     1      -1.053  11.843  18.538  0.00  0.00    +0.000 C 
ATOM     31  C   UNL     1      -1.898  10.828  18.296  0.00  0.00    +0.000 C 
BRANCH  31  32
ATOM     32  C   UNL     1      -2.559  10.618  17.000  0.00  0.00    +0.000 A 
ATOM     33  C   UNL     1      -2.053   9.717  16.049  0.00  0.00    +0.000 A 
ATOM     34  C   UNL     1      -2.701   9.533  14.827  0.00  0.00    +0.000 A 
ATOM     35  C   UNL     1      -3.868  10.234  14.561  0.00  0.00    +0.000 A 
ATOM     36  F   UNL     1      -4.486  10.061  13.384  0.00  0.00    +0.000 F 
ATOM     37  C   UNL     1      -4.407  11.107  15.497  0.00  0.00    +0.000 A 
ATOM     38  C   UNL     1      -3.757  11.295  16.720  0.00  0.00    +0.000 A 
ENDBRANCH  31  32
ENDBRANCH  27  30
ENDBRANCH  24  26
ENDBRANCH  21  24
ENDBRANCH   1  20
TORSDOF 12
ENDMDL
MODEL 6
REMARK VINA RESULT:      -7.4      3.376      8.089
REMARK  Name = 
REMARK  14 active torsions:
REMARK  status: ('A' for Active; 'I' for Inactive)
REMARK    1  A    between atoms: C_1  and  O_2
REMARK    2  A    between atoms: O_2  and  C_3
REMARK    3  A    between atoms: C_3  and  C_5
REMARK    4  A    between atoms: C_5  and  C_6
REMARK    5  A    between atoms: C_5  and  N_14
REMARK    6  A    between atoms: C_6  and  C_7
REMARK    7  A    between atoms: C_10  and  O_11
REMARK    8  A    between atoms: C_15  and  C_17
REMARK    9  A    between atoms: C_17  and  N_18
REMARK   10  A    between atoms: C_19  and  C_21
REMARK   11  A    between atoms: C_21  and  C_22
REMARK   12  A    between atoms: C_21  and  N_23
REMARK   13  A    between atoms: C_24  and  C_26
REMARK   14  A    between atoms: C_27  and  C_28
REMARK                            x       y       z     vdW  Elec       q    Type
REMARK                         _______ _______ _______ _____ _____    ______ ____
ROOT
ATOM      1  C   UNL     1       1.519   8.179  20.707  0.00  0.00    +0.000 C 
ENDROOT
BRANCH   1   3
ATOM      2  N   UNL     1       2.571   6.061  20.124  0.00  0.00    +0.000 N 
ATOM      3  C   UNL     1       2.227   7.310  19.669  0.00  0.00    +0.000 C 
ATOM      4  O   UNL     1       2.463   7.700  18.529  0.00  0.00    +0.000 OA
ATOM      5  H   UNL     1       2.368   5.822  21.096  0.00  0.00    +0.000 HD
BRANCH   2   6
ATOM      6  C   UNL     1       3.165   5.032  19.269  0.00  0.00    +0.000 C 
BRANCH   6   7
ATOM      7  C   UNL     1       2.507   3.660  19.469  0.00  0.00    +0.000 C 
ATOM      8  O   UNL     1       1.300   3.496  19.628  0.00  0.00    +0.000 OA
BRANCH   7  10
ATOM      9  C   UNL     1       3.325   1.784  18.322  0.00  0.00    +0.000 C 
ATOM     10  O   UNL     1       3.424   2.648  19.453  0.00  0.00    +0.000 OA
ENDBRANCH   7  10
ENDBRANCH   6   7
BRANCH   6  11
ATOM     11  C   UNL     1       4.696   4.940  19.420  0.00  0.00    +0.000 C 
BRANCH  11  12
ATOM     12  C   UNL     1       5.443   4.936  18.103  0.00  0.00    +0.000 A 
ATOM     13  C   UNL     1       6.783   4.529  18.033  0.00  0.00    +0.000 A 
ATOM     14  C   UNL     1       7.502   4.653  16.841  0.00  0.00    +0.000 A 
ATOM     15  C   UNL     1       6.869   5.161  15.712  0.00  0.00    +0.000 A 
ATOM     16  C   UNL     1       5.525   5.506  15.744  0.00  0.00    +0.000 A 
ATOM     17  C   UNL     1       4.813   5.396  16.938  0.00  0.00    +0.000 A 
BRANCH  15  18
ATOM     18  O   UNL     1       7.545   5.349  14.541  0.00  0.00    +0.000 OA
ATOM     19  H   UNL     1       7.993   4.521  14.309  0.00  0.00    +0.000 HD
ENDBRANCH  15  18
ENDBRANCH  11  12
ENDBRANCH   6  11
ENDBRANCH   2   6
ENDBRANCH   1   3
BRANCH   1  20
ATOM     20  N   UNL     1       1.231   9.490  20.157  0.00  0.00    +0.000 N 
ATOM     21  C   UNL     1       0.233  10.293  20.650  0.00  0.00    +0.000 C 
ATOM     22  O   UNL     1      -0.541   9.906  21.522  0.00  0.00    +0.000 OA
ATOM     23  H   UNL     1       1.706   9.778  19.312  0.00  0.00    +0.000 HD
BRANCH  21  24
ATOM     24  C   UNL     1       0.109  11.687  19.992  0.00  0.00    +0.000 C 
ATOM     25  C   UNL     1      -0.562  11.550  18.631  0.00  0.00    +0.000 C 
BRANCH  24  26
ATOM     26  N   UNL     1       1.404  12.359  19.857  0.00  0.00    +0.000 N 
ATOM     27  C   UNL     1       1.801  13.303  20.771  0.00  0.00    +0.000 C 
ATOM     28  O   UNL     1       1.134  13.642  21.743  0.00  0.00    +0.000 OA
ATOM     29  H   UNL     1       2.018  12.077  19.105  0.00  0.00    +0.000 HD
BRANCH  27  30
ATOM     30  C   UNL     1       3.134  13.870  20.473  0.00  0.00    +0.000 C 
ATOM     31  C   UNL     1       3.288  14.732  19.455  0.00  0.00    +0.000 C 
BRANCH  31  32
ATOM     32  C   UNL     1       4.585  15.312  19.075  0.00  0.00    +0.000 A 
ATOM     33  C   UNL     1       5.498  14.615  18.267  0.00  0.00    +0.000 A 
ATOM     34  C   UNL     1       6.722  15.188  17.919  0.00  0.00    +0.000 A 
ATOM     35  C   UNL     1       7.027  16.468  18.359  0.00  0.00    +0.000 A 
ATOM     36  F   UNL     1       8.204  17.014  18.028  0.00  0.00    +0.000 F 
ATOM     37  C   UNL     1       6.128  17.191  19.132  0.00  0.00    +0.000 A 
ATOM     38  C   UNL     1       4.904  16.616  19.486  0.00  0.00    +0.000 A 
ENDBRANCH  31  32
ENDBRANCH  27  30
ENDBRANCH  24  26
ENDBRANCH  21  24
ENDBRANCH   1  20
TORSDOF 12
ENDMDL
MODEL 7
REMARK VINA RESULT:      -7.4      5.169      7.573
REMARK  Name = 
REMARK  14 active torsions:
REMARK  status: ('A' for Active; 'I' for Inactive)
REMARK    1  A    between atoms: C_1  and  O_2
REMARK    2  A    between atoms: O_2  and  C_3
REMARK    3  A    between atoms: C_3  and  C_5
REMARK    4  A    between atoms: C_5  and  C_6
REMARK    5  A    between atoms: C_5  and  N_14
REMARK    6  A    between atoms: C_6  and  C_7
REMARK    7  A    between atoms: C_10  and  O_11
REMARK    8  A    between atoms: C_15  and  C_17
REMARK    9  A    between atoms: C_17  and  N_18
REMARK   10  A    between atoms: C_19  and  C_21
REMARK   11  A    between atoms: C_21  and  C_22
REMARK   12  A    between atoms: C_21  and  N_23
REMARK   13  A    between atoms: C_24  and  C_26
REMARK   14  A    between atoms: C_27  and  C_28
REMARK                            x       y       z     vdW  Elec       q    Type
REMARK                         _______ _______ _______ _____ _____    ______ ____
ROOT
ATOM      1  C   UNL     1      -0.951  12.111  22.294  0.00  0.00    +0.000 C 
ENDROOT
BRANCH   1   3
ATOM      2  N   UNL     1      -3.307  12.695  22.483  0.00  0.00    +0.000 N 
ATOM      3  C   UNL     1      -2.061  13.147  22.129  0.00  0.00    +0.000 C 
ATOM      4  O   UNL     1      -1.848  14.285  21.716  0.00  0.00    +0.000 OA
ATOM      5  H   UNL     1      -3.407  11.726  22.789  0.00  0.00    +0.000 HD
BRANCH   2   6
ATOM      6  C   UNL     1      -4.495  13.551  22.499  0.00  0.00    +0.000 C 
BRANCH   6   7
ATOM      7  C   UNL     1      -4.573  14.414  23.766  0.00  0.00    +0.000 C 
ATOM      8  O   UNL     1      -5.259  15.429  23.861  0.00  0.00    +0.000 OA
BRANCH   7  10
ATOM      9  C   UNL     1      -2.931  14.892  25.372  0.00  0.00    +0.000 C 
ATOM     10  O   UNL     1      -3.787  13.923  24.767  0.00  0.00    +0.000 OA
ENDBRANCH   7  10
ENDBRANCH   6   7
BRANCH   6  11
ATOM     11  C   UNL     1      -5.802  12.763  22.286  0.00  0.00    +0.000 C 
BRANCH  11  12
ATOM     12  C   UNL     1      -6.216  12.642  20.834  0.00  0.00    +0.000 A 
ATOM     13  C   UNL     1      -6.524  11.395  20.271  0.00  0.00    +0.000 A 
ATOM     14  C   UNL     1      -6.776  11.277  18.902  0.00  0.00    +0.000 A 
ATOM     15  C   UNL     1      -6.745  12.414  18.101  0.00  0.00    +0.000 A 
ATOM     16  C   UNL     1      -6.509  13.665  18.652  0.00  0.00    +0.000 A 
ATOM     17  C   UNL     1      -6.243  13.780  20.016  0.00  0.00    +0.000 A 
BRANCH  15  18
ATOM     18  O   UNL     1      -6.933  12.339  16.752  0.00  0.00    +0.000 OA
ATOM     19  H   UNL     1      -7.872  12.159  16.582  0.00  0.00    +0.000 HD
ENDBRANCH  15  18
ENDBRANCH  11  12
ENDBRANCH   6  11
ENDBRANCH   2   6
ENDBRANCH   1   3
BRANCH   1  20
ATOM     20  N   UNL     1      -0.567  11.570  21.005  0.00  0.00    +0.000 N 
ATOM     21  C   UNL     1       0.503  10.726  20.849  0.00  0.00    +0.000 C 
ATOM     22  O   UNL     1       1.260  10.457  21.778  0.00  0.00    +0.000 OA
ATOM     23  H   UNL     1      -1.034  11.912  20.175  0.00  0.00    +0.000 HD
BRANCH  21  24
ATOM     24  C   UNL     1       0.729  10.187  19.416  0.00  0.00    +0.000 C 
ATOM     25  C   UNL     1      -0.607  10.110  18.686  0.00  0.00    +0.000 C 
BRANCH  24  26
ATOM     26  N   UNL     1       1.390   8.880  19.408  0.00  0.00    +0.000 N 
ATOM     27  C   UNL     1       2.131   8.479  18.323  0.00  0.00    +0.000 C 
ATOM     28  O   UNL     1       2.301   9.158  17.317  0.00  0.00    +0.000 OA
ATOM     29  H   UNL     1       1.331   8.303  20.235  0.00  0.00    +0.000 HD
BRANCH  27  30
ATOM     30  C   UNL     1       2.724   7.134  18.495  0.00  0.00    +0.000 C 
ATOM     31  C   UNL     1       2.099   6.053  18.001  0.00  0.00    +0.000 C 
BRANCH  31  32
ATOM     32  C   UNL     1       2.606   4.682  18.161  0.00  0.00    +0.000 A 
ATOM     33  C   UNL     1       3.736   4.398  18.944  0.00  0.00    +0.000 A 
ATOM     34  C   UNL     1       4.196   3.088  19.082  0.00  0.00    +0.000 A 
ATOM     35  C   UNL     1       3.514   2.056  18.455  0.00  0.00    +0.000 A 
ATOM     36  F   UNL     1       3.960   0.799  18.583  0.00  0.00    +0.000 F 
ATOM     37  C   UNL     1       2.375   2.306  17.701  0.00  0.00    +0.000 A 
ATOM     38  C   UNL     1       1.916   3.619  17.559  0.00  0.00    +0.000 A 
ENDBRANCH  31  32
ENDBRANCH  27  30
ENDBRANCH  24  26
ENDBRANCH  21  24
ENDBRANCH   1  20
TORSDOF 12
ENDMDL
MODEL 8
REMARK VINA RESULT:      -7.3      3.597      7.715
REMARK  Name = 
REMARK  14 active torsions:
REMARK  status: ('A' for Active; 'I' for Inactive)
REMARK    1  A    between atoms: C_1  and  O_2
REMARK    2  A    between atoms: O_2  and  C_3
REMARK    3  A    between atoms: C_3  and  C_5
REMARK    4  A    between atoms: C_5  and  C_6
REMARK    5  A    between atoms: C_5  and  N_14
REMARK    6  A    between atoms: C_6  and  C_7
REMARK    7  A    between atoms: C_10  and  O_11
REMARK    8  A    between atoms: C_15  and  C_17
REMARK    9  A    between atoms: C_17  and  N_18
REMARK   10  A    between atoms: C_19  and  C_21
REMARK   11  A    between atoms: C_21  and  C_22
REMARK   12  A    between atoms: C_21  and  N_23
REMARK   13  A    between atoms: C_24  and  C_26
REMARK   14  A    between atoms: C_27  and  C_28
REMARK                            x       y       z     vdW  Elec       q    Type
REMARK                         _______ _______ _______ _____ _____    ______ ____
ROOT
ATOM      1  C   UNL     1       1.754   8.964  17.798  0.00  0.00    +0.000 C 
ENDROOT
BRANCH   1   3
ATOM      2  N   UNL     1       3.271   7.081  17.513  0.00  0.00    +0.000 N 
ATOM      3  C   UNL     1       2.451   7.742  18.393  0.00  0.00    +0.000 C 
ATOM      4  O   UNL     1       2.288   7.389  19.558  0.00  0.00    +0.000 OA
ATOM      5  H   UNL     1       3.330   7.419  16.551  0.00  0.00    +0.000 HD
BRANCH   2   6
ATOM      6  C   UNL     1       4.112   5.947  17.899  0.00  0.00    +0.000 C 
BRANCH   6   7
ATOM      7  C   UNL     1       5.522   6.037  17.298  0.00  0.00    +0.000 C 
ATOM      8  O   UNL     1       5.863   6.887  16.480  0.00  0.00    +0.000 OA
BRANCH   7  10
ATOM      9  C   UNL     1       7.297   4.577  16.829  0.00  0.00    +0.000 C 
ATOM     10  O   UNL     1       6.343   5.057  17.776  0.00  0.00    +0.000 OA
ENDBRANCH   7  10
ENDBRANCH   6   7
BRANCH   6  11
ATOM     11  C   UNL     1       3.462   4.586  17.586  0.00  0.00    +0.000 C 
BRANCH  11  12
ATOM     12  C   UNL     1       2.840   3.911  18.789  0.00  0.00    +0.000 A 
ATOM     13  C   UNL     1       1.461   3.995  19.034  0.00  0.00    +0.000 A 
ATOM     14  C   UNL     1       0.916   3.482  20.213  0.00  0.00    +0.000 A 
ATOM     15  C   UNL     1       1.750   2.861  21.138  0.00  0.00    +0.000 A 
ATOM     16  C   UNL     1       3.106   2.708  20.882  0.00  0.00    +0.000 A 
ATOM     17  C   UNL     1       3.651   3.234  19.711  0.00  0.00    +0.000 A 
BRANCH  15  18
ATOM     18  O   UNL     1       1.272   2.392  22.326  0.00  0.00    +0.000 OA
ATOM     19  H   UNL     1       1.488   3.035  23.020  0.00  0.00    +0.000 HD
ENDBRANCH  15  18
ENDBRANCH  11  12
ENDBRANCH   6  11
ENDBRANCH   2   6
ENDBRANCH   1   3
BRANCH   1  20
ATOM     20  N   UNL     1       1.564   9.982  18.813  0.00  0.00    +0.000 N 
ATOM     21  C   UNL     1       0.338  10.539  19.078  0.00  0.00    +0.000 C 
ATOM     22  O   UNL     1      -0.654  10.280  18.402  0.00  0.00    +0.000 OA
ATOM     23  H   UNL     1       2.378  10.377  19.266  0.00  0.00    +0.000 HD
BRANCH  21  24
ATOM     24  C   UNL     1       0.303  11.560  20.240  0.00  0.00    +0.000 C 
ATOM     25  C   UNL     1      -1.058  12.246  20.274  0.00  0.00    +0.000 C 
BRANCH  24  26
ATOM     26  N   UNL     1       1.373  12.555  20.142  0.00  0.00    +0.000 N 
ATOM     27  C   UNL     1       1.407  13.445  19.096  0.00  0.00    +0.000 C 
ATOM     28  O   UNL     1       0.572  13.483  18.200  0.00  0.00    +0.000 OA
ATOM     29  H   UNL     1       2.056  12.605  20.885  0.00  0.00    +0.000 HD
BRANCH  27  30
ATOM     30  C   UNL     1       2.556  14.373  19.165  0.00  0.00    +0.000 C 
ATOM     31  C   UNL     1       3.617  14.193  18.362  0.00  0.00    +0.000 C 
BRANCH  31  32
ATOM     32  C   UNL     1       4.812  15.051  18.394  0.00  0.00    +0.000 A 
ATOM     33  C   UNL     1       4.784  16.336  18.960  0.00  0.00    +0.000 A 
ATOM     34  C   UNL     1       5.932  17.129  18.981  0.00  0.00    +0.000 A 
ATOM     35  C   UNL     1       7.115  16.632  18.456  0.00  0.00    +0.000 A 
ATOM     36  F   UNL     1       8.215  17.397  18.471  0.00  0.00    +0.000 F 
ATOM     37  C   UNL     1       7.177  15.352  17.920  0.00  0.00    +0.000 A 
ATOM     38  C   UNL     1       6.027  14.558  17.894  0.00  0.00    +0.000 A 
ENDBRANCH  31  32
ENDBRANCH  27  30
ENDBRANCH  24  26
ENDBRANCH  21  24
ENDBRANCH   1  20
TORSDOF 12
ENDMDL
MODEL 9
REMARK VINA RESULT:      -7.3      3.267      7.754
REMARK  Name = 
REMARK  14 active torsions:
REMARK  status: ('A' for Active; 'I' for Inactive)
REMARK    1  A    between atoms: C_1  and  O_2
REMARK    2  A    between atoms: O_2  and  C_3
REMARK    3  A    between atoms: C_3  and  C_5
REMARK    4  A    between atoms: C_5  and  C_6
REMARK    5  A    between atoms: C_5  and  N_14
REMARK    6  A    between atoms: C_6  and  C_7
REMARK    7  A    between atoms: C_10  and  O_11
REMARK    8  A    between atoms: C_15  and  C_17
REMARK    9  A    between atoms: C_17  and  N_18
REMARK   10  A    between atoms: C_19  and  C_21
REMARK   11  A    between atoms: C_21  and  C_22
REMARK   12  A    between atoms: C_21  and  N_23
REMARK   13  A    between atoms: C_24  and  C_26
REMARK   14  A    between atoms: C_27  and  C_28
REMARK                            x       y       z     vdW  Elec       q    Type
REMARK                         _______ _______ _______ _____ _____    ______ ____
ROOT
ATOM      1  C   UNL     1       1.204   8.779  20.504  0.00  0.00    +0.000 C 
ENDROOT
BRANCH   1   3
ATOM      2  N   UNL     1       2.322   6.645  20.152  0.00  0.00    +0.000 N 
ATOM      3  C   UNL     1       1.967   7.838  19.574  0.00  0.00    +0.000 C 
ATOM      4  O   UNL     1       2.233   8.129  18.411  0.00  0.00    +0.000 OA
ATOM      5  H   UNL     1       2.091   6.490  21.135  0.00  0.00    +0.000 HD
BRANCH   2   6
ATOM      6  C   UNL     1       2.967   5.557  19.414  0.00  0.00    +0.000 C 
BRANCH   6   7
ATOM      7  C   UNL     1       2.392   4.183  19.783  0.00  0.00    +0.000 C 
ATOM      8  O   UNL     1       1.809   3.946  20.838  0.00  0.00    +0.000 OA
BRANCH   7  10
ATOM      9  C   UNL     1       1.997   3.572  17.553  0.00  0.00    +0.000 C 
ATOM     10  O   UNL     1       2.611   3.259  18.803  0.00  0.00    +0.000 OA
ENDBRANCH   7  10
ENDBRANCH   6   7
BRANCH   6  11
ATOM     11  C   UNL     1       4.502   5.570  19.551  0.00  0.00    +0.000 C 
BRANCH  11  12
ATOM     12  C   UNL     1       5.237   5.417  18.237  0.00  0.00    +0.000 A 
ATOM     13  C   UNL     1       6.416   4.662  18.151  0.00  0.00    +0.000 A 
ATOM     14  C   UNL     1       7.157   4.634  16.967  0.00  0.00    +0.000 A 
ATOM     15  C   UNL     1       6.702   5.343  15.860  0.00  0.00    +0.000 A 
ATOM     16  C   UNL     1       5.503   6.040  15.905  0.00  0.00    +0.000 A 
ATOM     17  C   UNL     1       4.772   6.080  17.092  0.00  0.00    +0.000 A 
BRANCH  15  18
ATOM     18  O   UNL     1       7.419   5.388  14.700  0.00  0.00    +0.000 OA
ATOM     19  H   UNL     1       7.966   6.190  14.707  0.00  0.00    +0.000 HD
ENDBRANCH  15  18
ENDBRANCH  11  12
ENDBRANCH   6  11
ENDBRANCH   2   6
ENDBRANCH   1   3
BRANCH   1  20
ATOM     20  N   UNL     1       1.027  10.075  19.878  0.00  0.00    +0.000 N 
ATOM     21  C   UNL     1       0.922  11.236  20.603  0.00  0.00    +0.000 C 
ATOM     22  O   UNL     1       0.871  11.234  21.830  0.00  0.00    +0.000 OA
ATOM     23  H   UNL     1       0.865  10.116  18.880  0.00  0.00    +0.000 HD
BRANCH  21  24
ATOM     24  C   UNL     1       0.808  12.536  19.772  0.00  0.00    +0.000 C 
ATOM     25  C   UNL     1      -0.176  12.324  18.628  0.00  0.00    +0.000 C 
BRANCH  24  26
ATOM     26  N   UNL     1       2.102  12.985  19.255  0.00  0.00    +0.000 N 
ATOM     27  C   UNL     1       2.469  14.306  19.339  0.00  0.00    +0.000 C 
ATOM     28  O   UNL     1       1.775  15.181  19.843  0.00  0.00    +0.000 OA
ATOM     29  H   UNL     1       2.739  12.295  18.880  0.00  0.00    +0.000 HD
BRANCH  27  30
ATOM     30  C   UNL     1       3.807  14.570  18.768  0.00  0.00    +0.000 C 
ATOM     31  C   UNL     1       4.684  15.341  19.431  0.00  0.00    +0.000 C 
BRANCH  31  32
ATOM     32  C   UNL     1       6.019  15.678  18.914  0.00  0.00    +0.000 A 
ATOM     33  C   UNL     1       6.527  16.986  18.974  0.00  0.00    +0.000 A 
ATOM     34  C   UNL     1       7.798  17.279  18.478  0.00  0.00    +0.000 A 
ATOM     35  C   UNL     1       8.573  16.262  17.941  0.00  0.00    +0.000 A 
ATOM     36  F   UNL     1       9.791  16.547  17.460  0.00  0.00    +0.000 F 
ATOM     37  C   UNL     1       8.107  14.954  17.899  0.00  0.00    +0.000 A 
ATOM     38  C   UNL     1       6.832  14.660  18.391  0.00  0.00    +0.000 A 
ENDBRANCH  31  32
ENDBRANCH  27  30
ENDBRANCH  24  26
ENDBRANCH  21  24
ENDBRANCH   1  20
TORSDOF 12
ENDMDL
