MODEL 1
REMARK VINA RESULT:      -7.3      0.000      0.000
REMARK  Name = 
REMARK  4 active torsions:
REMARK  status: ('A' for Active; 'I' for Inactive)
REMARK    1  A    between atoms: C_1  and  C_2
REMARK    2  A    between atoms: C_5  and  C_6
REMARK    3  A    between atoms: C_6  and  O_7
REMARK    4  A    between atoms: N_9  and  C_10
REMARK                            x       y       z     vdW  Elec       q    Type
REMARK                         _______ _______ _______ _____ _____    ______ ____
ROOT
ATOM      1  C   UNL     1       5.706   5.183  17.590  0.00  0.00    +0.000 C 
ATOM      2  C   UNL     1       5.098   4.037  18.479  0.00  0.00    +0.000 C 
ATOM      3  N   UNL     1       3.808   4.623  18.951  0.00  0.00    +0.000 N 
ATOM      4  C   UNL     1       3.676   5.832  18.435  0.00  0.00    +0.000 C 
ATOM      5  S   UNL     1       2.492   7.054  18.636  0.00  0.00    +0.000 S 
ATOM      6  C   UNL     1       3.340   8.187  17.480  0.00  0.00    +0.000 C 
ATOM      7  C   UNL     1       4.650   7.508  17.059  0.00  0.00    +0.000 C 
ATOM      8  N   UNL     1       4.667   6.194  17.662  0.00  0.00    +0.000 N 
ENDROOT
BRANCH   1  13
ATOM      9  C   UNL     1       6.696   3.571  12.080  0.00  0.00    +0.000 C 
ATOM     10  C   UNL     1       6.419   4.098  13.456  0.00  0.00    +0.000 A 
ATOM     11  C   UNL     1       7.382   4.820  14.164  0.00  0.00    +0.000 A 
ATOM     12  C   UNL     1       7.150   5.200  15.487  0.00  0.00    +0.000 A 
ATOM     13  C   UNL     1       5.959   4.844  16.142  0.00  0.00    +0.000 A 
ATOM     14  C   UNL     1       4.981   4.156  15.404  0.00  0.00    +0.000 A 
ATOM     15  C   UNL     1       5.210   3.787  14.080  0.00  0.00    +0.000 A 
ENDBRANCH   1  13
BRANCH   3  16
ATOM     16  C   UNL     1       2.933   3.948  19.756  0.00  0.00    +0.000 A 
ATOM     17  C   UNL     1       3.402   3.235  20.873  0.00  0.00    +0.000 A 
ATOM     18  C   UNL     1       2.530   2.541  21.720  0.00  0.00    +0.000 A 
ATOM     19  C   UNL     1       1.167   2.529  21.458  0.00  0.00    +0.000 A 
ATOM     20  C   UNL     1       0.677   3.202  20.345  0.00  0.00    +0.000 A 
ATOM     21  C   UNL     1       1.556   3.894  19.502  0.00  0.00    +0.000 A 
ENDBRANCH   3  16
BRANCH   1  22
ATOM     22  O   UNL     1       6.824   5.774  18.235  0.00  0.00    +0.000 OA
ATOM     23  H   UNL     1       7.551   5.129  18.164  0.00  0.00    +0.000 HD
ENDBRANCH   1  22
TORSDOF 3
ENDMDL
MODEL 2
REMARK VINA RESULT:      -7.2      0.054      1.022
REMARK  Name = 
REMARK  4 active torsions:
REMARK  status: ('A' for Active; 'I' for Inactive)
REMARK    1  A    between atoms: C_1  and  C_2
REMARK    2  A    between atoms: C_5  and  C_6
REMARK    3  A    between atoms: C_6  and  O_7
REMARK    4  A    between atoms: N_9  and  C_10
REMARK                            x       y       z     vdW  Elec       q    Type
REMARK                         _______ _______ _______ _____ _____    ______ ____
ROOT
ATOM      1  C   UNL     1       5.734   5.172  17.575  0.00  0.00    +0.000 C 
ATOM      2  C   UNL     1       5.132   4.023  18.465  0.00  0.00    +0.000 C 
ATOM      3  N   UNL     1       3.842   4.605  18.942  0.00  0.00    +0.000 N 
ATOM      4  C   UNL     1       3.704   5.814  18.427  0.00  0.00    +0.000 C 
ATOM      5  S   UNL     1       2.516   7.033  18.633  0.00  0.00    +0.000 S 
ATOM      6  C   UNL     1       3.358   8.168  17.475  0.00  0.00    +0.000 C 
ATOM      7  C   UNL     1       4.668   7.494  17.049  0.00  0.00    +0.000 C 
ATOM      8  N   UNL     1       4.691   6.180  17.651  0.00  0.00    +0.000 N 
ENDROOT
BRANCH   1  13
ATOM      9  C   UNL     1       6.714   3.568  12.061  0.00  0.00    +0.000 C 
ATOM     10  C   UNL     1       6.438   4.092  13.439  0.00  0.00    +0.000 A 
ATOM     11  C   UNL     1       7.393   4.831  14.139  0.00  0.00    +0.000 A 
ATOM     12  C   UNL     1       7.164   5.210  15.463  0.00  0.00    +0.000 A 
ATOM     13  C   UNL     1       5.982   4.835  16.127  0.00  0.00    +0.000 A 
ATOM     14  C   UNL     1       5.011   4.129  15.396  0.00  0.00    +0.000 A 
ATOM     15  C   UNL     1       5.238   3.762  14.071  0.00  0.00    +0.000 A 
ENDBRANCH   1  13
BRANCH   3  16
ATOM     16  C   UNL     1       2.972   3.926  19.749  0.00  0.00    +0.000 A 
ATOM     17  C   UNL     1       1.604   3.869  19.429  0.00  0.00    +0.000 A 
ATOM     18  C   UNL     1       0.691   3.175  20.231  0.00  0.00    +0.000 A 
ATOM     19  C   UNL     1       1.122   2.536  21.385  0.00  0.00    +0.000 A 
ATOM     20  C   UNL     1       2.464   2.599  21.743  0.00  0.00    +0.000 A 
ATOM     21  C   UNL     1       3.372   3.295  20.934  0.00  0.00    +0.000 A 
ENDBRANCH   3  16
BRANCH   1  22
ATOM     22  O   UNL     1       6.852   5.767  18.217  0.00  0.00    +0.000 OA
ATOM     23  H   UNL     1       7.068   6.564  17.702  0.00  0.00    +0.000 HD
ENDBRANCH   1  22
TORSDOF 3
ENDMDL
MODEL 3
REMARK VINA RESULT:      -7.2      0.146      1.036
REMARK  Name = 
REMARK  4 active torsions:
REMARK  status: ('A' for Active; 'I' for Inactive)
REMARK    1  A    between atoms: C_1  and  C_2
REMARK    2  A    between atoms: C_5  and  C_6
REMARK    3  A    between atoms: C_6  and  O_7
REMARK    4  A    between atoms: N_9  and  C_10
REMARK                            x       y       z     vdW  Elec       q    Type
REMARK                         _______ _______ _______ _____ _____    ______ ____
ROOT
ATOM      1  C   UNL     1       5.755   5.113  17.625  0.00  0.00    +0.000 C 
ATOM      2  C   UNL     1       5.118   3.987  18.520  0.00  0.00    +0.000 C 
ATOM      3  N   UNL     1       3.823   4.592  18.954  0.00  0.00    +0.000 N 
ATOM      4  C   UNL     1       3.712   5.793  18.415  0.00  0.00    +0.000 C 
ATOM      5  S   UNL     1       2.535   7.029  18.569  0.00  0.00    +0.000 S 
ATOM      6  C   UNL     1       3.418   8.134  17.413  0.00  0.00    +0.000 C 
ATOM      7  C   UNL     1       4.730   7.437  17.032  0.00  0.00    +0.000 C 
ATOM      8  N   UNL     1       4.722   6.134  17.658  0.00  0.00    +0.000 N 
ENDROOT
BRANCH   1  13
ATOM      9  C   UNL     1       6.813   4.005  12.005  0.00  0.00    +0.000 C 
ATOM     10  C   UNL     1       6.569   4.175  13.474  0.00  0.00    +0.000 A 
ATOM     11  C   UNL     1       5.383   3.740  14.068  0.00  0.00    +0.000 A 
ATOM     12  C   UNL     1       5.123   4.012  15.413  0.00  0.00    +0.000 A 
ATOM     13  C   UNL     1       6.035   4.747  16.189  0.00  0.00    +0.000 A 
ATOM     14  C   UNL     1       7.245   5.140  15.591  0.00  0.00    +0.000 A 
ATOM     15  C   UNL     1       7.506   4.858  14.251  0.00  0.00    +0.000 A 
ENDBRANCH   1  13
BRANCH   3  16
ATOM     16  C   UNL     1       2.925   3.938  19.751  0.00  0.00    +0.000 A 
ATOM     17  C   UNL     1       3.357   3.278  20.915  0.00  0.00    +0.000 A 
ATOM     18  C   UNL     1       2.461   2.608  21.754  0.00  0.00    +0.000 A 
ATOM     19  C   UNL     1       1.110   2.565  21.440  0.00  0.00    +0.000 A 
ATOM     20  C   UNL     1       0.657   3.184  20.281  0.00  0.00    +0.000 A 
ATOM     21  C   UNL     1       1.560   3.854  19.445  0.00  0.00    +0.000 A 
ENDBRANCH   3  16
BRANCH   1  22
ATOM     22  O   UNL     1       6.864   5.706  18.285  0.00  0.00    +0.000 OA
ATOM     23  H   UNL     1       7.648   5.203  18.001  0.00  0.00    +0.000 HD
ENDBRANCH   1  22
TORSDOF 3
ENDMDL
MODEL 4
REMARK VINA RESULT:      -6.9      2.234      6.561
REMARK  Name = 
REMARK  4 active torsions:
REMARK  status: ('A' for Active; 'I' for Inactive)
REMARK    1  A    between atoms: C_1  and  C_2
REMARK    2  A    between atoms: C_5  and  C_6
REMARK    3  A    between atoms: C_6  and  O_7
REMARK    4  A    between atoms: N_9  and  C_10
REMARK                            x       y       z     vdW  Elec       q    Type
REMARK                         _______ _______ _______ _____ _____    ______ ____
ROOT
ATOM      1  C   UNL     1       3.526   6.208  18.989  0.00  0.00    +0.000 C 
ATOM      2  C   UNL     1       4.673   6.333  17.921  0.00  0.00    +0.000 C 
ATOM      3  N   UNL     1       4.461   5.135  17.054  0.00  0.00    +0.000 N 
ATOM      4  C   UNL     1       3.410   4.470  17.498  0.00  0.00    +0.000 C 
ATOM      5  S   UNL     1       2.688   2.990  17.021  0.00  0.00    +0.000 S 
ATOM      6  C   UNL     1       1.384   3.115  18.294  0.00  0.00    +0.000 C 
ATOM      7  C   UNL     1       1.689   4.362  19.135  0.00  0.00    +0.000 C 
ATOM      8  N   UNL     1       2.835   5.012  18.540  0.00  0.00    +0.000 N 
ENDROOT
BRANCH   1  13
ATOM      9  C   UNL     1      -0.044  10.808  19.163  0.00  0.00    +0.000 C 
ATOM     10  C   UNL     1       0.777   9.554  19.122  0.00  0.00    +0.000 A 
ATOM     11  C   UNL     1       1.038   8.820  20.280  0.00  0.00    +0.000 A 
ATOM     12  C   UNL     1       1.900   7.722  20.243  0.00  0.00    +0.000 A 
ATOM     13  C   UNL     1       2.540   7.348  19.049  0.00  0.00    +0.000 A 
ATOM     14  C   UNL     1       2.233   8.068  17.882  0.00  0.00    +0.000 A 
ATOM     15  C   UNL     1       1.364   9.157  17.920  0.00  0.00    +0.000 A 
ENDBRANCH   1  13
BRANCH   3  16
ATOM     16  C   UNL     1       5.243   4.853  15.969  0.00  0.00    +0.000 A 
ATOM     17  C   UNL     1       6.619   5.139  15.992  0.00  0.00    +0.000 A 
ATOM     18  C   UNL     1       7.446   4.854  14.900  0.00  0.00    +0.000 A 
ATOM     19  C   UNL     1       6.912   4.290  13.749  0.00  0.00    +0.000 A 
ATOM     20  C   UNL     1       5.550   4.021  13.687  0.00  0.00    +0.000 A 
ATOM     21  C   UNL     1       4.728   4.310  14.784  0.00  0.00    +0.000 A 
ENDBRANCH   3  16
BRANCH   1  22
ATOM     22  O   UNL     1       4.061   5.856  20.257  0.00  0.00    +0.000 OA
ATOM     23  H   UNL     1       4.214   6.695  20.728  0.00  0.00    +0.000 HD
ENDBRANCH   1  22
TORSDOF 3
ENDMDL
MODEL 5
REMARK VINA RESULT:      -6.9      4.876      7.955
REMARK  Name = 
REMARK  4 active torsions:
REMARK  status: ('A' for Active; 'I' for Inactive)
REMARK    1  A    between atoms: C_1  and  C_2
REMARK    2  A    between atoms: C_5  and  C_6
REMARK    3  A    between atoms: C_6  and  O_7
REMARK    4  A    between atoms: N_9  and  C_10
REMARK                            x       y       z     vdW  Elec       q    Type
REMARK                         _______ _______ _______ _____ _____    ______ ____
ROOT
ATOM      1  C   UNL     1       0.688  10.376  18.641  0.00  0.00    +0.000 C 
ATOM      2  C   UNL     1       1.474   9.409  17.681  0.00  0.00    +0.000 C 
ATOM      3  N   UNL     1       1.908   8.308  18.592  0.00  0.00    +0.000 N 
ATOM      4  C   UNL     1       1.457   8.558  19.808  0.00  0.00    +0.000 C 
ATOM      5  S   UNL     1       1.665   7.756  21.309  0.00  0.00    +0.000 S 
ATOM      6  C   UNL     1       0.624   8.967  22.198  0.00  0.00    +0.000 C 
ATOM      7  C   UNL     1       0.236  10.057  21.191  0.00  0.00    +0.000 C 
ATOM      8  N   UNL     1       0.762   9.661  19.903  0.00  0.00    +0.000 N 
ENDROOT
BRANCH   1  13
ATOM      9  C   UNL     1      -4.820  11.400  17.046  0.00  0.00    +0.000 C 
ATOM     10  C   UNL     1      -3.446  11.092  17.560  0.00  0.00    +0.000 A 
ATOM     11  C   UNL     1      -2.812  11.925  18.483  0.00  0.00    +0.000 A 
ATOM     12  C   UNL     1      -1.489  11.686  18.861  0.00  0.00    +0.000 A 
ATOM     13  C   UNL     1      -0.761  10.621  18.304  0.00  0.00    +0.000 A 
ATOM     14  C   UNL     1      -1.426   9.764  17.410  0.00  0.00    +0.000 A 
ATOM     15  C   UNL     1      -2.750   9.998  17.043  0.00  0.00    +0.000 A 
ENDBRANCH   1  13
BRANCH   3  16
ATOM     16  C   UNL     1       2.624   7.225  18.162  0.00  0.00    +0.000 A 
ATOM     17  C   UNL     1       3.877   7.399  17.549  0.00  0.00    +0.000 A 
ATOM     18  C   UNL     1       4.636   6.310  17.107  0.00  0.00    +0.000 A 
ATOM     19  C   UNL     1       4.151   5.018  17.251  0.00  0.00    +0.000 A 
ATOM     20  C   UNL     1       2.903   4.815  17.828  0.00  0.00    +0.000 A 
ATOM     21  C   UNL     1       2.148   5.911  18.269  0.00  0.00    +0.000 A 
ENDBRANCH   3  16
BRANCH   1  22
ATOM     22  O   UNL     1       1.426  11.568  18.863  0.00  0.00    +0.000 OA
ATOM     23  H   UNL     1       1.942  11.420  19.676  0.00  0.00    +0.000 HD
ENDBRANCH   1  22
TORSDOF 3
ENDMDL
MODEL 6
REMARK VINA RESULT:      -6.9      4.869      7.990
REMARK  Name = 
REMARK  4 active torsions:
REMARK  status: ('A' for Active; 'I' for Inactive)
REMARK    1  A    between atoms: C_1  and  C_2
REMARK    2  A    between atoms: C_5  and  C_6
REMARK    3  A    between atoms: C_6  and  O_7
REMARK    4  A    between atoms: N_9  and  C_10
REMARK                            x       y       z     vdW  Elec       q    Type
REMARK                         _______ _______ _______ _____ _____    ______ ____
ROOT
ATOM      1  C   UNL     1       0.702  10.362  18.598  0.00  0.00    +0.000 C 
ATOM      2  C   UNL     1       1.502   9.396  17.649  0.00  0.00    +0.000 C 
ATOM      3  N   UNL     1       1.927   8.296  18.566  0.00  0.00    +0.000 N 
ATOM      4  C   UNL     1       1.461   8.547  19.776  0.00  0.00    +0.000 C 
ATOM      5  S   UNL     1       1.651   7.747  21.280  0.00  0.00    +0.000 S 
ATOM      6  C   UNL     1       0.598   8.958  22.155  0.00  0.00    +0.000 C 
ATOM      7  C   UNL     1       0.221  10.046  21.142  0.00  0.00    +0.000 C 
ATOM      8  N   UNL     1       0.762   9.649  19.862  0.00  0.00    +0.000 N 
ENDROOT
BRANCH   1  13
ATOM      9  C   UNL     1      -4.955  11.238  17.522  0.00  0.00    +0.000 C 
ATOM     10  C   UNL     1      -3.477  11.054  17.688  0.00  0.00    +0.000 A 
ATOM     11  C   UNL     1      -2.816   9.954  17.139  0.00  0.00    +0.000 A 
ATOM     12  C   UNL     1      -1.462   9.737  17.402  0.00  0.00    +0.000 A 
ATOM     13  C   UNL     1      -0.743  10.605  18.242  0.00  0.00    +0.000 A 
ATOM     14  C   UNL     1      -1.409  11.732  18.751  0.00  0.00    +0.000 A 
ATOM     15  C   UNL     1      -2.758  11.952  18.478  0.00  0.00    +0.000 A 
ENDBRANCH   1  13
BRANCH   3  16
ATOM     16  C   UNL     1       2.649   7.214  18.146  0.00  0.00    +0.000 A 
ATOM     17  C   UNL     1       3.910   7.390  17.549  0.00  0.00    +0.000 A 
ATOM     18  C   UNL     1       4.675   6.301  17.117  0.00  0.00    +0.000 A 
ATOM     19  C   UNL     1       4.191   5.008  17.257  0.00  0.00    +0.000 A 
ATOM     20  C   UNL     1       2.936   4.804  17.819  0.00  0.00    +0.000 A 
ATOM     21  C   UNL     1       2.174   5.899  18.249  0.00  0.00    +0.000 A 
ENDBRANCH   3  16
BRANCH   1  22
ATOM     22  O   UNL     1       1.436  11.556  18.827  0.00  0.00    +0.000 OA
ATOM     23  H   UNL     1       0.829  12.290  18.626  0.00  0.00    +0.000 HD
ENDBRANCH   1  22
TORSDOF 3
ENDMDL
MODEL 7
REMARK VINA RESULT:      -6.9      4.878      7.960
REMARK  Name = 
REMARK  4 active torsions:
REMARK  status: ('A' for Active; 'I' for Inactive)
REMARK    1  A    between atoms: C_1  and  C_2
REMARK    2  A    between atoms: C_5  and  C_6
REMARK    3  A    between atoms: C_6  and  O_7
REMARK    4  A    between atoms: N_9  and  C_10
REMARK                            x       y       z     vdW  Elec       q    Type
REMARK                         _______ _______ _______ _____ _____    ______ ____
ROOT
ATOM      1  C   UNL     1       0.678  10.366  18.629  0.00  0.00    +0.000 C 
ATOM      2  C   UNL     1       1.464   9.402  17.666  0.00  0.00    +0.000 C 
ATOM      3  N   UNL     1       1.905   8.302  18.575  0.00  0.00    +0.000 N 
ATOM      4  C   UNL     1       1.458   8.550  19.793  0.00  0.00    +0.000 C 
ATOM      5  S   UNL     1       1.673   7.749  21.293  0.00  0.00    +0.000 S 
ATOM      6  C   UNL     1       0.633   8.957  22.186  0.00  0.00    +0.000 C 
ATOM      7  C   UNL     1       0.237  10.046  21.180  0.00  0.00    +0.000 C 
ATOM      8  N   UNL     1       0.759   9.651  19.891  0.00  0.00    +0.000 N 
ENDROOT
BRANCH   1  13
ATOM      9  C   UNL     1      -4.839  11.371  17.053  0.00  0.00    +0.000 C 
ATOM     10  C   UNL     1      -3.462  11.068  17.563  0.00  0.00    +0.000 A 
ATOM     11  C   UNL     1      -2.825  11.909  18.476  0.00  0.00    +0.000 A 
ATOM     12  C   UNL     1      -1.499  11.675  18.850  0.00  0.00    +0.000 A 
ATOM     13  C   UNL     1      -0.773  10.606  18.297  0.00  0.00    +0.000 A 
ATOM     14  C   UNL     1      -1.440   9.742  17.413  0.00  0.00    +0.000 A 
ATOM     15  C   UNL     1      -2.766   9.971  17.051  0.00  0.00    +0.000 A 
ENDBRANCH   1  13
BRANCH   3  16
ATOM     16  C   UNL     1       2.623   7.221  18.143  0.00  0.00    +0.000 A 
ATOM     17  C   UNL     1       2.096   5.923  18.269  0.00  0.00    +0.000 A 
ATOM     18  C   UNL     1       2.803   4.799  17.828  0.00  0.00    +0.000 A 
ATOM     19  C   UNL     1       4.064   4.944  17.266  0.00  0.00    +0.000 A 
ATOM     20  C   UNL     1       4.622   6.212  17.154  0.00  0.00    +0.000 A 
ATOM     21  C   UNL     1       3.908   7.333  17.597  0.00  0.00    +0.000 A 
ENDBRANCH   3  16
BRANCH   1  22
ATOM     22  O   UNL     1       1.414  11.561  18.848  0.00  0.00    +0.000 OA
ATOM     23  H   UNL     1       0.966  12.025  19.578  0.00  0.00    +0.000 HD
ENDBRANCH   1  22
TORSDOF 3
ENDMDL
MODEL 8
REMARK VINA RESULT:      -6.9      2.228      6.624
REMARK  Name = 
REMARK  4 active torsions:
REMARK  status: ('A' for Active; 'I' for Inactive)
REMARK    1  A    between atoms: C_1  and  C_2
REMARK    2  A    between atoms: C_5  and  C_6
REMARK    3  A    between atoms: C_6  and  O_7
REMARK    4  A    between atoms: N_9  and  C_10
REMARK                            x       y       z     vdW  Elec       q    Type
REMARK                         _______ _______ _______ _____ _____    ______ ____
ROOT
ATOM      1  C   UNL     1       3.537   6.212  18.982  0.00  0.00    +0.000 C 
ATOM      2  C   UNL     1       4.689   6.347  17.921  0.00  0.00    +0.000 C 
ATOM      3  N   UNL     1       4.486   5.152  17.048  0.00  0.00    +0.000 N 
ATOM      4  C   UNL     1       3.435   4.480  17.483  0.00  0.00    +0.000 C 
ATOM      5  S   UNL     1       2.721   3.000  16.995  0.00  0.00    +0.000 S 
ATOM      6  C   UNL     1       1.410   3.115  18.263  0.00  0.00    +0.000 C 
ATOM      7  C   UNL     1       1.706   4.359  19.111  0.00  0.00    +0.000 C 
ATOM      8  N   UNL     1       2.853   5.016  18.525  0.00  0.00    +0.000 N 
ENDROOT
BRANCH   1  13
ATOM      9  C   UNL     1      -0.051  10.798  19.157  0.00  0.00    +0.000 C 
ATOM     10  C   UNL     1       0.774   9.547  19.116  0.00  0.00    +0.000 A 
ATOM     11  C   UNL     1       1.037   8.813  20.273  0.00  0.00    +0.000 A 
ATOM     12  C   UNL     1       1.903   7.718  20.235  0.00  0.00    +0.000 A 
ATOM     13  C   UNL     1       2.547   7.348  19.042  0.00  0.00    +0.000 A 
ATOM     14  C   UNL     1       2.239   8.069  17.876  0.00  0.00    +0.000 A 
ATOM     15  C   UNL     1       1.365   9.155  17.914  0.00  0.00    +0.000 A 
ENDBRANCH   1  13
BRANCH   3  16
ATOM     16  C   UNL     1       5.274   4.877  15.965  0.00  0.00    +0.000 A 
ATOM     17  C   UNL     1       4.720   4.290  14.814  0.00  0.00    +0.000 A 
ATOM     18  C   UNL     1       5.500   4.005  13.688  0.00  0.00    +0.000 A 
ATOM     19  C   UNL     1       6.859   4.284  13.692  0.00  0.00    +0.000 A 
ATOM     20  C   UNL     1       7.441   4.839  14.826  0.00  0.00    +0.000 A 
ATOM     21  C   UNL     1       6.654   5.122  15.950  0.00  0.00    +0.000 A 
ENDBRANCH   3  16
BRANCH   1  22
ATOM     22  O   UNL     1       4.067   5.857  20.251  0.00  0.00    +0.000 OA
ATOM     23  H   UNL     1       3.331   5.937  20.884  0.00  0.00    +0.000 HD
ENDBRANCH   1  22
TORSDOF 3
ENDMDL
MODEL 9
REMARK VINA RESULT:      -6.8      4.946      8.071
REMARK  Name = 
REMARK  4 active torsions:
REMARK  status: ('A' for Active; 'I' for Inactive)
REMARK    1  A    between atoms: C_1  and  C_2
REMARK    2  A    between atoms: C_5  and  C_6
REMARK    3  A    between atoms: C_6  and  O_7
REMARK    4  A    between atoms: N_9  and  C_10
REMARK                            x       y       z     vdW  Elec       q    Type
REMARK                         _______ _______ _______ _____ _____    ______ ____
ROOT
ATOM      1  C   UNL     1       0.600  10.399  18.630  0.00  0.00    +0.000 C 
ATOM      2  C   UNL     1       1.401   9.444  17.671  0.00  0.00    +0.000 C 
ATOM      3  N   UNL     1       1.857   8.353  18.583  0.00  0.00    +0.000 N 
ATOM      4  C   UNL     1       1.404   8.598  19.800  0.00  0.00    +0.000 C 
ATOM      5  S   UNL     1       1.628   7.804  21.302  0.00  0.00    +0.000 S 
ATOM      6  C   UNL     1       0.569   8.999  22.190  0.00  0.00    +0.000 C 
ATOM      7  C   UNL     1       0.160  10.080  21.181  0.00  0.00    +0.000 C 
ATOM      8  N   UNL     1       0.689   9.690  19.894  0.00  0.00    +0.000 N 
ENDROOT
BRANCH   1  13
ATOM      9  C   UNL     1      -5.088  11.157  17.627  0.00  0.00    +0.000 C 
ATOM     10  C   UNL     1      -3.603  11.013  17.777  0.00  0.00    +0.000 A 
ATOM     11  C   UNL     1      -2.905   9.985  17.141  0.00  0.00    +0.000 A 
ATOM     12  C   UNL     1      -1.543   9.797  17.386  0.00  0.00    +0.000 A 
ATOM     13  C   UNL     1      -0.854  10.618  18.294  0.00  0.00    +0.000 A 
ATOM     14  C   UNL     1      -1.558  11.676  18.893  0.00  0.00    +0.000 A 
ATOM     15  C   UNL     1      -2.915  11.869  18.639  0.00  0.00    +0.000 A 
ENDBRANCH   1  13
BRANCH   3  16
ATOM     16  C   UNL     1       2.590   7.282  18.155  0.00  0.00    +0.000 A 
ATOM     17  C   UNL     1       2.085   5.976  18.288  0.00  0.00    +0.000 A 
ATOM     18  C   UNL     1       2.809   4.861  17.852  0.00  0.00    +0.000 A 
ATOM     19  C   UNL     1       4.066   5.023  17.287  0.00  0.00    +0.000 A 
ATOM     20  C   UNL     1       4.604   6.299  17.168  0.00  0.00    +0.000 A 
ATOM     21  C   UNL     1       3.873   7.411  17.607  0.00  0.00    +0.000 A 
ENDBRANCH   3  16
BRANCH   1  22
ATOM     22  O   UNL     1       1.318  11.605  18.846  0.00  0.00    +0.000 OA
ATOM     23  H   UNL     1       1.790  11.491  19.691  0.00  0.00    +0.000 HD
ENDBRANCH   1  22
TORSDOF 3
ENDMDL
