MODEL 1
REMARK VINA RESULT:      -8.0      0.000      0.000
REMARK  Name = 
REMARK  6 active torsions:
REMARK  status: ('A' for Active; 'I' for Inactive)
REMARK    1  A    between atoms: C_1  and  C_2
REMARK    2  A    between atoms: C_3  and  C_4
REMARK    3  A    between atoms: C_4  and  C_5
REMARK    4  A    between atoms: C_5  and  O_7
REMARK    5  A    between atoms: C_15  and  C_16
REMARK    6  A    between atoms: C_20  and  C_21
REMARK                            x       y       z     vdW  Elec       q    Type
REMARK                         _______ _______ _______ _____ _____    ______ ____
ROOT
ATOM      1  C   UNL     1       6.307   7.459  17.021  0.00  0.00    +0.000 C 
ATOM      2  C   UNL     1       5.265   6.420  17.274  0.00  0.00    +0.000 C 
ATOM      3  C   UNL     1       5.341   5.077  17.101  0.00  0.00    +0.000 C 
ATOM      4  C   UNL     1       4.008   4.516  17.398  0.00  0.00    +0.000 A 
ATOM      5  C   UNL     1       3.574   3.198  17.352  0.00  0.00    +0.000 A 
ATOM      6  C   UNL     1       2.237   2.921  17.647  0.00  0.00    +0.000 A 
ATOM      7  C   UNL     1       1.346   3.956  17.966  0.00  0.00    +0.000 A 
ATOM      8  C   UNL     1       1.783   5.280  18.017  0.00  0.00    +0.000 A 
ATOM      9  C   UNL     1       3.117   5.549  17.749  0.00  0.00    +0.000 A 
ATOM     10  C   UNL     1       3.905   6.786  17.718  0.00  0.00    +0.000 C 
ATOM     11  C   UNL     1       3.530   8.034  18.041  0.00  0.00    +0.000 C 
ENDROOT
BRANCH  11  12
ATOM     12  C   UNL     1       2.226   8.491  18.525  0.00  0.00    +0.000 A 
ATOM     13  C   UNL     1       1.348   9.158  17.668  0.00  0.00    +0.000 A 
ATOM     14  C   UNL     1       0.153   9.680  18.163  0.00  0.00    +0.000 A 
ATOM     15  C   UNL     1      -0.163   9.544  19.516  0.00  0.00    +0.000 A 
ATOM     16  C   UNL     1       0.703   8.868  20.382  0.00  0.00    +0.000 A 
ATOM     17  C   UNL     1       0.385   8.725  21.841  0.00  0.00    +0.000 C 
ATOM     18  C   UNL     1       1.891   8.326  19.873  0.00  0.00    +0.000 A 
ENDBRANCH  11  12
BRANCH   3  19
ATOM     19  C   UNL     1       6.476   4.236  16.615  0.00  0.00    +0.000 C 
BRANCH  19  20
ATOM     20  C   UNL     1       6.834   4.378  15.142  0.00  0.00    +0.000 C 
ATOM     21  O   UNL     1       7.603   5.240  14.722  0.00  0.00    +0.000 OA
BRANCH  20  22
ATOM     22  O   UNL     1       6.308   3.443  14.321  0.00  0.00    +0.000 OA
ATOM     23  H   UNL     1       6.767   2.585  14.361  0.00  0.00    +0.000 HD
ENDBRANCH  20  22
ENDBRANCH  19  20
ENDBRANCH   3  19
TORSDOF 4
ENDMDL
MODEL 2
REMARK VINA RESULT:      -7.9      1.495      1.627
REMARK  Name = 
REMARK  6 active torsions:
REMARK  status: ('A' for Active; 'I' for Inactive)
REMARK    1  A    between atoms: C_1  and  C_2
REMARK    2  A    between atoms: C_3  and  C_4
REMARK    3  A    between atoms: C_4  and  C_5
REMARK    4  A    between atoms: C_5  and  O_7
REMARK    5  A    between atoms: C_15  and  C_16
REMARK    6  A    between atoms: C_20  and  C_21
REMARK                            x       y       z     vdW  Elec       q    Type
REMARK                         _______ _______ _______ _____ _____    ______ ____
ROOT
ATOM      1  C   UNL     1       4.955   7.018  16.011  0.00  0.00    +0.000 C 
ATOM      2  C   UNL     1       4.350   6.219  17.118  0.00  0.00    +0.000 C 
ATOM      3  C   UNL     1       4.624   4.948  17.499  0.00  0.00    +0.000 C 
ATOM      4  C   UNL     1       3.680   4.596  18.579  0.00  0.00    +0.000 A 
ATOM      5  C   UNL     1       3.549   3.408  19.285  0.00  0.00    +0.000 A 
ATOM      6  C   UNL     1       2.541   3.307  20.247  0.00  0.00    +0.000 A 
ATOM      7  C   UNL     1       1.668   4.379  20.484  0.00  0.00    +0.000 A 
ATOM      8  C   UNL     1       1.803   5.574  19.777  0.00  0.00    +0.000 A 
ATOM      9  C   UNL     1       2.820   5.680  18.841  0.00  0.00    +0.000 A 
ATOM     10  C   UNL     1       3.251   6.758  17.944  0.00  0.00    +0.000 C 
ATOM     11  C   UNL     1       2.793   8.018  17.858  0.00  0.00    +0.000 C 
ENDROOT
BRANCH  11  12
ATOM     12  C   UNL     1       1.741   8.655  18.651  0.00  0.00    +0.000 A 
ATOM     13  C   UNL     1       0.754   9.424  18.030  0.00  0.00    +0.000 A 
ATOM     14  C   UNL     1      -0.183  10.111  18.802  0.00  0.00    +0.000 A 
ATOM     15  C   UNL     1      -0.131  10.038  20.196  0.00  0.00    +0.000 A 
ATOM     16  C   UNL     1       0.846   9.262  20.829  0.00  0.00    +0.000 A 
ATOM     17  C   UNL     1       0.925   9.184  22.324  0.00  0.00    +0.000 C 
ATOM     18  C   UNL     1       1.770   8.557  20.046  0.00  0.00    +0.000 A 
ENDBRANCH  11  12
BRANCH   3  19
ATOM     19  C   UNL     1       5.605   3.969  16.940  0.00  0.00    +0.000 C 
BRANCH  19  20
ATOM     20  C   UNL     1       7.076   4.335  17.087  0.00  0.00    +0.000 C 
ATOM     21  O   UNL     1       7.775   4.683  16.139  0.00  0.00    +0.000 OA
BRANCH  20  22
ATOM     22  O   UNL     1       7.554   4.327  18.351  0.00  0.00    +0.000 OA
ATOM     23  H   UNL     1       8.481   4.615  18.420  0.00  0.00    +0.000 HD
ENDBRANCH  20  22
ENDBRANCH  19  20
ENDBRANCH   3  19
TORSDOF 4
ENDMDL
MODEL 3
REMARK VINA RESULT:      -7.9      3.327      6.892
REMARK  Name = 
REMARK  6 active torsions:
REMARK  status: ('A' for Active; 'I' for Inactive)
REMARK    1  A    between atoms: C_1  and  C_2
REMARK    2  A    between atoms: C_3  and  C_4
REMARK    3  A    between atoms: C_4  and  C_5
REMARK    4  A    between atoms: C_5  and  O_7
REMARK    5  A    between atoms: C_15  and  C_16
REMARK    6  A    between atoms: C_20  and  C_21
REMARK                            x       y       z     vdW  Elec       q    Type
REMARK                         _______ _______ _______ _____ _____    ______ ____
ROOT
ATOM      1  C   UNL     1       4.073   2.162  19.814  0.00  0.00    +0.000 C 
ATOM      2  C   UNL     1       3.844   3.580  19.405  0.00  0.00    +0.000 C 
ATOM      3  C   UNL     1       3.070   4.523  19.997  0.00  0.00    +0.000 C 
ATOM      4  C   UNL     1       3.108   5.727  19.144  0.00  0.00    +0.000 A 
ATOM      5  C   UNL     1       2.471   6.949  19.311  0.00  0.00    +0.000 A 
ATOM      6  C   UNL     1       2.638   7.933  18.333  0.00  0.00    +0.000 A 
ATOM      7  C   UNL     1       3.420   7.684  17.195  0.00  0.00    +0.000 A 
ATOM      8  C   UNL     1       4.064   6.458  17.030  0.00  0.00    +0.000 A 
ATOM      9  C   UNL     1       3.917   5.493  18.015  0.00  0.00    +0.000 A 
ATOM     10  C   UNL     1       4.440   4.131  18.172  0.00  0.00    +0.000 C 
ATOM     11  C   UNL     1       5.311   3.467  17.395  0.00  0.00    +0.000 C 
ENDROOT
BRANCH  11  12
ATOM     12  C   UNL     1       5.982   3.935  16.182  0.00  0.00    +0.000 A 
ATOM     13  C   UNL     1       6.989   4.900  16.258  0.00  0.00    +0.000 A 
ATOM     14  C   UNL     1       7.551   5.415  15.089  0.00  0.00    +0.000 A 
ATOM     15  C   UNL     1       7.102   4.973  13.843  0.00  0.00    +0.000 A 
ATOM     16  C   UNL     1       6.102   3.999  13.754  0.00  0.00    +0.000 A 
ATOM     17  C   UNL     1       5.599   3.523  12.424  0.00  0.00    +0.000 C 
ATOM     18  C   UNL     1       5.558   3.470  14.933  0.00  0.00    +0.000 A 
ENDBRANCH  11  12
BRANCH   3  19
ATOM     19  C   UNL     1       2.224   4.436  21.225  0.00  0.00    +0.000 C 
BRANCH  19  20
ATOM     20  C   UNL     1       1.320   3.215  21.332  0.00  0.00    +0.000 C 
ATOM     21  O   UNL     1       1.366   2.430  22.276  0.00  0.00    +0.000 OA
BRANCH  20  22
ATOM     22  O   UNL     1       0.399   3.084  20.351  0.00  0.00    +0.000 OA
ATOM     23  H   UNL     1       0.466   2.245  19.862  0.00  0.00    +0.000 HD
ENDBRANCH  20  22
ENDBRANCH  19  20
ENDBRANCH   3  19
TORSDOF 4
ENDMDL
MODEL 4
REMARK VINA RESULT:      -7.8      1.592      2.206
REMARK  Name = 
REMARK  6 active torsions:
REMARK  status: ('A' for Active; 'I' for Inactive)
REMARK    1  A    between atoms: C_1  and  C_2
REMARK    2  A    between atoms: C_3  and  C_4
REMARK    3  A    between atoms: C_4  and  C_5
REMARK    4  A    between atoms: C_5  and  O_7
REMARK    5  A    between atoms: C_15  and  C_16
REMARK    6  A    between atoms: C_20  and  C_21
REMARK                            x       y       z     vdW  Elec       q    Type
REMARK                         _______ _______ _______ _____ _____    ______ ____
ROOT
ATOM      1  C   UNL     1       4.870   7.020  16.014  0.00  0.00    +0.000 C 
ATOM      2  C   UNL     1       4.288   6.269  17.166  0.00  0.00    +0.000 C 
ATOM      3  C   UNL     1       4.561   5.010  17.588  0.00  0.00    +0.000 C 
ATOM      4  C   UNL     1       3.644   4.708  18.705  0.00  0.00    +0.000 A 
ATOM      5  C   UNL     1       3.522   3.549  19.458  0.00  0.00    +0.000 A 
ATOM      6  C   UNL     1       2.541   3.493  20.451  0.00  0.00    +0.000 A 
ATOM      7  C   UNL     1       1.683   4.582  20.670  0.00  0.00    +0.000 A 
ATOM      8  C   UNL     1       1.810   5.749  19.915  0.00  0.00    +0.000 A 
ATOM      9  C   UNL     1       2.802   5.810  18.948  0.00  0.00    +0.000 A 
ATOM     10  C   UNL     1       3.217   6.849  18.000  0.00  0.00    +0.000 C 
ATOM     11  C   UNL     1       2.768   8.109  17.879  0.00  0.00    +0.000 C 
ENDROOT
BRANCH  11  12
ATOM     12  C   UNL     1       1.744   8.786  18.676  0.00  0.00    +0.000 A 
ATOM     13  C   UNL     1       1.758   8.696  20.070  0.00  0.00    +0.000 A 
ATOM     14  C   UNL     1       0.720   9.257  20.815  0.00  0.00    +0.000 A 
ATOM     15  C   UNL     1      -0.337   9.901  20.169  0.00  0.00    +0.000 A 
ATOM     16  C   UNL     1      -0.357  10.007  18.774  0.00  0.00    +0.000 A 
ATOM     17  C   UNL     1      -1.492  10.682  18.064  0.00  0.00    +0.000 C 
ATOM     18  C   UNL     1       0.700   9.461  18.033  0.00  0.00    +0.000 A 
ENDBRANCH  11  12
BRANCH   3  19
ATOM     19  C   UNL     1       5.518   4.002  17.039  0.00  0.00    +0.000 C 
BRANCH  19  20
ATOM     20  C   UNL     1       6.993   4.375  17.100  0.00  0.00    +0.000 C 
ATOM     21  O   UNL     1       7.621   4.775  16.122  0.00  0.00    +0.000 OA
BRANCH  20  22
ATOM     22  O   UNL     1       7.561   4.310  18.324  0.00  0.00    +0.000 OA
ATOM     23  H   UNL     1       7.086   4.822  19.002  0.00  0.00    +0.000 HD
ENDBRANCH  20  22
ENDBRANCH  19  20
ENDBRANCH   3  19
TORSDOF 4
ENDMDL
MODEL 5
REMARK VINA RESULT:      -7.4      3.574      6.667
REMARK  Name = 
REMARK  6 active torsions:
REMARK  status: ('A' for Active; 'I' for Inactive)
REMARK    1  A    between atoms: C_1  and  C_2
REMARK    2  A    between atoms: C_3  and  C_4
REMARK    3  A    between atoms: C_4  and  C_5
REMARK    4  A    between atoms: C_5  and  O_7
REMARK    5  A    between atoms: C_15  and  C_16
REMARK    6  A    between atoms: C_20  and  C_21
REMARK                            x       y       z     vdW  Elec       q    Type
REMARK                         _______ _______ _______ _____ _____    ______ ____
ROOT
ATOM      1  C   UNL     1       2.336   8.746  18.489  0.00  0.00    +0.000 C 
ATOM      2  C   UNL     1       2.427   7.350  19.011  0.00  0.00    +0.000 C 
ATOM      3  C   UNL     1       1.724   6.767  20.013  0.00  0.00    +0.000 C 
ATOM      4  C   UNL     1       2.264   5.406  20.200  0.00  0.00    +0.000 A 
ATOM      5  C   UNL     1       1.891   4.425  21.108  0.00  0.00    +0.000 A 
ATOM      6  C   UNL     1       2.588   3.214  21.113  0.00  0.00    +0.000 A 
ATOM      7  C   UNL     1       3.657   3.001  20.229  0.00  0.00    +0.000 A 
ATOM      8  C   UNL     1       4.029   3.986  19.313  0.00  0.00    +0.000 A 
ATOM      9  C   UNL     1       3.318   5.177  19.294  0.00  0.00    +0.000 A 
ATOM     10  C   UNL     1       3.423   6.395  18.485  0.00  0.00    +0.000 C 
ATOM     11  C   UNL     1       4.229   6.648  17.440  0.00  0.00    +0.000 C 
ENDROOT
BRANCH  11  12
ATOM     12  C   UNL     1       5.216   5.762  16.823  0.00  0.00    +0.000 A 
ATOM     13  C   UNL     1       6.452   5.543  17.436  0.00  0.00    +0.000 A 
ATOM     14  C   UNL     1       7.425   4.780  16.791  0.00  0.00    +0.000 A 
ATOM     15  C   UNL     1       7.169   4.240  15.529  0.00  0.00    +0.000 A 
ATOM     16  C   UNL     1       5.931   4.442  14.909  0.00  0.00    +0.000 A 
ATOM     17  C   UNL     1       5.644   3.882  13.548  0.00  0.00    +0.000 C 
ATOM     18  C   UNL     1       4.950   5.192  15.573  0.00  0.00    +0.000 A 
ENDBRANCH  11  12
BRANCH   3  19
ATOM     19  C   UNL     1       0.653   7.334  20.888  0.00  0.00    +0.000 C 
BRANCH  19  20
ATOM     20  C   UNL     1       0.935   8.704  21.491  0.00  0.00    +0.000 C 
ATOM     21  O   UNL     1       0.227   9.685  21.276  0.00  0.00    +0.000 OA
BRANCH  20  22
ATOM     22  O   UNL     1       1.979   8.760  22.346  0.00  0.00    +0.000 OA
ATOM     23  H   UNL     1       1.847   9.381  23.084  0.00  0.00    +0.000 HD
ENDBRANCH  20  22
ENDBRANCH  19  20
ENDBRANCH   3  19
TORSDOF 4
ENDMDL
MODEL 6
REMARK VINA RESULT:      -7.3      1.274      1.891
REMARK  Name = 
REMARK  6 active torsions:
REMARK  status: ('A' for Active; 'I' for Inactive)
REMARK    1  A    between atoms: C_1  and  C_2
REMARK    2  A    between atoms: C_3  and  C_4
REMARK    3  A    between atoms: C_4  and  C_5
REMARK    4  A    between atoms: C_5  and  O_7
REMARK    5  A    between atoms: C_15  and  C_16
REMARK    6  A    between atoms: C_20  and  C_21
REMARK                            x       y       z     vdW  Elec       q    Type
REMARK                         _______ _______ _______ _____ _____    ______ ____
ROOT
ATOM      1  C   UNL     1       4.884   6.881  16.163  0.00  0.00    +0.000 C 
ATOM      2  C   UNL     1       4.144   5.997  17.112  0.00  0.00    +0.000 C 
ATOM      3  C   UNL     1       4.230   4.654  17.270  0.00  0.00    +0.000 C 
ATOM      4  C   UNL     1       3.216   4.258  18.267  0.00  0.00    +0.000 A 
ATOM      5  C   UNL     1       2.905   2.997  18.757  0.00  0.00    +0.000 A 
ATOM      6  C   UNL     1       1.865   2.875  19.682  0.00  0.00    +0.000 A 
ATOM      7  C   UNL     1       1.139   4.002  20.095  0.00  0.00    +0.000 A 
ATOM      8  C   UNL     1       1.456   5.270  19.606  0.00  0.00    +0.000 A 
ATOM      9  C   UNL     1       2.505   5.391  18.707  0.00  0.00    +0.000 A 
ATOM     10  C   UNL     1       3.104   6.535  18.012  0.00  0.00    +0.000 C 
ATOM     11  C   UNL     1       2.824   7.843  18.143  0.00  0.00    +0.000 C 
ENDROOT
BRANCH  11  12
ATOM     12  C   UNL     1       1.846   8.475  19.028  0.00  0.00    +0.000 A 
ATOM     13  C   UNL     1       1.806   8.150  20.386  0.00  0.00    +0.000 A 
ATOM     14  C   UNL     1       0.805   8.679  21.201  0.00  0.00    +0.000 A 
ATOM     15  C   UNL     1      -0.163   9.528  20.659  0.00  0.00    +0.000 A 
ATOM     16  C   UNL     1      -0.127   9.871  19.303  0.00  0.00    +0.000 A 
ATOM     17  C   UNL     1      -1.166  10.769  18.702  0.00  0.00    +0.000 C 
ATOM     18  C   UNL     1       0.895   9.353  18.496  0.00  0.00    +0.000 A 
ENDBRANCH  11  12
BRANCH   3  19
ATOM     19  C   UNL     1       5.085   3.658  16.555  0.00  0.00    +0.000 C 
BRANCH  19  20
ATOM     20  C   UNL     1       6.481   4.129  16.167  0.00  0.00    +0.000 C 
ATOM     21  O   UNL     1       7.346   4.406  16.994  0.00  0.00    +0.000 OA
BRANCH  20  22
ATOM     22  O   UNL     1       6.740   4.152  14.841  0.00  0.00    +0.000 OA
ATOM     23  H   UNL     1       6.970   5.035  14.503  0.00  0.00    +0.000 HD
ENDBRANCH  20  22
ENDBRANCH  19  20
ENDBRANCH   3  19
TORSDOF 4
ENDMDL
MODEL 7
REMARK VINA RESULT:      -7.2      0.776      1.657
REMARK  Name = 
REMARK  6 active torsions:
REMARK  status: ('A' for Active; 'I' for Inactive)
REMARK    1  A    between atoms: C_1  and  C_2
REMARK    2  A    between atoms: C_3  and  C_4
REMARK    3  A    between atoms: C_4  and  C_5
REMARK    4  A    between atoms: C_5  and  O_7
REMARK    5  A    between atoms: C_15  and  C_16
REMARK    6  A    between atoms: C_20  and  C_21
REMARK                            x       y       z     vdW  Elec       q    Type
REMARK                         _______ _______ _______ _____ _____    ______ ____
ROOT
ATOM      1  C   UNL     1       5.797   6.898  16.245  0.00  0.00    +0.000 C 
ATOM      2  C   UNL     1       4.828   5.925  16.829  0.00  0.00    +0.000 C 
ATOM      3  C   UNL     1       4.812   4.573  16.728  0.00  0.00    +0.000 C 
ATOM      4  C   UNL     1       3.590   4.092  17.403  0.00  0.00    +0.000 A 
ATOM      5  C   UNL     1       3.118   2.796  17.557  0.00  0.00    +0.000 A 
ATOM      6  C   UNL     1       1.900   2.598  18.211  0.00  0.00    +0.000 A 
ATOM      7  C   UNL     1       1.159   3.690  18.688  0.00  0.00    +0.000 A 
ATOM      8  C   UNL     1       1.636   4.993  18.537  0.00  0.00    +0.000 A 
ATOM      9  C   UNL     1       2.857   5.183  17.909  0.00  0.00    +0.000 A 
ATOM     10  C   UNL     1       3.647   6.378  17.592  0.00  0.00    +0.000 C 
ATOM     11  C   UNL     1       3.412   7.658  17.923  0.00  0.00    +0.000 C 
ENDROOT
BRANCH  11  12
ATOM     12  C   UNL     1       2.299   8.201  18.703  0.00  0.00    +0.000 A 
ATOM     13  C   UNL     1       2.116   7.821  20.035  0.00  0.00    +0.000 A 
ATOM     14  C   UNL     1       0.996   8.263  20.739  0.00  0.00    +0.000 A 
ATOM     15  C   UNL     1       0.051   9.077  20.111  0.00  0.00    +0.000 A 
ATOM     16  C   UNL     1       0.228   9.474  18.781  0.00  0.00    +0.000 A 
ATOM     17  C   UNL     1      -0.783  10.337  18.087  0.00  0.00    +0.000 C 
ATOM     18  C   UNL     1       1.368   9.045  18.087  0.00  0.00    +0.000 A 
ENDBRANCH  11  12
BRANCH   3  19
ATOM     19  C   UNL     1       5.750   3.654  16.015  0.00  0.00    +0.000 C 
BRANCH  19  20
ATOM     20  C   UNL     1       6.225   4.113  14.643  0.00  0.00    +0.000 C 
ATOM     21  O   UNL     1       5.514   4.066  13.641  0.00  0.00    +0.000 OA
BRANCH  20  22
ATOM     22  O   UNL     1       7.463   4.652  14.604  0.00  0.00    +0.000 OA
ATOM     23  H   UNL     1       7.530   5.438  14.034  0.00  0.00    +0.000 HD
ENDBRANCH  20  22
ENDBRANCH  19  20
ENDBRANCH   3  19
TORSDOF 4
ENDMDL
MODEL 8
REMARK VINA RESULT:      -7.2      1.971      2.277
REMARK  Name = 
REMARK  6 active torsions:
REMARK  status: ('A' for Active; 'I' for Inactive)
REMARK    1  A    between atoms: C_1  and  C_2
REMARK    2  A    between atoms: C_3  and  C_4
REMARK    3  A    between atoms: C_4  and  C_5
REMARK    4  A    between atoms: C_5  and  O_7
REMARK    5  A    between atoms: C_15  and  C_16
REMARK    6  A    between atoms: C_20  and  C_21
REMARK                            x       y       z     vdW  Elec       q    Type
REMARK                         _______ _______ _______ _____ _____    ______ ____
ROOT
ATOM      1  C   UNL     1       4.913   7.086  16.032  0.00  0.00    +0.000 C 
ATOM      2  C   UNL     1       4.282   6.537  17.268  0.00  0.00    +0.000 C 
ATOM      3  C   UNL     1       4.573   5.394  17.938  0.00  0.00    +0.000 C 
ATOM      4  C   UNL     1       3.593   5.262  19.035  0.00  0.00    +0.000 A 
ATOM      5  C   UNL     1       3.463   4.260  19.987  0.00  0.00    +0.000 A 
ATOM      6  C   UNL     1       2.419   4.343  20.910  0.00  0.00    +0.000 A 
ATOM      7  C   UNL     1       1.508   5.410  20.866  0.00  0.00    +0.000 A 
ATOM      8  C   UNL     1       1.642   6.419  19.912  0.00  0.00    +0.000 A 
ATOM      9  C   UNL     1       2.695   6.346  19.013  0.00  0.00    +0.000 A 
ATOM     10  C   UNL     1       3.135   7.209  17.911  0.00  0.00    +0.000 C 
ATOM     11  C   UNL     1       2.648   8.400  17.525  0.00  0.00    +0.000 C 
ENDROOT
BRANCH  11  12
ATOM     12  C   UNL     1       1.547   9.162  18.115  0.00  0.00    +0.000 A 
ATOM     13  C   UNL     1       0.271   9.116  17.548  0.00  0.00    +0.000 A 
ATOM     14  C   UNL     1      -0.746   9.925  18.055  0.00  0.00    +0.000 A 
ATOM     15  C   UNL     1      -0.489  10.787  19.123  0.00  0.00    +0.000 A 
ATOM     16  C   UNL     1       0.782  10.834  19.707  0.00  0.00    +0.000 A 
ATOM     17  C   UNL     1       1.079  11.764  20.845  0.00  0.00    +0.000 C 
ATOM     18  C   UNL     1       1.793  10.002  19.207  0.00  0.00    +0.000 A 
ENDBRANCH  11  12
BRANCH   3  19
ATOM     19  C   UNL     1       5.602   4.350  17.650  0.00  0.00    +0.000 C 
BRANCH  19  20
ATOM     20  C   UNL     1       7.035   4.697  18.032  0.00  0.00    +0.000 C 
ATOM     21  O   UNL     1       7.340   5.157  19.131  0.00  0.00    +0.000 OA
BRANCH  20  22
ATOM     22  O   UNL     1       7.973   4.397  17.108  0.00  0.00    +0.000 OA
ATOM     23  H   UNL     1       8.886   4.523  17.422  0.00  0.00    +0.000 HD
ENDBRANCH  20  22
ENDBRANCH  19  20
ENDBRANCH   3  19
TORSDOF 4
ENDMDL
MODEL 9
REMARK VINA RESULT:      -7.1      1.199      1.383
REMARK  Name = 
REMARK  6 active torsions:
REMARK  status: ('A' for Active; 'I' for Inactive)
REMARK    1  A    between atoms: C_1  and  C_2
REMARK    2  A    between atoms: C_3  and  C_4
REMARK    3  A    between atoms: C_4  and  C_5
REMARK    4  A    between atoms: C_5  and  O_7
REMARK    5  A    between atoms: C_15  and  C_16
REMARK    6  A    between atoms: C_20  and  C_21
REMARK                            x       y       z     vdW  Elec       q    Type
REMARK                         _______ _______ _______ _____ _____    ______ ____
ROOT
ATOM      1  C   UNL     1       6.035   7.709  17.031  0.00  0.00    +0.000 C 
ATOM      2  C   UNL     1       5.025   6.652  17.329  0.00  0.00    +0.000 C 
ATOM      3  C   UNL     1       5.135   5.307  17.201  0.00  0.00    +0.000 C 
ATOM      4  C   UNL     1       3.820   4.720  17.532  0.00  0.00    +0.000 A 
ATOM      5  C   UNL     1       3.422   3.391  17.535  0.00  0.00    +0.000 A 
ATOM      6  C   UNL     1       2.096   3.088  17.853  0.00  0.00    +0.000 A 
ATOM      7  C   UNL     1       1.180   4.110  18.146  0.00  0.00    +0.000 A 
ATOM      8  C   UNL     1       1.582   5.446  18.148  0.00  0.00    +0.000 A 
ATOM      9  C   UNL     1       2.905   5.740  17.856  0.00  0.00    +0.000 A 
ATOM     10  C   UNL     1       3.659   6.996  17.775  0.00  0.00    +0.000 C 
ATOM     11  C   UNL     1       3.253   8.244  18.060  0.00  0.00    +0.000 C 
ENDROOT
BRANCH  11  12
ATOM     12  C   UNL     1       1.943   8.682  18.541  0.00  0.00    +0.000 A 
ATOM     13  C   UNL     1       1.037   9.292  17.670  0.00  0.00    +0.000 A 
ATOM     14  C   UNL     1      -0.167   9.799  18.160  0.00  0.00    +0.000 A 
ATOM     15  C   UNL     1      -0.465   9.705  19.521  0.00  0.00    +0.000 A 
ATOM     16  C   UNL     1       0.429   9.086  20.401  0.00  0.00    +0.000 A 
ATOM     17  C   UNL     1       0.132   8.989  21.868  0.00  0.00    +0.000 C 
ATOM     18  C   UNL     1       1.627   8.559  19.899  0.00  0.00    +0.000 A 
ENDBRANCH  11  12
BRANCH   3  19
ATOM     19  C   UNL     1       6.288   4.480  16.732  0.00  0.00    +0.000 C 
BRANCH  19  20
ATOM     20  C   UNL     1       7.475   4.384  17.681  0.00  0.00    +0.000 C 
ATOM     21  O   UNL     1       8.600   4.058  17.312  0.00  0.00    +0.000 OA
BRANCH  20  22
ATOM     22  O   UNL     1       7.231   4.756  18.957  0.00  0.00    +0.000 OA
ATOM     23  H   UNL     1       6.458   5.339  19.054  0.00  0.00    +0.000 HD
ENDBRANCH  20  22
ENDBRANCH  19  20
ENDBRANCH   3  19
TORSDOF 4
ENDMDL
