MODEL 1
REMARK VINA RESULT:      -8.5      0.000      0.000
REMARK  Name = 
REMARK  6 active torsions:
REMARK  status: ('A' for Active; 'I' for Inactive)
REMARK    1  A    between atoms: C_1  and  C_2
REMARK    2  A    between atoms: C_2  and  O_3
REMARK    3  A    between atoms: O_3  and  C_4
REMARK    4  A    between atoms: N_7  and  C_8
REMARK    5  A    between atoms: C_8  and  C_9
REMARK    6  A    between atoms: C_8  and  C_10
REMARK                            x       y       z     vdW  Elec       q    Type
REMARK                         _______ _______ _______ _____ _____    ______ ____
ROOT
ATOM      1  C   UNL     1       0.889   9.224  20.743  0.00  0.00    +0.000 A 
ATOM      2  N   UNL     1       0.128   9.920  19.913  0.00  0.00    +0.000 NA
ATOM      3  C   UNL     1       0.330   9.651  18.634  0.00  0.00    +0.000 A 
ATOM      4  N   UNL     1      -0.385  10.306  17.646  0.00  0.00    +0.000 N 
ATOM      5  N   UNL     1       1.224   8.778  18.187  0.00  0.00    +0.000 NA
ATOM      6  C   UNL     1       1.925   8.108  19.098  0.00  0.00    +0.000 A 
ATOM      7  N   UNL     1       2.786   7.116  18.665  0.00  0.00    +0.000 N 
ATOM      8  C   UNL     1       3.536   6.352  19.656  0.00  0.00    +0.000 C 
ATOM      9  C   UNL     1       3.902   4.950  19.082  0.00  0.00    +0.000 C 
ATOM     10  C   UNL     1       3.737   4.873  17.562  0.00  0.00    +0.000 C 
ATOM     11  C   UNL     1       4.377   6.152  17.005  0.00  0.00    +0.000 C 
ATOM     12  C   UNL     1       3.370   7.289  17.328  0.00  0.00    +0.000 C 
ATOM     13  C   UNL     1       5.782   6.408  17.593  0.00  0.00    +0.000 A 
ATOM     14  C   UNL     1       6.558   7.395  17.124  0.00  0.00    +0.000 A 
ATOM     15  C   UNL     1       7.832   7.691  17.730  0.00  0.00    +0.000 A 
ATOM     16  C   UNL     1       8.314   6.928  18.716  0.00  0.00    +0.000 A 
ATOM     17  C   UNL     1       7.518   5.788  19.226  0.00  0.00    +0.000 A 
ATOM     18  O   UNL     1       7.982   5.085  20.121  0.00  0.00    +0.000 OA
ATOM     19  N   UNL     1       6.244   5.633  18.675  0.00  0.00    +0.000 N 
ATOM     20  C   UNL     1       5.376   4.655  19.331  0.00  0.00    +0.000 C 
ATOM     21  N   UNL     1       1.782   8.306  20.399  0.00  0.00    +0.000 NA
ATOM     22  H   UNL     1      -0.212   9.816  16.776  0.00  0.00    +0.000 HD
ENDROOT
BRANCH   4  23
ATOM     23  C   UNL     1      -1.772  10.663  17.904  0.00  0.00    +0.000 C 
ATOM     24  C   UNL     1      -1.827  12.175  18.127  0.00  0.00    +0.000 C 
ATOM     25  C   UNL     1      -2.652  10.280  16.715  0.00  0.00    +0.000 C 
ENDBRANCH   4  23
BRANCH   1  26
ATOM     26  O   UNL     1       0.733   9.537  22.079  0.00  0.00    +0.000 OA
BRANCH  26  28
ATOM     27  C   UNL     1      -1.118  10.597  23.158  0.00  0.00    +0.000 C 
ATOM     28  C   UNL     1      -0.596   9.308  22.549  0.00  0.00    +0.000 C 
ENDBRANCH  26  28
ENDBRANCH   1  26
TORSDOF 3
ENDMDL
MODEL 2
REMARK VINA RESULT:      -7.3      2.256      7.943
REMARK  Name = 
REMARK  6 active torsions:
REMARK  status: ('A' for Active; 'I' for Inactive)
REMARK    1  A    between atoms: C_1  and  C_2
REMARK    2  A    between atoms: C_2  and  O_3
REMARK    3  A    between atoms: O_3  and  C_4
REMARK    4  A    between atoms: N_7  and  C_8
REMARK    5  A    between atoms: C_8  and  C_9
REMARK    6  A    between atoms: C_8  and  C_10
REMARK                            x       y       z     vdW  Elec       q    Type
REMARK                         _______ _______ _______ _____ _____    ______ ____
ROOT
ATOM      1  C   UNL     1       1.965   6.264  20.264  0.00  0.00    +0.000 A 
ATOM      2  N   UNL     1       2.765   5.868  19.287  0.00  0.00    +0.000 NA
ATOM      3  C   UNL     1       3.056   6.809  18.405  0.00  0.00    +0.000 A 
ATOM      4  N   UNL     1       3.875   6.543  17.321  0.00  0.00    +0.000 N 
ATOM      5  N   UNL     1       2.587   8.049  18.455  0.00  0.00    +0.000 NA
ATOM      6  C   UNL     1       1.809   8.362  19.488  0.00  0.00    +0.000 A 
ATOM      7  N   UNL     1       1.393   9.673  19.624  0.00  0.00    +0.000 N 
ATOM      8  C   UNL     1       0.566  10.036  20.771  0.00  0.00    +0.000 C 
ATOM      9  C   UNL     1       0.747  11.548  21.101  0.00  0.00    +0.000 C 
ATOM     10  C   UNL     1       1.406  12.327  19.959  0.00  0.00    +0.000 C 
ATOM     11  C   UNL     1       0.697  11.872  18.676  0.00  0.00    +0.000 C 
ATOM     12  C   UNL     1       1.248  10.450  18.385  0.00  0.00    +0.000 C 
ATOM     13  C   UNL     1      -0.842  11.905  18.814  0.00  0.00    +0.000 A 
ATOM     14  C   UNL     1      -1.634  11.681  17.757  0.00  0.00    +0.000 A 
ATOM     15  C   UNL     1      -3.067  11.624  17.902  0.00  0.00    +0.000 A 
ATOM     16  C   UNL     1      -3.647  11.886  19.077  0.00  0.00    +0.000 A 
ATOM     17  C   UNL     1      -2.813  12.200  20.260  0.00  0.00    +0.000 A 
ATOM     18  O   UNL     1      -3.360  12.455  21.330  0.00  0.00    +0.000 OA
ATOM     19  N   UNL     1      -1.430  12.120  20.075  0.00  0.00    +0.000 N 
ATOM     20  C   UNL     1      -0.615  12.205  21.287  0.00  0.00    +0.000 C 
ATOM     21  N   UNL     1       1.474   7.486  20.422  0.00  0.00    +0.000 NA
ATOM     22  H   UNL     1       4.113   7.433  16.899  0.00  0.00    +0.000 HD
ENDROOT
BRANCH   4  23
ATOM     23  C   UNL     1       4.979   5.609  17.490  0.00  0.00    +0.000 C 
ATOM     24  C   UNL     1       4.966   4.655  16.296  0.00  0.00    +0.000 C 
ATOM     25  C   UNL     1       6.310   6.360  17.541  0.00  0.00    +0.000 C 
ENDBRANCH   4  23
BRANCH   1  26
ATOM     26  O   UNL     1       1.603   5.277  21.159  0.00  0.00    +0.000 OA
BRANCH  26  28
ATOM     27  C   UNL     1       1.759   2.909  21.453  0.00  0.00    +0.000 C 
ATOM     28  C   UNL     1       1.326   4.029  20.523  0.00  0.00    +0.000 C 
ENDBRANCH  26  28
ENDBRANCH   1  26
TORSDOF 3
ENDMDL
MODEL 3
REMARK VINA RESULT:      -6.8      2.776      4.881
REMARK  Name = 
REMARK  6 active torsions:
REMARK  status: ('A' for Active; 'I' for Inactive)
REMARK    1  A    between atoms: C_1  and  C_2
REMARK    2  A    between atoms: C_2  and  O_3
REMARK    3  A    between atoms: O_3  and  C_4
REMARK    4  A    between atoms: N_7  and  C_8
REMARK    5  A    between atoms: C_8  and  C_9
REMARK    6  A    between atoms: C_8  and  C_10
REMARK                            x       y       z     vdW  Elec       q    Type
REMARK                         _______ _______ _______ _____ _____    ______ ____
ROOT
ATOM      1  C   UNL     1      -0.613  10.463  18.213  0.00  0.00    +0.000 A 
ATOM      2  N   UNL     1      -0.798  11.213  19.289  0.00  0.00    +0.000 NA
ATOM      3  C   UNL     1      -0.101  10.831  20.345  0.00  0.00    +0.000 A 
ATOM      4  N   UNL     1      -0.195  11.512  21.547  0.00  0.00    +0.000 N 
ATOM      5  N   UNL     1       0.709   9.779  20.365  0.00  0.00    +0.000 NA
ATOM      6  C   UNL     1       0.848   9.101  19.230  0.00  0.00    +0.000 A 
ATOM      7  N   UNL     1       1.765   8.066  19.191  0.00  0.00    +0.000 N 
ATOM      8  C   UNL     1       1.952   7.336  17.942  0.00  0.00    +0.000 C 
ATOM      9  C   UNL     1       3.381   6.714  17.897  0.00  0.00    +0.000 C 
ATOM     10  C   UNL     1       4.059   6.692  19.269  0.00  0.00    +0.000 C 
ATOM     11  C   UNL     1       2.998   6.177  20.252  0.00  0.00    +0.000 C 
ATOM     12  C   UNL     1       2.017   7.363  20.457  0.00  0.00    +0.000 C 
ATOM     13  C   UNL     1       2.299   4.898  19.743  0.00  0.00    +0.000 A 
ATOM     14  C   UNL     1       1.447   4.219  20.524  0.00  0.00    +0.000 A 
ATOM     15  C   UNL     1       0.727   3.076  20.019  0.00  0.00    +0.000 A 
ATOM     16  C   UNL     1       0.961   2.608  18.789  0.00  0.00    +0.000 A 
ATOM     17  C   UNL     1       1.940   3.291  17.912  0.00  0.00    +0.000 A 
ATOM     18  O   UNL     1       2.156   2.839  16.789  0.00  0.00    +0.000 OA
ATOM     19  N   UNL     1       2.511   4.459  18.421  0.00  0.00    +0.000 N 
ATOM     20  C   UNL     1       3.299   5.252  17.477  0.00  0.00    +0.000 C 
ATOM     21  N   UNL     1       0.198   9.418  18.122  0.00  0.00    +0.000 NA
ATOM     22  H   UNL     1       0.552  11.175  22.142  0.00  0.00    +0.000 HD
ENDROOT
BRANCH   4  23
ATOM     23  C   UNL     1      -0.378  12.956  21.521  0.00  0.00    +0.000 C 
ATOM     24  C   UNL     1      -0.983  13.370  22.862  0.00  0.00    +0.000 C 
ATOM     25  C   UNL     1       0.963  13.661  21.315  0.00  0.00    +0.000 C 
ENDBRANCH   4  23
BRANCH   1  26
ATOM     26  O   UNL     1      -1.380  10.813  17.119  0.00  0.00    +0.000 OA
BRANCH  26  28
ATOM     27  C   UNL     1      -2.949  10.004  15.506  0.00  0.00    +0.000 C 
ATOM     28  C   UNL     1      -2.534   9.985  16.967  0.00  0.00    +0.000 C 
ENDBRANCH  26  28
ENDBRANCH   1  26
TORSDOF 3
ENDMDL
MODEL 4
REMARK VINA RESULT:      -6.7      3.000      7.950
REMARK  Name = 
REMARK  6 active torsions:
REMARK  status: ('A' for Active; 'I' for Inactive)
REMARK    1  A    between atoms: C_1  and  C_2
REMARK    2  A    between atoms: C_2  and  O_3
REMARK    3  A    between atoms: O_3  and  C_4
REMARK    4  A    between atoms: N_7  and  C_8
REMARK    5  A    between atoms: C_8  and  C_9
REMARK    6  A    between atoms: C_8  and  C_10
REMARK                            x       y       z     vdW  Elec       q    Type
REMARK                         _______ _______ _______ _____ _____    ______ ____
ROOT
ATOM      1  C   UNL     1       3.059   7.604  18.059  0.00  0.00    +0.000 A 
ATOM      2  N   UNL     1       3.067   6.590  18.911  0.00  0.00    +0.000 NA
ATOM      3  C   UNL     1       2.243   6.734  19.935  0.00  0.00    +0.000 A 
ATOM      4  N   UNL     1       2.146   5.761  20.915  0.00  0.00    +0.000 N 
ATOM      5  N   UNL     1       1.475   7.799  20.132  0.00  0.00    +0.000 NA
ATOM      6  C   UNL     1       1.517   8.755  19.208  0.00  0.00    +0.000 A 
ATOM      7  N   UNL     1       0.650   9.826  19.330  0.00  0.00    +0.000 N 
ATOM      8  C   UNL     1       0.664  10.865  18.306  0.00  0.00    +0.000 C 
ATOM      9  C   UNL     1      -0.723  11.574  18.249  0.00  0.00    +0.000 C 
ATOM     10  C   UNL     1      -1.584  11.288  19.482  0.00  0.00    +0.000 C 
ATOM     11  C   UNL     1      -0.654  11.457  20.691  0.00  0.00    +0.000 C 
ATOM     12  C   UNL     1       0.249  10.194  20.695  0.00  0.00    +0.000 C 
ATOM     13  C   UNL     1       0.152  12.773  20.631  0.00  0.00    +0.000 A 
ATOM     14  C   UNL     1       0.909  13.167  21.664  0.00  0.00    +0.000 A 
ATOM     15  C   UNL     1       1.731  14.349  21.575  0.00  0.00    +0.000 A 
ATOM     16  C   UNL     1       1.686  15.133  20.494  0.00  0.00    +0.000 A 
ATOM     17  C   UNL     1       0.817  14.770  19.351  0.00  0.00    +0.000 A 
ATOM     18  O   UNL     1       0.774  15.509  18.371  0.00  0.00    +0.000 OA
ATOM     19  N   UNL     1       0.141  13.551  19.457  0.00  0.00    +0.000 N 
ATOM     20  C   UNL     1      -0.534  13.085  18.246  0.00  0.00    +0.000 C 
ATOM     21  N   UNL     1       2.305   8.690  18.146  0.00  0.00    +0.000 NA
ATOM     22  H   UNL     1       1.335   5.985  21.480  0.00  0.00    +0.000 HD
ENDROOT
BRANCH   4  23
ATOM     23  C   UNL     1       2.283   4.364  20.531  0.00  0.00    +0.000 C 
ATOM     24  C   UNL     1       2.303   3.531  21.812  0.00  0.00    +0.000 C 
ATOM     25  C   UNL     1       1.108   3.936  19.650  0.00  0.00    +0.000 C 
ENDBRANCH   4  23
BRANCH   1  26
ATOM     26  O   UNL     1       3.959   7.496  17.016  0.00  0.00    +0.000 OA
BRANCH  26  28
ATOM     27  C   UNL     1       5.249   5.875  15.824  0.00  0.00    +0.000 C 
ATOM     28  C   UNL     1       4.882   6.420  17.192  0.00  0.00    +0.000 C 
ENDBRANCH  26  28
ENDBRANCH   1  26
TORSDOF 3
ENDMDL
MODEL 5
REMARK VINA RESULT:      -6.6      1.484      1.848
REMARK  Name = 
REMARK  6 active torsions:
REMARK  status: ('A' for Active; 'I' for Inactive)
REMARK    1  A    between atoms: C_1  and  C_2
REMARK    2  A    between atoms: C_2  and  O_3
REMARK    3  A    between atoms: O_3  and  C_4
REMARK    4  A    between atoms: N_7  and  C_8
REMARK    5  A    between atoms: C_8  and  C_9
REMARK    6  A    between atoms: C_8  and  C_10
REMARK                            x       y       z     vdW  Elec       q    Type
REMARK                         _______ _______ _______ _____ _____    ______ ____
ROOT
ATOM      1  C   UNL     1       1.045   9.793  21.543  0.00  0.00    +0.000 A 
ATOM      2  N   UNL     1       0.716  10.872  20.850  0.00  0.00    +0.000 NA
ATOM      3  C   UNL     1       0.847  10.740  19.542  0.00  0.00    +0.000 A 
ATOM      4  N   UNL     1       0.549  11.787  18.686  0.00  0.00    +0.000 N 
ATOM      5  N   UNL     1       1.286   9.640  18.942  0.00  0.00    +0.000 NA
ATOM      6  C   UNL     1       1.568   8.599  19.720  0.00  0.00    +0.000 A 
ATOM      7  N   UNL     1       1.926   7.406  19.117  0.00  0.00    +0.000 N 
ATOM      8  C   UNL     1       2.206   6.247  19.957  0.00  0.00    +0.000 C 
ATOM      9  C   UNL     1       1.946   4.935  19.158  0.00  0.00    +0.000 C 
ATOM     10  C   UNL     1       1.846   5.172  17.649  0.00  0.00    +0.000 C 
ATOM     11  C   UNL     1       3.015   6.102  17.293  0.00  0.00    +0.000 C 
ATOM     12  C   UNL     1       2.597   7.504  17.813  0.00  0.00    +0.000 C 
ATOM     13  C   UNL     1       4.355   5.614  17.886  0.00  0.00    +0.000 A 
ATOM     14  C   UNL     1       5.510   6.212  17.567  0.00  0.00    +0.000 A 
ATOM     15  C   UNL     1       6.750   5.815  18.187  0.00  0.00    +0.000 A 
ATOM     16  C   UNL     1       6.791   4.776  19.028  0.00  0.00    +0.000 A 
ATOM     17  C   UNL     1       5.547   4.046  19.364  0.00  0.00    +0.000 A 
ATOM     18  O   UNL     1       5.604   3.083  20.125  0.00  0.00    +0.000 OA
ATOM     19  N   UNL     1       4.367   4.559  18.820  0.00  0.00    +0.000 N 
ATOM     20  C   UNL     1       3.123   3.982  19.327  0.00  0.00    +0.000 C 
ATOM     21  N   UNL     1       1.457   8.638  21.038  0.00  0.00    +0.000 NA
ATOM     22  H   UNL     1       0.535  11.410  17.745  0.00  0.00    +0.000 HD
ENDROOT
BRANCH   4  23
ATOM     23  C   UNL     1      -0.549  12.679  19.025  0.00  0.00    +0.000 C 
ATOM     24  C   UNL     1      -0.146  14.092  18.604  0.00  0.00    +0.000 C 
ATOM     25  C   UNL     1      -1.823  12.261  18.290  0.00  0.00    +0.000 C 
ENDBRANCH   4  23
BRANCH   1  26
ATOM     26  O   UNL     1       0.971   9.935  22.915  0.00  0.00    +0.000 OA
BRANCH  26  28
ATOM     27  C   UNL     1      -1.255  10.761  23.193  0.00  0.00    +0.000 C 
ATOM     28  C   UNL     1      -0.315   9.595  23.437  0.00  0.00    +0.000 C 
ENDBRANCH  26  28
ENDBRANCH   1  26
TORSDOF 3
ENDMDL
MODEL 6
REMARK VINA RESULT:      -6.5      4.514      7.903
REMARK  Name = 
REMARK  6 active torsions:
REMARK  status: ('A' for Active; 'I' for Inactive)
REMARK    1  A    between atoms: C_1  and  C_2
REMARK    2  A    between atoms: C_2  and  O_3
REMARK    3  A    between atoms: O_3  and  C_4
REMARK    4  A    between atoms: N_7  and  C_8
REMARK    5  A    between atoms: C_8  and  C_9
REMARK    6  A    between atoms: C_8  and  C_10
REMARK                            x       y       z     vdW  Elec       q    Type
REMARK                         _______ _______ _______ _____ _____    ______ ____
ROOT
ATOM      1  C   UNL     1      -5.472  12.517  19.757  0.00  0.00    +0.000 A 
ATOM      2  N   UNL     1      -6.055  12.837  20.903  0.00  0.00    +0.000 NA
ATOM      3  C   UNL     1      -5.213  13.078  21.893  0.00  0.00    +0.000 A 
ATOM      4  N   UNL     1      -5.672  13.417  23.154  0.00  0.00    +0.000 N 
ATOM      5  N   UNL     1      -3.892  12.996  21.787  0.00  0.00    +0.000 NA
ATOM      6  C   UNL     1      -3.399  12.691  20.590  0.00  0.00    +0.000 A 
ATOM      7  N   UNL     1      -2.026  12.703  20.423  0.00  0.00    +0.000 N 
ATOM      8  C   UNL     1      -1.473  12.403  19.106  0.00  0.00    +0.000 C 
ATOM      9  C   UNL     1      -0.074  13.072  18.951  0.00  0.00    +0.000 C 
ATOM     10  C   UNL     1       0.516  13.526  20.289  0.00  0.00    +0.000 C 
ATOM     11  C   UNL     1       0.297  12.357  21.261  0.00  0.00    +0.000 C 
ATOM     12  C   UNL     1      -1.216  12.391  21.609  0.00  0.00    +0.000 C 
ATOM     13  C   UNL     1       0.748  11.006  20.664  0.00  0.00    +0.000 A 
ATOM     14  C   UNL     1       0.769   9.894  21.412  0.00  0.00    +0.000 A 
ATOM     15  C   UNL     1       1.105   8.617  20.834  0.00  0.00    +0.000 A 
ATOM     16  C   UNL     1       1.494   8.524  19.558  0.00  0.00    +0.000 A 
ATOM     17  C   UNL     1       1.544   9.737  18.710  0.00  0.00    +0.000 A 
ATOM     18  O   UNL     1       1.919   9.639  17.544  0.00  0.00    +0.000 OA
ATOM     19  N   UNL     1       1.092  10.919  19.301  0.00  0.00    +0.000 N 
ATOM     20  C   UNL     1       0.927  12.063  18.404  0.00  0.00    +0.000 C 
ATOM     21  N   UNL     1      -4.167  12.444  19.541  0.00  0.00    +0.000 NA
ATOM     22  H   UNL     1      -4.874  13.739  23.687  0.00  0.00    +0.000 HD
ENDROOT
BRANCH   4  23
ATOM     23  C   UNL     1      -6.876  14.228  23.266  0.00  0.00    +0.000 C 
ATOM     24  C   UNL     1      -7.722  13.647  24.399  0.00  0.00    +0.000 C 
ATOM     25  C   UNL     1      -6.513  15.680  23.579  0.00  0.00    +0.000 C 
ENDBRANCH   4  23
BRANCH   1  26
ATOM     26  O   UNL     1      -6.340  12.203  18.729  0.00  0.00    +0.000 OA
BRANCH  26  28
ATOM     27  C   UNL     1      -6.896   9.916  19.152  0.00  0.00    +0.000 C 
ATOM     28  C   UNL     1      -6.155  10.875  18.237  0.00  0.00    +0.000 C 
ENDBRANCH  26  28
ENDBRANCH   1  26
TORSDOF 3
ENDMDL
MODEL 7
REMARK VINA RESULT:      -6.5      5.181     10.703
REMARK  Name = 
REMARK  6 active torsions:
REMARK  status: ('A' for Active; 'I' for Inactive)
REMARK    1  A    between atoms: C_1  and  C_2
REMARK    2  A    between atoms: C_2  and  O_3
REMARK    3  A    between atoms: O_3  and  C_4
REMARK    4  A    between atoms: N_7  and  C_8
REMARK    5  A    between atoms: C_8  and  C_9
REMARK    6  A    between atoms: C_8  and  C_10
REMARK                            x       y       z     vdW  Elec       q    Type
REMARK                         _______ _______ _______ _____ _____    ______ ____
ROOT
ATOM      1  C   UNL     1       0.122  11.320  21.884  0.00  0.00    +0.000 A 
ATOM      2  N   UNL     1       0.877  11.920  20.976  0.00  0.00    +0.000 NA
ATOM      3  C   UNL     1       0.324  12.988  20.428  0.00  0.00    +0.000 A 
ATOM      4  N   UNL     1       0.988  13.717  19.457  0.00  0.00    +0.000 N 
ATOM      5  N   UNL     1      -0.890  13.436  20.725  0.00  0.00    +0.000 NA
ATOM      6  C   UNL     1      -1.564  12.781  21.667  0.00  0.00    +0.000 A 
ATOM      7  N   UNL     1      -2.785  13.287  22.073  0.00  0.00    +0.000 N 
ATOM      8  C   UNL     1      -3.519  12.596  23.129  0.00  0.00    +0.000 C 
ATOM      9  C   UNL     1      -4.459  13.597  23.866  0.00  0.00    +0.000 C 
ATOM     10  C   UNL     1      -4.664  14.899  23.086  0.00  0.00    +0.000 C 
ATOM     11  C   UNL     1      -4.930  14.481  21.633  0.00  0.00    +0.000 C 
ATOM     12  C   UNL     1      -3.549  14.046  21.072  0.00  0.00    +0.000 C 
ATOM     13  C   UNL     1      -5.999  13.371  21.529  0.00  0.00    +0.000 A 
ATOM     14  C   UNL     1      -6.469  12.975  20.338  0.00  0.00    +0.000 A 
ATOM     15  C   UNL     1      -7.401  11.880  20.235  0.00  0.00    +0.000 A 
ATOM     16  C   UNL     1      -7.891  11.292  21.331  0.00  0.00    +0.000 A 
ATOM     17  C   UNL     1      -7.445  11.737  22.671  0.00  0.00    +0.000 A 
ATOM     18  O   UNL     1      -7.916  11.198  23.670  0.00  0.00    +0.000 OA
ATOM     19  N   UNL     1      -6.453  12.721  22.693  0.00  0.00    +0.000 N 
ATOM     20  C   UNL     1      -5.854  12.998  23.998  0.00  0.00    +0.000 C 
ATOM     21  N   UNL     1      -1.084  11.708  22.276  0.00  0.00    +0.000 NA
ATOM     22  H   UNL     1       0.473  14.580  19.325  0.00  0.00    +0.000 HD
ENDROOT
BRANCH   4  23
ATOM     23  C   UNL     1       2.434  13.852  19.549  0.00  0.00    +0.000 C 
ATOM     24  C   UNL     1       2.950  14.261  18.169  0.00  0.00    +0.000 C 
ATOM     25  C   UNL     1       2.806  14.917  20.581  0.00  0.00    +0.000 C 
ENDBRANCH   4  23
BRANCH   1  26
ATOM     26  O   UNL     1       0.661  10.167  22.422  0.00  0.00    +0.000 OA
BRANCH  26  28
ATOM     27  C   UNL     1       1.124   8.162  21.204  0.00  0.00    +0.000 C 
ATOM     28  C   UNL     1       0.055   8.981  21.906  0.00  0.00    +0.000 C 
ENDBRANCH  26  28
ENDBRANCH   1  26
TORSDOF 3
ENDMDL
MODEL 8
REMARK VINA RESULT:      -6.4      4.422      9.002
REMARK  Name = 
REMARK  6 active torsions:
REMARK  status: ('A' for Active; 'I' for Inactive)
REMARK    1  A    between atoms: C_1  and  C_2
REMARK    2  A    between atoms: C_2  and  O_3
REMARK    3  A    between atoms: O_3  and  C_4
REMARK    4  A    between atoms: N_7  and  C_8
REMARK    5  A    between atoms: C_8  and  C_9
REMARK    6  A    between atoms: C_8  and  C_10
REMARK                            x       y       z     vdW  Elec       q    Type
REMARK                         _______ _______ _______ _____ _____    ______ ____
ROOT
ATOM      1  C   UNL     1      -0.826  10.409  17.912  0.00  0.00    +0.000 A 
ATOM      2  N   UNL     1       0.126   9.492  17.838  0.00  0.00    +0.000 NA
ATOM      3  C   UNL     1       1.305   9.894  18.280  0.00  0.00    +0.000 A 
ATOM      4  N   UNL     1       2.401   9.049  18.259  0.00  0.00    +0.000 N 
ATOM      5  N   UNL     1       1.551  11.112  18.747  0.00  0.00    +0.000 NA
ATOM      6  C   UNL     1       0.526  11.957  18.806  0.00  0.00    +0.000 A 
ATOM      7  N   UNL     1       0.728  13.196  19.386  0.00  0.00    +0.000 N 
ATOM      8  C   UNL     1      -0.397  14.120  19.486  0.00  0.00    +0.000 C 
ATOM      9  C   UNL     1      -0.173  15.105  20.674  0.00  0.00    +0.000 C 
ATOM     10  C   UNL     1       1.276  15.114  21.168  0.00  0.00    +0.000 C 
ATOM     11  C   UNL     1       2.149  15.177  19.907  0.00  0.00    +0.000 C 
ATOM     12  C   UNL     1       2.085  13.754  19.291  0.00  0.00    +0.000 C 
ATOM     13  C   UNL     1       1.686  16.279  18.928  0.00  0.00    +0.000 A 
ATOM     14  C   UNL     1       2.406  16.583  17.840  0.00  0.00    +0.000 A 
ATOM     15  C   UNL     1       1.931  17.548  16.880  0.00  0.00    +0.000 A 
ATOM     16  C   UNL     1       0.803  18.231  17.098  0.00  0.00    +0.000 A 
ATOM     17  C   UNL     1       0.005  17.972  18.319  0.00  0.00    +0.000 A 
ATOM     18  O   UNL     1      -1.021  18.620  18.514  0.00  0.00    +0.000 OA
ATOM     19  N   UNL     1       0.462  16.941  19.144  0.00  0.00    +0.000 N 
ATOM     20  C   UNL     1      -0.441  16.534  20.221  0.00  0.00    +0.000 C 
ATOM     21  N   UNL     1      -0.690  11.636  18.394  0.00  0.00    +0.000 NA
ATOM     22  H   UNL     1       3.129   9.488  18.811  0.00  0.00    +0.000 HD
ENDROOT
BRANCH   4  23
ATOM     23  C   UNL     1       2.195   7.628  18.501  0.00  0.00    +0.000 C 
ATOM     24  C   UNL     1       3.342   6.873  17.830  0.00  0.00    +0.000 C 
ATOM     25  C   UNL     1       2.189   7.338  20.002  0.00  0.00    +0.000 C 
ENDBRANCH   4  23
BRANCH   1  26
ATOM     26  O   UNL     1      -2.049  10.024  17.397  0.00  0.00    +0.000 OA
BRANCH  26  28
ATOM     27  C   UNL     1      -3.060  10.254  15.243  0.00  0.00    +0.000 C 
ATOM     28  C   UNL     1      -2.593  10.984  16.490  0.00  0.00    +0.000 C 
ENDBRANCH  26  28
ENDBRANCH   1  26
TORSDOF 3
ENDMDL
MODEL 9
REMARK VINA RESULT:      -6.4      5.308      8.031
REMARK  Name = 
REMARK  6 active torsions:
REMARK  status: ('A' for Active; 'I' for Inactive)
REMARK    1  A    between atoms: C_1  and  C_2
REMARK    2  A    between atoms: C_2  and  O_3
REMARK    3  A    between atoms: O_3  and  C_4
REMARK    4  A    between atoms: N_7  and  C_8
REMARK    5  A    between atoms: C_8  and  C_9
REMARK    6  A    between atoms: C_8  and  C_10
REMARK                            x       y       z     vdW  Elec       q    Type
REMARK                         _______ _______ _______ _____ _____    ______ ____
ROOT
ATOM      1  C   UNL     1       0.780  10.845  18.741  0.00  0.00    +0.000 A 
ATOM      2  N   UNL     1      -0.529  10.863  18.540  0.00  0.00    +0.000 NA
ATOM      3  C   UNL     1      -1.029  12.067  18.322  0.00  0.00    +0.000 A 
ATOM      4  N   UNL     1      -2.384  12.248  18.104  0.00  0.00    +0.000 N 
ATOM      5  N   UNL     1      -0.312  13.184  18.318  0.00  0.00    +0.000 NA
ATOM      6  C   UNL     1       0.999  13.063  18.505  0.00  0.00    +0.000 A 
ATOM      7  N   UNL     1       1.785  14.196  18.400  0.00  0.00    +0.000 N 
ATOM      8  C   UNL     1       3.229  14.072  18.570  0.00  0.00    +0.000 C 
ATOM      9  C   UNL     1       3.956  15.221  17.809  0.00  0.00    +0.000 C 
ATOM     10  C   UNL     1       3.012  16.362  17.420  0.00  0.00    +0.000 C 
ATOM     11  C   UNL     1       2.162  16.646  18.667  0.00  0.00    +0.000 C 
ATOM     12  C   UNL     1       1.148  15.474  18.749  0.00  0.00    +0.000 C 
ATOM     13  C   UNL     1       3.022  16.789  19.943  0.00  0.00    +0.000 A 
ATOM     14  C   UNL     1       2.476  17.179  21.103  0.00  0.00    +0.000 A 
ATOM     15  C   UNL     1       3.259  17.227  22.313  0.00  0.00    +0.000 A 
ATOM     16  C   UNL     1       4.571  16.973  22.289  0.00  0.00    +0.000 A 
ATOM     17  C   UNL     1       5.229  16.596  21.017  0.00  0.00    +0.000 A 
ATOM     18  O   UNL     1       6.440  16.382  21.008  0.00  0.00    +0.000 OA
ATOM     19  N   UNL     1       4.390  16.454  19.909  0.00  0.00    +0.000 N 
ATOM     20  C   UNL     1       4.997  15.866  18.715  0.00  0.00    +0.000 C 
ATOM     21  N   UNL     1       1.587  11.897  18.720  0.00  0.00    +0.000 NA
ATOM     22  H   UNL     1      -2.511  13.197  17.774  0.00  0.00    +0.000 HD
ENDROOT
BRANCH   4  23
ATOM     23  C   UNL     1      -3.119  11.223  17.375  0.00  0.00    +0.000 C 
ATOM     24  C   UNL     1      -4.607  11.553  17.487  0.00  0.00    +0.000 C 
ATOM     25  C   UNL     1      -2.698  11.209  15.905  0.00  0.00    +0.000 C 
ENDBRANCH   4  23
BRANCH   1  26
ATOM     26  O   UNL     1       1.309   9.602  19.030  0.00  0.00    +0.000 OA
BRANCH  26  28
ATOM     27  C   UNL     1       2.534   7.672  18.330  0.00  0.00    +0.000 C 
ATOM     28  C   UNL     1       1.856   8.954  17.880  0.00  0.00    +0.000 C 
ENDBRANCH  26  28
ENDBRANCH   1  26
TORSDOF 3
ENDMDL
