MODEL 1
REMARK VINA RESULT:      -7.7      0.000      0.000
REMARK  Name = 
REMARK  4 active torsions:
REMARK  status: ('A' for Active; 'I' for Inactive)
REMARK    1  A    between atoms: C_1  and  N_2
REMARK    2  A    between atoms: C_3  and  C_5
REMARK    3  A    between atoms: C_9  and  N_10
REMARK    4  A    between atoms: N_13  and  C_14
REMARK                            x       y       z     vdW  Elec       q    Type
REMARK                         _______ _______ _______ _____ _____    ______ ____
ROOT
ATOM      1  N   UNL     1       4.562   7.128  17.418  0.00  0.00    +0.000 N 
ATOM      2  C   UNL     1       3.305   6.799  17.856  0.00  0.00    +0.000 C 
ATOM      3  O   UNL     1       2.497   7.690  18.113  0.00  0.00    +0.000 OA
ATOM      4  N   UNL     1       3.041   5.481  17.989  0.00  0.00    +0.000 N 
ATOM      5  H   UNL     1       4.716   8.125  17.348  0.00  0.00    +0.000 HD
ATOM      6  H   UNL     1       3.737   4.865  17.584  0.00  0.00    +0.000 HD
ENDROOT
BRANCH   4   7
ATOM      7  C   UNL     1       1.774   4.920  18.385  0.00  0.00    +0.000 C 
ATOM      8  C   UNL     1       1.259   3.870  17.375  0.00  0.00    +0.000 C 
ATOM      9  C   UNL     1       2.127   2.598  17.387  0.00  0.00    +0.000 C 
ATOM     10  C   UNL     1       2.115   1.900  18.759  0.00  0.00    +0.000 C 
ATOM     11  C   UNL     1       2.054   2.898  19.875  0.00  0.00    +0.000 A 
ATOM     12  S   UNL     1       1.953   2.425  21.508  0.00  0.00    +0.000 S 
ATOM     13  C   UNL     1       2.218   4.035  22.032  0.00  0.00    +0.000 A 
ATOM     14  C   UNL     1       2.157   4.930  20.986  0.00  0.00    +0.000 A 
ATOM     15  C   UNL     1       1.976   4.273  19.729  0.00  0.00    +0.000 A 
ENDBRANCH   4   7
BRANCH   1  20
ATOM     16  C   UNL     1       6.806   5.149  15.409  0.00  0.00    +0.000 A 
ATOM     17  C   UNL     1       7.733   4.674  16.321  0.00  0.00    +0.000 A 
ATOM     18  C   UNL     1       7.552   5.000  17.656  0.00  0.00    +0.000 A 
ATOM     19  C   UNL     1       6.474   5.808  18.025  0.00  0.00    +0.000 A 
ATOM     20  C   UNL     1       5.602   6.265  17.042  0.00  0.00    +0.000 A 
ATOM     21  N   UNL     1       5.742   5.926  15.740  0.00  0.00    +0.000 NA
BRANCH  16  24
ATOM     22  C   UNL     1       6.365   3.197  12.213  0.00  0.00    +0.000 C 
ATOM     23  N   UNL     1       6.224   3.683  13.558  0.00  0.00    +0.000 N 
ATOM     24  C   UNL     1       6.951   4.776  13.975  0.00  0.00    +0.000 C 
ATOM     25  O   UNL     1       7.711   5.402  13.242  0.00  0.00    +0.000 OA
ATOM     26  H   UNL     1       5.601   3.215  14.210  0.00  0.00    +0.000 HD
ENDBRANCH  16  24
ENDBRANCH   1  20
TORSDOF 3
ENDMDL
MODEL 2
REMARK VINA RESULT:      -7.2      2.635      4.059
REMARK  Name = 
REMARK  4 active torsions:
REMARK  status: ('A' for Active; 'I' for Inactive)
REMARK    1  A    between atoms: C_1  and  N_2
REMARK    2  A    between atoms: C_3  and  C_5
REMARK    3  A    between atoms: C_9  and  N_10
REMARK    4  A    between atoms: N_13  and  C_14
REMARK                            x       y       z     vdW  Elec       q    Type
REMARK                         _______ _______ _______ _____ _____    ______ ____
ROOT
ATOM      1  N   UNL     1       4.763   2.735  16.905  0.00  0.00    +0.000 N 
ATOM      2  C   UNL     1       3.516   2.874  17.459  0.00  0.00    +0.000 C 
ATOM      3  O   UNL     1       2.917   1.880  17.865  0.00  0.00    +0.000 OA
ATOM      4  N   UNL     1       3.017   4.128  17.509  0.00  0.00    +0.000 N 
ATOM      5  H   UNL     1       5.087   1.779  16.878  0.00  0.00    +0.000 HD
ATOM      6  H   UNL     1       3.685   4.860  17.294  0.00  0.00    +0.000 HD
ENDROOT
BRANCH   4   7
ATOM      7  C   UNL     1       1.753   4.500  18.093  0.00  0.00    +0.000 C 
ATOM      8  C   UNL     1       1.321   3.534  19.217  0.00  0.00    +0.000 C 
ATOM      9  C   UNL     1       2.230   3.659  20.454  0.00  0.00    +0.000 C 
ATOM     10  C   UNL     1       2.179   5.068  21.071  0.00  0.00    +0.000 C 
ATOM     11  C   UNL     1       2.033   6.119  20.012  0.00  0.00    +0.000 A 
ATOM     12  S   UNL     1       1.873   7.771  20.394  0.00  0.00    +0.000 S 
ATOM     13  C   UNL     1       2.059   8.210  18.748  0.00  0.00    +0.000 A 
ATOM     14  C   UNL     1       2.015   7.110  17.917  0.00  0.00    +0.000 A 
ATOM     15  C   UNL     1       1.915   5.888  18.653  0.00  0.00    +0.000 A 
ENDBRANCH   4   7
BRANCH   1  20
ATOM     16  C   UNL     1       6.966   5.585  16.788  0.00  0.00    +0.000 A 
ATOM     17  C   UNL     1       7.384   5.625  15.469  0.00  0.00    +0.000 A 
ATOM     18  C   UNL     1       6.858   4.685  14.596  0.00  0.00    +0.000 A 
ATOM     19  C   UNL     1       5.963   3.728  15.076  0.00  0.00    +0.000 A 
ATOM     20  C   UNL     1       5.613   3.742  16.423  0.00  0.00    +0.000 A 
ATOM     21  N   UNL     1       6.088   4.674  17.281  0.00  0.00    +0.000 NA
BRANCH  16  24
ATOM     22  C   UNL     1       8.219   8.914  18.041  0.00  0.00    +0.000 C 
ATOM     23  N   UNL     1       7.648   7.879  17.225  0.00  0.00    +0.000 N 
ATOM     24  C   UNL     1       7.481   6.611  17.737  0.00  0.00    +0.000 C 
ATOM     25  O   UNL     1       7.766   6.305  18.891  0.00  0.00    +0.000 OA
ATOM     26  H   UNL     1       7.380   8.072  16.263  0.00  0.00    +0.000 HD
ENDBRANCH  16  24
ENDBRANCH   1  20
TORSDOF 3
ENDMDL
MODEL 3
REMARK VINA RESULT:      -7.2      3.829      6.909
REMARK  Name = 
REMARK  4 active torsions:
REMARK  status: ('A' for Active; 'I' for Inactive)
REMARK    1  A    between atoms: C_1  and  N_2
REMARK    2  A    between atoms: C_3  and  C_5
REMARK    3  A    between atoms: C_9  and  N_10
REMARK    4  A    between atoms: N_13  and  C_14
REMARK                            x       y       z     vdW  Elec       q    Type
REMARK                         _______ _______ _______ _____ _____    ______ ____
ROOT
ATOM      1  N   UNL     1       1.746   6.409  20.780  0.00  0.00    +0.000 N 
ATOM      2  C   UNL     1       2.505   5.268  20.702  0.00  0.00    +0.000 C 
ATOM      3  O   UNL     1       2.351   4.377  21.536  0.00  0.00    +0.000 OA
ATOM      4  N   UNL     1       3.398   5.209  19.692  0.00  0.00    +0.000 N 
ATOM      5  H   UNL     1       1.103   6.411  21.560  0.00  0.00    +0.000 HD
ATOM      6  H   UNL     1       3.297   5.935  18.991  0.00  0.00    +0.000 HD
ENDROOT
BRANCH   4   7
ATOM      7  C   UNL     1       4.254   4.087  19.399  0.00  0.00    +0.000 C 
ATOM      8  C   UNL     1       3.568   3.052  18.481  0.00  0.00    +0.000 C 
ATOM      9  C   UNL     1       3.361   3.605  17.059  0.00  0.00    +0.000 C 
ATOM     10  C   UNL     1       4.694   3.953  16.372  0.00  0.00    +0.000 C 
ATOM     11  C   UNL     1       5.687   4.491  17.358  0.00  0.00    +0.000 A 
ATOM     12  S   UNL     1       7.280   4.896  16.909  0.00  0.00    +0.000 S 
ATOM     13  C   UNL     1       7.563   5.635  18.429  0.00  0.00    +0.000 A 
ATOM     14  C   UNL     1       6.545   5.374  19.322  0.00  0.00    +0.000 A 
ATOM     15  C   UNL     1       5.482   4.631  18.720  0.00  0.00    +0.000 A 
ENDBRANCH   4   7
BRANCH   1  20
ATOM     16  C   UNL     1       1.350   9.754  19.500  0.00  0.00    +0.000 A 
ATOM     17  C   UNL     1       1.887   9.685  18.226  0.00  0.00    +0.000 A 
ATOM     18  C   UNL     1       2.347   8.454  17.784  0.00  0.00    +0.000 A 
ATOM     19  C   UNL     1       2.280   7.351  18.636  0.00  0.00    +0.000 A 
ATOM     20  C   UNL     1       1.748   7.510  19.912  0.00  0.00    +0.000 A 
ATOM     21  N   UNL     1       1.261   8.696  20.346  0.00  0.00    +0.000 NA
BRANCH  16  24
ATOM     22  C   UNL     1      -0.484  13.048  19.440  0.00  0.00    +0.000 C 
ATOM     23  N   UNL     1       0.014  11.745  19.095  0.00  0.00    +0.000 N 
ATOM     24  C   UNL     1       0.809  11.054  19.983  0.00  0.00    +0.000 C 
ATOM     25  O   UNL     1       1.101  11.476  21.098  0.00  0.00    +0.000 OA
ATOM     26  H   UNL     1      -0.203  11.336  18.190  0.00  0.00    +0.000 HD
ENDBRANCH  16  24
ENDBRANCH   1  20
TORSDOF 3
ENDMDL
MODEL 4
REMARK VINA RESULT:      -7.0      2.689      4.086
REMARK  Name = 
REMARK  4 active torsions:
REMARK  status: ('A' for Active; 'I' for Inactive)
REMARK    1  A    between atoms: C_1  and  N_2
REMARK    2  A    between atoms: C_3  and  C_5
REMARK    3  A    between atoms: C_9  and  N_10
REMARK    4  A    between atoms: N_13  and  C_14
REMARK                            x       y       z     vdW  Elec       q    Type
REMARK                         _______ _______ _______ _____ _____    ______ ____
ROOT
ATOM      1  N   UNL     1       6.410   5.116  15.905  0.00  0.00    +0.000 N 
ATOM      2  C   UNL     1       5.119   4.653  15.874  0.00  0.00    +0.000 C 
ATOM      3  O   UNL     1       4.668   4.179  14.833  0.00  0.00    +0.000 OA
ATOM      4  N   UNL     1       4.414   4.765  17.019  0.00  0.00    +0.000 N 
ATOM      5  H   UNL     1       6.892   5.024  15.021  0.00  0.00    +0.000 HD
ATOM      6  H   UNL     1       4.962   5.017  17.834  0.00  0.00    +0.000 HD
ENDROOT
BRANCH   4   7
ATOM      7  C   UNL     1       3.065   4.298  17.217  0.00  0.00    +0.000 C 
ATOM      8  C   UNL     1       2.944   2.768  17.041  0.00  0.00    +0.000 C 
ATOM      9  C   UNL     1       3.656   2.008  18.175  0.00  0.00    +0.000 C 
ATOM     10  C   UNL     1       3.046   2.319  19.553  0.00  0.00    +0.000 C 
ATOM     11  C   UNL     1       2.595   3.746  19.638  0.00  0.00    +0.000 A 
ATOM     12  S   UNL     1       1.811   4.367  21.017  0.00  0.00    +0.000 S 
ATOM     13  C   UNL     1       1.934   5.966  20.414  0.00  0.00    +0.000 A 
ATOM     14  C   UNL     1       2.356   5.988  19.102  0.00  0.00    +0.000 A 
ATOM     15  C   UNL     1       2.664   4.678  18.617  0.00  0.00    +0.000 A 
ENDBRANCH   4   7
BRANCH   1  20
ATOM     16  C   UNL     1       7.973   7.470  18.141  0.00  0.00    +0.000 A 
ATOM     17  C   UNL     1       8.374   6.691  19.213  0.00  0.00    +0.000 A 
ATOM     18  C   UNL     1       8.148   5.325  19.139  0.00  0.00    +0.000 A 
ATOM     19  C   UNL     1       7.506   4.796  18.018  0.00  0.00    +0.000 A 
ATOM     20  C   UNL     1       7.112   5.652  16.995  0.00  0.00    +0.000 A 
ATOM     21  N   UNL     1       7.358   6.982  17.034  0.00  0.00    +0.000 NA
BRANCH  16  24
ATOM     22  C   UNL     1       9.409  10.763  19.289  0.00  0.00    +0.000 C 
ATOM     23  N   UNL     1       9.147   9.359  19.125  0.00  0.00    +0.000 N 
ATOM     24  C   UNL     1       8.245   8.934  18.175  0.00  0.00    +0.000 C 
ATOM     25  O   UNL     1       7.656   9.695  17.413  0.00  0.00    +0.000 OA
ATOM     26  H   UNL     1       9.613   8.677  19.718  0.00  0.00    +0.000 HD
ENDBRANCH  16  24
ENDBRANCH   1  20
TORSDOF 3
ENDMDL
MODEL 5
REMARK VINA RESULT:      -7.0      8.858     12.177
REMARK  Name = 
REMARK  4 active torsions:
REMARK  status: ('A' for Active; 'I' for Inactive)
REMARK    1  A    between atoms: C_1  and  N_2
REMARK    2  A    between atoms: C_3  and  C_5
REMARK    3  A    between atoms: C_9  and  N_10
REMARK    4  A    between atoms: N_13  and  C_14
REMARK                            x       y       z     vdW  Elec       q    Type
REMARK                         _______ _______ _______ _____ _____    ______ ____
ROOT
ATOM      1  N   UNL     1      -3.189  12.179  18.067  0.00  0.00    +0.000 N 
ATOM      2  C   UNL     1      -1.935  12.300  18.609  0.00  0.00    +0.000 C 
ATOM      3  O   UNL     1      -0.994  12.645  17.895  0.00  0.00    +0.000 OA
ATOM      4  N   UNL     1      -1.818  12.012  19.922  0.00  0.00    +0.000 N 
ATOM      5  H   UNL     1      -3.223  12.392  17.079  0.00  0.00    +0.000 HD
ATOM      6  H   UNL     1      -2.698  11.906  20.414  0.00  0.00    +0.000 HD
ENDROOT
BRANCH   4   7
ATOM      7  C   UNL     1      -0.607  12.122  20.696  0.00  0.00    +0.000 C 
ATOM      8  C   UNL     1      -0.878  12.591  22.143  0.00  0.00    +0.000 C 
ATOM      9  C   UNL     1      -1.616  11.514  22.959  0.00  0.00    +0.000 C 
ATOM     10  C   UNL     1      -0.794  10.219  23.087  0.00  0.00    +0.000 C 
ATOM     11  C   UNL     1      -0.008   9.950  21.840  0.00  0.00    +0.000 A 
ATOM     12  S   UNL     1       1.056   8.626  21.709  0.00  0.00    +0.000 S 
ATOM     13  C   UNL     1       1.252   8.900  20.028  0.00  0.00    +0.000 A 
ATOM     14  C   UNL     1       0.699  10.101  19.638  0.00  0.00    +0.000 A 
ATOM     15  C   UNL     1       0.032  10.760  20.718  0.00  0.00    +0.000 A 
ENDBRANCH   4   7
BRANCH   1  20
ATOM     16  C   UNL     1      -5.893  12.131  20.449  0.00  0.00    +0.000 A 
ATOM     17  C   UNL     1      -6.799  11.240  19.901  0.00  0.00    +0.000 A 
ATOM     18  C   UNL     1      -6.449  10.607  18.717  0.00  0.00    +0.000 A 
ATOM     19  C   UNL     1      -5.227  10.910  18.114  0.00  0.00    +0.000 A 
ATOM     20  C   UNL     1      -4.384  11.837  18.717  0.00  0.00    +0.000 A 
ATOM     21  N   UNL     1      -4.693  12.435  19.891  0.00  0.00    +0.000 NA
BRANCH  16  24
ATOM     22  C   UNL     1      -7.421  12.629  23.860  0.00  0.00    +0.000 C 
ATOM     23  N   UNL     1      -6.980  12.047  22.623  0.00  0.00    +0.000 N 
ATOM     24  C   UNL     1      -6.224  12.789  21.743  0.00  0.00    +0.000 C 
ATOM     25  O   UNL     1      -5.862  13.940  21.967  0.00  0.00    +0.000 OA
ATOM     26  H   UNL     1      -7.238  11.093  22.384  0.00  0.00    +0.000 HD
ENDBRANCH  16  24
ENDBRANCH   1  20
TORSDOF 3
ENDMDL
MODEL 6
REMARK VINA RESULT:      -6.5      9.083     12.338
REMARK  Name = 
REMARK  4 active torsions:
REMARK  status: ('A' for Active; 'I' for Inactive)
REMARK    1  A    between atoms: C_1  and  N_2
REMARK    2  A    between atoms: C_3  and  C_5
REMARK    3  A    between atoms: C_9  and  N_10
REMARK    4  A    between atoms: N_13  and  C_14
REMARK                            x       y       z     vdW  Elec       q    Type
REMARK                         _______ _______ _______ _____ _____    ______ ____
ROOT
ATOM      1  N   UNL     1      -3.464  11.929  17.706  0.00  0.00    +0.000 N 
ATOM      2  C   UNL     1      -2.188  12.085  18.186  0.00  0.00    +0.000 C 
ATOM      3  O   UNL     1      -1.265  12.299  17.402  0.00  0.00    +0.000 OA
ATOM      4  N   UNL     1      -2.032  11.979  19.522  0.00  0.00    +0.000 N 
ATOM      5  H   UNL     1      -3.527  12.003  16.700  0.00  0.00    +0.000 HD
ATOM      6  H   UNL     1      -2.897  11.970  20.052  0.00  0.00    +0.000 HD
ENDROOT
BRANCH   4   7
ATOM      7  C   UNL     1      -0.792  12.158  20.235  0.00  0.00    +0.000 C 
ATOM      8  C   UNL     1      -0.819  13.401  21.151  0.00  0.00    +0.000 C 
ATOM      9  C   UNL     1      -1.780  13.210  22.339  0.00  0.00    +0.000 C 
ATOM     10  C   UNL     1      -1.361  12.035  23.241  0.00  0.00    +0.000 C 
ATOM     11  C   UNL     1      -0.771  10.917  22.435  0.00  0.00    +0.000 A 
ATOM     12  S   UNL     1      -0.146   9.509  23.164  0.00  0.00    +0.000 S 
ATOM     13  C   UNL     1       0.008   8.742  21.639  0.00  0.00    +0.000 A 
ATOM     14  C   UNL     1      -0.199   9.623  20.599  0.00  0.00    +0.000 A 
ATOM     15  C   UNL     1      -0.574  10.922  21.065  0.00  0.00    +0.000 A 
ENDBRANCH   4   7
BRANCH   1  20
ATOM     16  C   UNL     1      -5.996  12.173  20.258  0.00  0.00    +0.000 A 
ATOM     17  C   UNL     1      -7.026  11.383  19.778  0.00  0.00    +0.000 A 
ATOM     18  C   UNL     1      -6.823  10.715  18.579  0.00  0.00    +0.000 A 
ATOM     19  C   UNL     1      -5.618  10.884  17.896  0.00  0.00    +0.000 A 
ATOM     20  C   UNL     1      -4.643  11.717  18.435  0.00  0.00    +0.000 A 
ATOM     21  N   UNL     1      -4.809  12.346  19.621  0.00  0.00    +0.000 NA
BRANCH  16  24
ATOM     22  C   UNL     1      -5.479  13.012  23.898  0.00  0.00    +0.000 C 
ATOM     23  N   UNL     1      -5.329  12.462  22.579  0.00  0.00    +0.000 N 
ATOM     24  C   UNL     1      -6.170  12.865  21.565  0.00  0.00    +0.000 C 
ATOM     25  O   UNL     1      -7.045  13.713  21.710  0.00  0.00    +0.000 OA
ATOM     26  H   UNL     1      -4.615  11.763  22.392  0.00  0.00    +0.000 HD
ENDBRANCH  16  24
ENDBRANCH   1  20
TORSDOF 3
ENDMDL
MODEL 7
REMARK VINA RESULT:      -6.5      9.595     12.752
REMARK  Name = 
REMARK  4 active torsions:
REMARK  status: ('A' for Active; 'I' for Inactive)
REMARK    1  A    between atoms: C_1  and  N_2
REMARK    2  A    between atoms: C_3  and  C_5
REMARK    3  A    between atoms: C_9  and  N_10
REMARK    4  A    between atoms: N_13  and  C_14
REMARK                            x       y       z     vdW  Elec       q    Type
REMARK                         _______ _______ _______ _____ _____    ______ ____
ROOT
ATOM      1  N   UNL     1      -4.035  11.324  17.240  0.00  0.00    +0.000 N 
ATOM      2  C   UNL     1      -2.780  11.557  17.740  0.00  0.00    +0.000 C 
ATOM      3  O   UNL     1      -1.796  11.145  17.128  0.00  0.00    +0.000 OA
ATOM      4  N   UNL     1      -2.713  12.231  18.907  0.00  0.00    +0.000 N 
ATOM      5  H   UNL     1      -4.034  10.805  16.373  0.00  0.00    +0.000 HD
ATOM      6  H   UNL     1      -3.586  12.651  19.206  0.00  0.00    +0.000 HD
ENDROOT
BRANCH   4   7
ATOM      7  C   UNL     1      -1.499  12.623  19.577  0.00  0.00    +0.000 C 
ATOM      8  C   UNL     1      -1.672  13.926  20.389  0.00  0.00    +0.000 C 
ATOM      9  C   UNL     1      -2.590  13.716  21.608  0.00  0.00    +0.000 C 
ATOM     10  C   UNL     1      -2.017  12.682  22.594  0.00  0.00    +0.000 C 
ATOM     11  C   UNL     1      -1.299  11.583  21.871  0.00  0.00    +0.000 A 
ATOM     12  S   UNL     1      -0.495  10.330  22.699  0.00  0.00    +0.000 S 
ATOM     13  C   UNL     1      -0.261   9.463  21.239  0.00  0.00    +0.000 A 
ATOM     14  C   UNL     1      -0.588  10.221  20.135  0.00  0.00    +0.000 A 
ATOM     15  C   UNL     1      -1.118  11.498  20.501  0.00  0.00    +0.000 A 
ENDBRANCH   4   7
BRANCH   1  20
ATOM     16  C   UNL     1      -6.831  11.752  19.474  0.00  0.00    +0.000 A 
ATOM     17  C   UNL     1      -7.629  12.681  18.830  0.00  0.00    +0.000 A 
ATOM     18  C   UNL     1      -7.222  13.129  17.582  0.00  0.00    +0.000 A 
ATOM     19  C   UNL     1      -6.025  12.656  17.041  0.00  0.00    +0.000 A 
ATOM     20  C   UNL     1      -5.268  11.741  17.766  0.00  0.00    +0.000 A 
ATOM     21  N   UNL     1      -5.668  11.266  18.968  0.00  0.00    +0.000 NA
BRANCH  16  24
ATOM     22  C   UNL     1      -7.915  11.745  23.086  0.00  0.00    +0.000 C 
ATOM     23  N   UNL     1      -7.567  12.162  21.755  0.00  0.00    +0.000 N 
ATOM     24  C   UNL     1      -7.268  11.221  20.795  0.00  0.00    +0.000 C 
ATOM     25  O   UNL     1      -7.312  10.011  20.997  0.00  0.00    +0.000 OA
ATOM     26  H   UNL     1      -7.524  13.151  21.522  0.00  0.00    +0.000 HD
ENDBRANCH  16  24
ENDBRANCH   1  20
TORSDOF 3
ENDMDL
MODEL 8
REMARK VINA RESULT:      -6.4      7.991     11.016
REMARK  Name = 
REMARK  4 active torsions:
REMARK  status: ('A' for Active; 'I' for Inactive)
REMARK    1  A    between atoms: C_1  and  N_2
REMARK    2  A    between atoms: C_3  and  C_5
REMARK    3  A    between atoms: C_9  and  N_10
REMARK    4  A    between atoms: N_13  and  C_14
REMARK                            x       y       z     vdW  Elec       q    Type
REMARK                         _______ _______ _______ _____ _____    ______ ____
ROOT
ATOM      1  N   UNL     1      -0.761   9.677  17.323  0.00  0.00    +0.000 N 
ATOM      2  C   UNL     1       0.201  10.046  18.229  0.00  0.00    +0.000 C 
ATOM      3  O   UNL     1       1.278   9.452  18.248  0.00  0.00    +0.000 OA
ATOM      4  N   UNL     1      -0.118  11.056  19.065  0.00  0.00    +0.000 N 
ATOM      5  H   UNL     1      -0.481   8.909  16.729  0.00  0.00    +0.000 HD
ATOM      6  H   UNL     1      -0.966  11.557  18.824  0.00  0.00    +0.000 HD
ENDROOT
BRANCH   4   7
ATOM      7  C   UNL     1       0.761  11.630  20.053  0.00  0.00    +0.000 C 
ATOM      8  C   UNL     1       1.584  12.809  19.490  0.00  0.00    +0.000 C 
ATOM      9  C   UNL     1       0.695  14.029  19.187  0.00  0.00    +0.000 C 
ATOM     10  C   UNL     1       0.002  14.570  20.451  0.00  0.00    +0.000 C 
ATOM     11  C   UNL     1      -0.369  13.457  21.384  0.00  0.00    +0.000 A 
ATOM     12  S   UNL     1      -1.084  13.750  22.903  0.00  0.00    +0.000 S 
ATOM     13  C   UNL     1      -1.409  12.081  23.115  0.00  0.00    +0.000 A 
ATOM     14  C   UNL     1      -0.784  11.311  22.157  0.00  0.00    +0.000 A 
ATOM     15  C   UNL     1      -0.102  12.113  21.188  0.00  0.00    +0.000 A 
ENDBRANCH   4   7
BRANCH   1  20
ATOM     16  C   UNL     1      -3.850  11.438  17.910  0.00  0.00    +0.000 A 
ATOM     17  C   UNL     1      -4.446  11.483  16.662  0.00  0.00    +0.000 A 
ATOM     18  C   UNL     1      -3.797  10.852  15.612  0.00  0.00    +0.000 A 
ATOM     19  C   UNL     1      -2.569  10.228  15.841  0.00  0.00    +0.000 A 
ATOM     20  C   UNL     1      -2.025  10.251  17.121  0.00  0.00    +0.000 A 
ATOM     21  N   UNL     1      -2.663  10.830  18.165  0.00  0.00    +0.000 NA
BRANCH  16  24
ATOM     22  C   UNL     1      -4.350  13.500  21.027  0.00  0.00    +0.000 C 
ATOM     23  N   UNL     1      -3.787  12.912  19.843  0.00  0.00    +0.000 N 
ATOM     24  C   UNL     1      -4.548  12.069  19.064  0.00  0.00    +0.000 C 
ATOM     25  O   UNL     1      -5.722  11.804  19.302  0.00  0.00    +0.000 OA
ATOM     26  H   UNL     1      -2.822  13.102  19.584  0.00  0.00    +0.000 HD
ENDBRANCH  16  24
ENDBRANCH   1  20
TORSDOF 3
ENDMDL
MODEL 9
REMARK VINA RESULT:      -6.4      4.117      7.505
REMARK  Name = 
REMARK  4 active torsions:
REMARK  status: ('A' for Active; 'I' for Inactive)
REMARK    1  A    between atoms: C_1  and  N_2
REMARK    2  A    between atoms: C_3  and  C_5
REMARK    3  A    between atoms: C_9  and  N_10
REMARK    4  A    between atoms: N_13  and  C_14
REMARK                            x       y       z     vdW  Elec       q    Type
REMARK                         _______ _______ _______ _____ _____    ______ ____
ROOT
ATOM      1  N   UNL     1       2.405   8.819  17.720  0.00  0.00    +0.000 N 
ATOM      2  C   UNL     1       3.105   7.706  18.111  0.00  0.00    +0.000 C 
ATOM      3  O   UNL     1       4.183   7.447  17.578  0.00  0.00    +0.000 OA
ATOM      4  N   UNL     1       2.538   6.948  19.073  0.00  0.00    +0.000 N 
ATOM      5  H   UNL     1       2.863   9.346  16.989  0.00  0.00    +0.000 HD
ATOM      6  H   UNL     1       1.740   7.371  19.533  0.00  0.00    +0.000 HD
ENDROOT
BRANCH   4   7
ATOM      7  C   UNL     1       3.125   5.770  19.662  0.00  0.00    +0.000 C 
ATOM      8  C   UNL     1       2.376   5.317  20.934  0.00  0.00    +0.000 C 
ATOM      9  C   UNL     1       0.973   4.776  20.604  0.00  0.00    +0.000 C 
ATOM     10  C   UNL     1       1.029   3.539  19.690  0.00  0.00    +0.000 C 
ATOM     11  C   UNL     1       2.154   3.643  18.705  0.00  0.00    +0.000 A 
ATOM     12  S   UNL     1       2.515   2.391  17.607  0.00  0.00    +0.000 S 
ATOM     13  C   UNL     1       3.617   3.395  16.763  0.00  0.00    +0.000 A 
ATOM     14  C   UNL     1       3.862   4.570  17.442  0.00  0.00    +0.000 A 
ATOM     15  C   UNL     1       3.068   4.680  18.626  0.00  0.00    +0.000 A 
ENDBRANCH   4   7
BRANCH   1  20
ATOM     16  C   UNL     1      -0.050  10.234  19.946  0.00  0.00    +0.000 A 
ATOM     17  C   UNL     1      -1.179  10.361  19.154  0.00  0.00    +0.000 A 
ATOM     18  C   UNL     1      -1.106   9.904  17.847  0.00  0.00    +0.000 A 
ATOM     19  C   UNL     1       0.093   9.368  17.374  0.00  0.00    +0.000 A 
ATOM     20  C   UNL     1       1.189   9.300  18.228  0.00  0.00    +0.000 A 
ATOM     21  N   UNL     1       1.125   9.707  19.516  0.00  0.00    +0.000 NA
BRANCH  16  24
ATOM     22  C   UNL     1      -1.289  12.016  23.030  0.00  0.00    +0.000 C 
ATOM     23  N   UNL     1      -1.187  11.472  21.704  0.00  0.00    +0.000 N 
ATOM     24  C   UNL     1      -0.115  10.676  21.367  0.00  0.00    +0.000 C 
ATOM     25  O   UNL     1       0.770  10.363  22.157  0.00  0.00    +0.000 OA
ATOM     26  H   UNL     1      -1.895  11.685  21.006  0.00  0.00    +0.000 HD
ENDBRANCH  16  24
ENDBRANCH   1  20
TORSDOF 3
ENDMDL
