MODEL 1
REMARK VINA RESULT:      -8.0      0.000      0.000
REMARK  Name = 
REMARK  7 active torsions:
REMARK  status: ('A' for Active; 'I' for Inactive)
REMARK    1  A    between atoms: C_1  and  O_2
REMARK    2  A    between atoms: O_2  and  C_3
REMARK    3  A    between atoms: C_3  and  C_4
REMARK    4  A    between atoms: C_4  and  O_5
REMARK    5  A    between atoms: O_5  and  C_6
REMARK    6  A    between atoms: C_10  and  N_11
REMARK    7  A    between atoms: N_21  and  C_22
REMARK                            x       y       z     vdW  Elec       q    Type
REMARK                         _______ _______ _______ _____ _____    ______ ____
ROOT
ATOM      1  N   UNL     1       0.705   9.453  20.169  0.00  0.00    +0.000 N 
ATOM      2  C   UNL     1      -0.153   9.050  21.297  0.00  0.00    +0.000 C 
ATOM      3  C   UNL     1      -0.017  10.080  22.434  0.00  0.00    +0.000 C 
ATOM      4  N   UNL     1      -0.320  11.432  21.925  0.00  0.00    +0.000 N 
ATOM      5  C   UNL     1      -1.032  12.325  22.676  0.00  0.00    +0.000 A 
ATOM      6  N   UNL     1      -0.608  13.523  22.995  0.00  0.00    +0.000 NA
ATOM      7  C   UNL     1      -1.493  14.218  23.760  0.00  0.00    +0.000 A 
ATOM      8  C   UNL     1      -2.739  13.822  24.194  0.00  0.00    +0.000 A 
ATOM      9  N   UNL     1      -3.325  14.797  24.939  0.00  0.00    +0.000 NA
ATOM     10  N   UNL     1      -2.473  15.815  24.995  0.00  0.00    +0.000 NA
ATOM     11  N   UNL     1      -1.372  15.469  24.286  0.00  0.00    +0.000 N 
ATOM     12  C   UNL     1      -0.275  16.391  24.163  0.00  0.00    +0.000 C 
ATOM     13  C   UNL     1      -3.213  12.528  23.810  0.00  0.00    +0.000 A 
ATOM     14  O   UNL     1      -4.307  12.048  24.093  0.00  0.00    +0.000 OA
ATOM     15  N   UNL     1      -2.281  11.847  23.053  0.00  0.00    +0.000 N 
ATOM     16  C   UNL     1       0.595  11.847  20.848  0.00  0.00    +0.000 C 
ATOM     17  C   UNL     1       0.483  10.832  19.680  0.00  0.00    +0.000 C 
ATOM     18  H   UNL     1      -2.582  10.959  22.691  0.00  0.00    +0.000 HD
ENDROOT
BRANCH   1  23
ATOM     19  C   UNL     1       3.278   6.720  18.183  0.00  0.00    +0.000 A 
ATOM     20  C   UNL     1       2.815   6.452  19.465  0.00  0.00    +0.000 A 
ATOM     21  C   UNL     1       1.959   7.350  20.105  0.00  0.00    +0.000 A 
ATOM     22  F   UNL     1       1.539   7.000  21.333  0.00  0.00    +0.000 F 
ATOM     23  C   UNL     1       1.521   8.548  19.513  0.00  0.00    +0.000 A 
ATOM     24  C   UNL     1       2.012   8.781  18.214  0.00  0.00    +0.000 A 
ATOM     25  F   UNL     1       1.719   9.925  17.573  0.00  0.00    +0.000 F 
ATOM     26  C   UNL     1       2.869   7.892  17.558  0.00  0.00    +0.000 A 
BRANCH  19  27
ATOM     27  O   UNL     1       4.124   5.925  17.459  0.00  0.00    +0.000 OA
BRANCH  27  28
ATOM     28  C   UNL     1       4.981   6.604  16.537  0.00  0.00    +0.000 C 
BRANCH  28  29
ATOM     29  C   UNL     1       6.379   6.713  17.128  0.00  0.00    +0.000 C 
BRANCH  29  31
ATOM     30  C   UNL     1       7.213   4.676  16.287  0.00  0.00    +0.000 C 
ATOM     31  O   UNL     1       7.306   6.093  16.235  0.00  0.00    +0.000 OA
ENDBRANCH  29  31
ENDBRANCH  28  29
ENDBRANCH  27  28
ENDBRANCH  19  27
ENDBRANCH   1  23
TORSDOF 5
ENDMDL
MODEL 2
REMARK VINA RESULT:      -8.0      0.899      1.794
REMARK  Name = 
REMARK  7 active torsions:
REMARK  status: ('A' for Active; 'I' for Inactive)
REMARK    1  A    between atoms: C_1  and  O_2
REMARK    2  A    between atoms: O_2  and  C_3
REMARK    3  A    between atoms: C_3  and  C_4
REMARK    4  A    between atoms: C_4  and  O_5
REMARK    5  A    between atoms: O_5  and  C_6
REMARK    6  A    between atoms: C_10  and  N_11
REMARK    7  A    between atoms: N_21  and  C_22
REMARK                            x       y       z     vdW  Elec       q    Type
REMARK                         _______ _______ _______ _____ _____    ______ ____
ROOT
ATOM      1  N   UNL     1       0.696   9.560  20.225  0.00  0.00    +0.000 N 
ATOM      2  C   UNL     1      -0.259   9.143  21.266  0.00  0.00    +0.000 C 
ATOM      3  C   UNL     1      -0.163  10.109  22.461  0.00  0.00    +0.000 C 
ATOM      4  N   UNL     1      -0.370  11.496  22.003  0.00  0.00    +0.000 N 
ATOM      5  C   UNL     1      -1.096  12.384  22.747  0.00  0.00    +0.000 A 
ATOM      6  N   UNL     1      -0.647  13.544  23.156  0.00  0.00    +0.000 NA
ATOM      7  C   UNL     1      -1.555  14.242  23.891  0.00  0.00    +0.000 A 
ATOM      8  C   UNL     1      -2.846  13.883  24.214  0.00  0.00    +0.000 A 
ATOM      9  N   UNL     1      -3.443  14.846  24.965  0.00  0.00    +0.000 NA
ATOM     10  N   UNL     1      -2.555  15.820  25.135  0.00  0.00    +0.000 NA
ATOM     11  N   UNL     1      -1.421  15.459  24.489  0.00  0.00    +0.000 N 
ATOM     12  C   UNL     1      -0.280  16.334  24.492  0.00  0.00    +0.000 C 
ATOM     13  C   UNL     1      -3.344  12.632  23.732  0.00  0.00    +0.000 A 
ATOM     14  O   UNL     1      -4.475  12.189  23.910  0.00  0.00    +0.000 OA
ATOM     15  N   UNL     1      -2.389  11.946  23.008  0.00  0.00    +0.000 N 
ATOM     16  C   UNL     1       0.638  11.921  21.017  0.00  0.00    +0.000 C 
ATOM     17  C   UNL     1       0.570  10.970  19.792  0.00  0.00    +0.000 C 
ATOM     18  H   UNL     1      -2.700  11.092  22.580  0.00  0.00    +0.000 HD
ENDROOT
BRANCH   1  23
ATOM     19  C   UNL     1       3.151   6.730  18.224  0.00  0.00    +0.000 A 
ATOM     20  C   UNL     1       2.783   7.914  17.598  0.00  0.00    +0.000 A 
ATOM     21  C   UNL     1       1.986   8.844  18.269  0.00  0.00    +0.000 A 
ATOM     22  F   UNL     1       1.699   9.974  17.599  0.00  0.00    +0.000 F 
ATOM     23  C   UNL     1       1.519   8.652  19.582  0.00  0.00    +0.000 A 
ATOM     24  C   UNL     1       1.916   7.440  20.179  0.00  0.00    +0.000 A 
ATOM     25  F   UNL     1       1.474   7.111  21.405  0.00  0.00    +0.000 F 
ATOM     26  C   UNL     1       2.713   6.498  19.523  0.00  0.00    +0.000 A 
BRANCH  19  27
ATOM     27  O   UNL     1       3.917   5.741  17.671  0.00  0.00    +0.000 OA
BRANCH  27  28
ATOM     28  C   UNL     1       4.914   5.172  18.524  0.00  0.00    +0.000 C 
BRANCH  28  29
ATOM     29  C   UNL     1       6.174   4.892  17.719  0.00  0.00    +0.000 C 
BRANCH  29  31
ATOM     30  C   UNL     1       7.790   5.773  19.190  0.00  0.00    +0.000 C 
ATOM     31  O   UNL     1       7.240   4.592  18.621  0.00  0.00    +0.000 OA
ENDBRANCH  29  31
ENDBRANCH  28  29
ENDBRANCH  27  28
ENDBRANCH  19  27
ENDBRANCH   1  23
TORSDOF 5
ENDMDL
MODEL 3
REMARK VINA RESULT:      -7.9      1.222      2.378
REMARK  Name = 
REMARK  7 active torsions:
REMARK  status: ('A' for Active; 'I' for Inactive)
REMARK    1  A    between atoms: C_1  and  O_2
REMARK    2  A    between atoms: O_2  and  C_3
REMARK    3  A    between atoms: C_3  and  C_4
REMARK    4  A    between atoms: C_4  and  O_5
REMARK    5  A    between atoms: O_5  and  C_6
REMARK    6  A    between atoms: C_10  and  N_11
REMARK    7  A    between atoms: N_21  and  C_22
REMARK                            x       y       z     vdW  Elec       q    Type
REMARK                         _______ _______ _______ _____ _____    ______ ____
ROOT
ATOM      1  N   UNL     1       0.735   9.510  20.196  0.00  0.00    +0.000 N 
ATOM      2  C   UNL     1      -0.147   9.097  21.302  0.00  0.00    +0.000 C 
ATOM      3  C   UNL     1      -0.025  10.111  22.455  0.00  0.00    +0.000 C 
ATOM      4  N   UNL     1      -0.310  11.471  21.959  0.00  0.00    +0.000 N 
ATOM      5  C   UNL     1      -1.029  12.359  22.709  0.00  0.00    +0.000 A 
ATOM      6  N   UNL     1      -0.604  13.550  23.052  0.00  0.00    +0.000 NA
ATOM      7  C   UNL     1      -1.498  14.241  23.809  0.00  0.00    +0.000 A 
ATOM      8  C   UNL     1      -2.755  13.848  24.215  0.00  0.00    +0.000 A 
ATOM      9  N   UNL     1      -3.349  14.816  24.962  0.00  0.00    +0.000 NA
ATOM     10  N   UNL     1      -2.491  15.827  25.048  0.00  0.00    +0.000 NA
ATOM     11  N   UNL     1      -1.379  15.484  24.356  0.00  0.00    +0.000 N 
ATOM     12  C   UNL     1      -0.274  16.399  24.265  0.00  0.00    +0.000 C 
ATOM     13  C   UNL     1      -3.230  12.562  23.805  0.00  0.00    +0.000 A 
ATOM     14  O   UNL     1      -4.332  12.086  24.060  0.00  0.00    +0.000 OA
ATOM     15  N   UNL     1      -2.289  11.885  23.056  0.00  0.00    +0.000 N 
ATOM     16  C   UNL     1       0.628  11.895  20.905  0.00  0.00    +0.000 C 
ATOM     17  C   UNL     1       0.532  10.897  19.722  0.00  0.00    +0.000 C 
ATOM     18  H   UNL     1      -2.589  11.004  22.676  0.00  0.00    +0.000 HD
ENDROOT
BRANCH   1  23
ATOM     19  C   UNL     1       3.188   6.702  18.162  0.00  0.00    +0.000 A 
ATOM     20  C   UNL     1       2.830   7.899  17.555  0.00  0.00    +0.000 A 
ATOM     21  C   UNL     1       2.034   8.822  18.236  0.00  0.00    +0.000 A 
ATOM     22  F   UNL     1       1.757   9.965  17.585  0.00  0.00    +0.000 F 
ATOM     23  C   UNL     1       1.557   8.608  19.543  0.00  0.00    +0.000 A 
ATOM     24  C   UNL     1       1.944   7.384  20.121  0.00  0.00    +0.000 A 
ATOM     25  F   UNL     1       1.493   7.036  21.338  0.00  0.00    +0.000 F 
ATOM     26  C   UNL     1       2.740   6.449  19.454  0.00  0.00    +0.000 A 
BRANCH  19  27
ATOM     27  O   UNL     1       3.952   5.719  17.596  0.00  0.00    +0.000 OA
BRANCH  27  28
ATOM     28  C   UNL     1       4.041   4.496  18.332  0.00  0.00    +0.000 C 
BRANCH  28  29
ATOM     29  C   UNL     1       3.638   3.333  17.438  0.00  0.00    +0.000 C 
BRANCH  29  31
ATOM     30  C   UNL     1       1.492   3.011  18.356  0.00  0.00    +0.000 C 
ATOM     31  O   UNL     1       2.230   3.397  17.205  0.00  0.00    +0.000 OA
ENDBRANCH  29  31
ENDBRANCH  28  29
ENDBRANCH  27  28
ENDBRANCH  19  27
ENDBRANCH   1  23
TORSDOF 5
ENDMDL
MODEL 4
REMARK VINA RESULT:      -7.8      1.191      1.439
REMARK  Name = 
REMARK  7 active torsions:
REMARK  status: ('A' for Active; 'I' for Inactive)
REMARK    1  A    between atoms: C_1  and  O_2
REMARK    2  A    between atoms: O_2  and  C_3
REMARK    3  A    between atoms: C_3  and  C_4
REMARK    4  A    between atoms: C_4  and  O_5
REMARK    5  A    between atoms: O_5  and  C_6
REMARK    6  A    between atoms: C_10  and  N_11
REMARK    7  A    between atoms: N_21  and  C_22
REMARK                            x       y       z     vdW  Elec       q    Type
REMARK                         _______ _______ _______ _____ _____    ______ ____
ROOT
ATOM      1  N   UNL     1       1.383   8.529  19.890  0.00  0.00    +0.000 N 
ATOM      2  C   UNL     1       0.722   8.347  21.194  0.00  0.00    +0.000 C 
ATOM      3  C   UNL     1       0.914   9.618  22.043  0.00  0.00    +0.000 C 
ATOM      4  N   UNL     1       0.426  10.796  21.301  0.00  0.00    +0.000 N 
ATOM      5  C   UNL     1      -0.257  11.795  21.936  0.00  0.00    +0.000 A 
ATOM      6  N   UNL     1       0.095  13.057  21.916  0.00  0.00    +0.000 NA
ATOM      7  C   UNL     1      -0.740  13.857  22.633  0.00  0.00    +0.000 A 
ATOM      8  C   UNL     1      -1.877  13.500  23.325  0.00  0.00    +0.000 A 
ATOM      9  N   UNL     1      -2.444  14.585  23.917  0.00  0.00    +0.000 NA
ATOM     10  N   UNL     1      -1.688  15.636  23.621  0.00  0.00    +0.000 NA
ATOM     11  N   UNL     1      -0.664  15.201  22.848  0.00  0.00    +0.000 N 
ATOM     12  C   UNL     1       0.319  16.131  22.363  0.00  0.00    +0.000 C 
ATOM     13  C   UNL     1      -2.278  12.128  23.311  0.00  0.00    +0.000 A 
ATOM     14  O   UNL     1      -3.277  11.663  23.852  0.00  0.00    +0.000 OA
ATOM     15  N   UNL     1      -1.398  11.346  22.591  0.00  0.00    +0.000 N 
ATOM     16  C   UNL     1       1.149  11.005  20.035  0.00  0.00    +0.000 C 
ATOM     17  C   UNL     1       0.975   9.743  19.148  0.00  0.00    +0.000 C 
ATOM     18  H   UNL     1      -1.663  10.382  22.482  0.00  0.00    +0.000 HD
ENDROOT
BRANCH   1  23
ATOM     19  C   UNL     1       3.906   5.544  18.226  0.00  0.00    +0.000 A 
ATOM     20  C   UNL     1       3.176   5.290  19.380  0.00  0.00    +0.000 A 
ATOM     21  C   UNL     1       2.339   6.273  19.912  0.00  0.00    +0.000 A 
ATOM     22  F   UNL     1       1.649   5.935  21.016  0.00  0.00    +0.000 F 
ATOM     23  C   UNL     1       2.183   7.546  19.333  0.00  0.00    +0.000 A 
ATOM     24  C   UNL     1       2.940   7.761  18.166  0.00  0.00    +0.000 A 
ATOM     25  F   UNL     1       2.929   8.961  17.562  0.00  0.00    +0.000 F 
ATOM     26  C   UNL     1       3.782   6.789  17.619  0.00  0.00    +0.000 A 
BRANCH  19  27
ATOM     27  O   UNL     1       4.762   4.669  17.616  0.00  0.00    +0.000 OA
BRANCH  27  28
ATOM     28  C   UNL     1       6.157   4.924  17.808  0.00  0.00    +0.000 C 
BRANCH  28  29
ATOM     29  C   UNL     1       6.856   4.975  16.458  0.00  0.00    +0.000 C 
BRANCH  29  31
ATOM     30  C   UNL     1       7.510   6.967  17.534  0.00  0.00    +0.000 C 
ATOM     31  O   UNL     1       7.464   6.259  16.303  0.00  0.00    +0.000 OA
ENDBRANCH  29  31
ENDBRANCH  28  29
ENDBRANCH  27  28
ENDBRANCH  19  27
ENDBRANCH   1  23
TORSDOF 5
ENDMDL
MODEL 5
REMARK VINA RESULT:      -7.7      1.239      1.821
REMARK  Name = 
REMARK  7 active torsions:
REMARK  status: ('A' for Active; 'I' for Inactive)
REMARK    1  A    between atoms: C_1  and  O_2
REMARK    2  A    between atoms: O_2  and  C_3
REMARK    3  A    between atoms: C_3  and  C_4
REMARK    4  A    between atoms: C_4  and  O_5
REMARK    5  A    between atoms: O_5  and  C_6
REMARK    6  A    between atoms: C_10  and  N_11
REMARK    7  A    between atoms: N_21  and  C_22
REMARK                            x       y       z     vdW  Elec       q    Type
REMARK                         _______ _______ _______ _____ _____    ______ ____
ROOT
ATOM      1  N   UNL     1       0.611   9.600  20.234  0.00  0.00    +0.000 N 
ATOM      2  C   UNL     1      -0.338   9.184  21.281  0.00  0.00    +0.000 C 
ATOM      3  C   UNL     1      -0.224  10.143  22.481  0.00  0.00    +0.000 C 
ATOM      4  N   UNL     1      -0.424  11.534  22.032  0.00  0.00    +0.000 N 
ATOM      5  C   UNL     1      -1.137  12.423  22.787  0.00  0.00    +0.000 A 
ATOM      6  N   UNL     1      -0.675  13.577  23.199  0.00  0.00    +0.000 NA
ATOM      7  C   UNL     1      -1.571  14.278  23.946  0.00  0.00    +0.000 A 
ATOM      8  C   UNL     1      -2.862  13.927  24.279  0.00  0.00    +0.000 A 
ATOM      9  N   UNL     1      -3.445  14.891  25.041  0.00  0.00    +0.000 NA
ATOM     10  N   UNL     1      -2.548  15.857  25.208  0.00  0.00    +0.000 NA
ATOM     11  N   UNL     1      -1.422  15.490  24.550  0.00  0.00    +0.000 N 
ATOM     12  C   UNL     1      -0.274  16.356  24.548  0.00  0.00    +0.000 C 
ATOM     13  C   UNL     1      -3.374  12.683  23.794  0.00  0.00    +0.000 A 
ATOM     14  O   UNL     1      -4.507  12.248  23.980  0.00  0.00    +0.000 OA
ATOM     15  N   UNL     1      -2.431  11.994  23.058  0.00  0.00    +0.000 N 
ATOM     16  C   UNL     1       0.579  11.957  21.039  0.00  0.00    +0.000 C 
ATOM     17  C   UNL     1       0.492  11.014  19.811  0.00  0.00    +0.000 C 
ATOM     18  H   UNL     1      -2.753  11.144  22.628  0.00  0.00    +0.000 HD
ENDROOT
BRANCH   1  23
ATOM     19  C   UNL     1       3.167   6.848  18.249  0.00  0.00    +0.000 A 
ATOM     20  C   UNL     1       2.731   6.601  19.545  0.00  0.00    +0.000 A 
ATOM     21  C   UNL     1       1.881   7.505  20.184  0.00  0.00    +0.000 A 
ATOM     22  F   UNL     1       1.487   7.176  21.427  0.00  0.00    +0.000 F 
ATOM     23  C   UNL     1       1.421   8.689  19.578  0.00  0.00    +0.000 A 
ATOM     24  C   UNL     1       1.886   8.900  18.266  0.00  0.00    +0.000 A 
ATOM     25  F   UNL     1       1.572  10.030  17.609  0.00  0.00    +0.000 F 
ATOM     26  C   UNL     1       2.737   8.006  17.611  0.00  0.00    +0.000 A 
BRANCH  19  27
ATOM     27  O   UNL     1       4.004   6.047  17.524  0.00  0.00    +0.000 OA
BRANCH  27  28
ATOM     28  C   UNL     1       4.170   4.713  18.012  0.00  0.00    +0.000 C 
BRANCH  28  29
ATOM     29  C   UNL     1       3.322   3.758  17.186  0.00  0.00    +0.000 C 
BRANCH  29  31
ATOM     30  C   UNL     1       2.066   2.167  18.388  0.00  0.00    +0.000 C 
ATOM     31  O   UNL     1       2.105   3.497  17.888  0.00  0.00    +0.000 OA
ENDBRANCH  29  31
ENDBRANCH  28  29
ENDBRANCH  27  28
ENDBRANCH  19  27
ENDBRANCH   1  23
TORSDOF 5
ENDMDL
MODEL 6
REMARK VINA RESULT:      -7.6      3.949     10.581
REMARK  Name = 
REMARK  7 active torsions:
REMARK  status: ('A' for Active; 'I' for Inactive)
REMARK    1  A    between atoms: C_1  and  O_2
REMARK    2  A    between atoms: O_2  and  C_3
REMARK    3  A    between atoms: C_3  and  C_4
REMARK    4  A    between atoms: C_4  and  O_5
REMARK    5  A    between atoms: O_5  and  C_6
REMARK    6  A    between atoms: C_10  and  N_11
REMARK    7  A    between atoms: N_21  and  C_22
REMARK                            x       y       z     vdW  Elec       q    Type
REMARK                         _______ _______ _______ _____ _____    ______ ____
ROOT
ATOM      1  N   UNL     1       1.434   9.296  18.972  0.00  0.00    +0.000 N 
ATOM      2  C   UNL     1       1.853   8.209  19.873  0.00  0.00    +0.000 C 
ATOM      3  C   UNL     1       2.319   7.004  19.035  0.00  0.00    +0.000 C 
ATOM      4  N   UNL     1       3.378   7.424  18.097  0.00  0.00    +0.000 N 
ATOM      5  C   UNL     1       4.457   6.623  17.847  0.00  0.00    +0.000 A 
ATOM      6  N   UNL     1       4.814   6.220  16.654  0.00  0.00    +0.000 NA
ATOM      7  C   UNL     1       5.916   5.421  16.666  0.00  0.00    +0.000 A 
ATOM      8  C   UNL     1       6.673   5.030  17.749  0.00  0.00    +0.000 A 
ATOM      9  N   UNL     1       7.700   4.228  17.359  0.00  0.00    +0.000 NA
ATOM     10  N   UNL     1       7.614   4.093  16.040  0.00  0.00    +0.000 NA
ATOM     11  N   UNL     1       6.543   4.809  15.622  0.00  0.00    +0.000 N 
ATOM     12  C   UNL     1       6.208   4.856  14.225  0.00  0.00    +0.000 C 
ATOM     13  C   UNL     1       6.301   5.506  19.045  0.00  0.00    +0.000 A 
ATOM     14  O   UNL     1       6.890   5.270  20.096  0.00  0.00    +0.000 OA
ATOM     15  N   UNL     1       5.170   6.296  18.994  0.00  0.00    +0.000 N 
ATOM     16  C   UNL     1       2.918   8.459  17.155  0.00  0.00    +0.000 C 
ATOM     17  C   UNL     1       2.442   9.694  17.964  0.00  0.00    +0.000 C 
ATOM     18  H   UNL     1       4.898   6.721  19.864  0.00  0.00    +0.000 HD
ENDROOT
BRANCH   1  23
ATOM     19  C   UNL     1      -2.129  11.532  19.560  0.00  0.00    +0.000 A 
ATOM     20  C   UNL     1      -1.957  10.763  18.417  0.00  0.00    +0.000 A 
ATOM     21  C   UNL     1      -0.789  10.021  18.238  0.00  0.00    +0.000 A 
ATOM     22  F   UNL     1      -0.716   9.285  17.115  0.00  0.00    +0.000 F 
ATOM     23  C   UNL     1       0.261  10.002  19.175  0.00  0.00    +0.000 A 
ATOM     24  C   UNL     1       0.046  10.794  20.319  0.00  0.00    +0.000 A 
ATOM     25  F   UNL     1       1.005  10.911  21.252  0.00  0.00    +0.000 F 
ATOM     26  C   UNL     1      -1.118  11.542  20.515  0.00  0.00    +0.000 A 
BRANCH  19  27
ATOM     27  O   UNL     1      -3.221  12.306  19.844  0.00  0.00    +0.000 OA
BRANCH  27  28
ATOM     28  C   UNL     1      -3.034  13.304  20.851  0.00  0.00    +0.000 C 
BRANCH  28  29
ATOM     29  C   UNL     1      -4.286  13.404  21.709  0.00  0.00    +0.000 C 
BRANCH  29  31
ATOM     30  C   UNL     1      -3.188  12.365  23.516  0.00  0.00    +0.000 C 
ATOM     31  O   UNL     1      -4.300  12.314  22.632  0.00  0.00    +0.000 OA
ENDBRANCH  29  31
ENDBRANCH  28  29
ENDBRANCH  27  28
ENDBRANCH  19  27
ENDBRANCH   1  23
TORSDOF 5
ENDMDL
MODEL 7
REMARK VINA RESULT:      -7.6      1.059      1.940
REMARK  Name = 
REMARK  7 active torsions:
REMARK  status: ('A' for Active; 'I' for Inactive)
REMARK    1  A    between atoms: C_1  and  O_2
REMARK    2  A    between atoms: O_2  and  C_3
REMARK    3  A    between atoms: C_3  and  C_4
REMARK    4  A    between atoms: C_4  and  O_5
REMARK    5  A    between atoms: O_5  and  C_6
REMARK    6  A    between atoms: C_10  and  N_11
REMARK    7  A    between atoms: N_21  and  C_22
REMARK                            x       y       z     vdW  Elec       q    Type
REMARK                         _______ _______ _______ _____ _____    ______ ____
ROOT
ATOM      1  N   UNL     1       1.250   8.718  19.948  0.00  0.00    +0.000 N 
ATOM      2  C   UNL     1       0.536   8.493  21.216  0.00  0.00    +0.000 C 
ATOM      3  C   UNL     1       0.723   9.719  22.130  0.00  0.00    +0.000 C 
ATOM      4  N   UNL     1       0.290  10.941  21.426  0.00  0.00    +0.000 N 
ATOM      5  C   UNL     1      -0.395  11.927  22.080  0.00  0.00    +0.000 A 
ATOM      6  N   UNL     1      -0.014  13.178  22.132  0.00  0.00    +0.000 NA
ATOM      7  C   UNL     1      -0.858  13.966  22.854  0.00  0.00    +0.000 A 
ATOM      8  C   UNL     1      -2.028  13.605  23.486  0.00  0.00    +0.000 A 
ATOM      9  N   UNL     1      -2.594  14.675  24.106  0.00  0.00    +0.000 NA
ATOM     10  N   UNL     1      -1.803  15.720  23.887  0.00  0.00    +0.000 NA
ATOM     11  N   UNL     1      -0.760  15.296  23.134  0.00  0.00    +0.000 N 
ATOM     12  C   UNL     1       0.261  16.223  22.729  0.00  0.00    +0.000 C 
ATOM     13  C   UNL     1      -2.459  12.244  23.392  0.00  0.00    +0.000 A 
ATOM     14  O   UNL     1      -3.488  11.779  23.874  0.00  0.00    +0.000 OA
ATOM     15  N   UNL     1      -1.569  11.475  22.670  0.00  0.00    +0.000 N 
ATOM     16  C   UNL     1       1.065  11.189  20.198  0.00  0.00    +0.000 C 
ATOM     17  C   UNL     1       0.898   9.974  19.248  0.00  0.00    +0.000 C 
ATOM     18  H   UNL     1      -1.851  10.524  22.507  0.00  0.00    +0.000 HD
ENDROOT
BRANCH   1  23
ATOM     19  C   UNL     1       3.631   5.691  18.156  0.00  0.00    +0.000 A 
ATOM     20  C   UNL     1       3.478   6.927  17.542  0.00  0.00    +0.000 A 
ATOM     21  C   UNL     1       2.704   7.921  18.144  0.00  0.00    +0.000 A 
ATOM     22  F   UNL     1       2.631   9.095  17.494  0.00  0.00    +0.000 F 
ATOM     23  C   UNL     1       2.049   7.742  19.376  0.00  0.00    +0.000 A 
ATOM     24  C   UNL     1       2.230   6.477  19.965  0.00  0.00    +0.000 A 
ATOM     25  F   UNL     1       1.597   6.163  21.108  0.00  0.00    +0.000 F 
ATOM     26  C   UNL     1       3.002   5.471  19.376  0.00  0.00    +0.000 A 
BRANCH  19  27
ATOM     27  O   UNL     1       4.353   4.640  17.663  0.00  0.00    +0.000 OA
BRANCH  27  28
ATOM     28  C   UNL     1       5.508   4.982  16.893  0.00  0.00    +0.000 C 
BRANCH  28  29
ATOM     29  C   UNL     1       6.764   4.700  17.703  0.00  0.00    +0.000 C 
BRANCH  29  31
ATOM     30  C   UNL     1       7.242   6.994  17.460  0.00  0.00    +0.000 C 
ATOM     31  O   UNL     1       7.756   5.672  17.370  0.00  0.00    +0.000 OA
ENDBRANCH  29  31
ENDBRANCH  28  29
ENDBRANCH  27  28
ENDBRANCH  19  27
ENDBRANCH   1  23
TORSDOF 5
ENDMDL
MODEL 8
REMARK VINA RESULT:      -7.6      2.088      3.024
REMARK  Name = 
REMARK  7 active torsions:
REMARK  status: ('A' for Active; 'I' for Inactive)
REMARK    1  A    between atoms: C_1  and  O_2
REMARK    2  A    between atoms: O_2  and  C_3
REMARK    3  A    between atoms: C_3  and  C_4
REMARK    4  A    between atoms: C_4  and  O_5
REMARK    5  A    between atoms: O_5  and  C_6
REMARK    6  A    between atoms: C_10  and  N_11
REMARK    7  A    between atoms: N_21  and  C_22
REMARK                            x       y       z     vdW  Elec       q    Type
REMARK                         _______ _______ _______ _____ _____    ______ ____
ROOT
ATOM      1  N   UNL     1       1.232   9.025  20.016  0.00  0.00    +0.000 N 
ATOM      2  C   UNL     1       0.609  10.005  19.109  0.00  0.00    +0.000 C 
ATOM      3  C   UNL     1      -0.789  10.372  19.641  0.00  0.00    +0.000 C 
ATOM      4  N   UNL     1      -0.687  10.849  21.033  0.00  0.00    +0.000 N 
ATOM      5  C   UNL     1      -1.443  11.899  21.476  0.00  0.00    +0.000 A 
ATOM      6  N   UNL     1      -2.248  11.844  22.508  0.00  0.00    +0.000 NA
ATOM      7  C   UNL     1      -2.899  13.016  22.742  0.00  0.00    +0.000 A 
ATOM      8  C   UNL     1      -2.788  14.205  22.055  0.00  0.00    +0.000 A 
ATOM      9  N   UNL     1      -3.602  15.153  22.591  0.00  0.00    +0.000 NA
ATOM     10  N   UNL     1      -4.240  14.591  23.612  0.00  0.00    +0.000 NA
ATOM     11  N   UNL     1      -3.818  13.307  23.705  0.00  0.00    +0.000 N 
ATOM     12  C   UNL     1      -4.337  12.451  24.737  0.00  0.00    +0.000 C 
ATOM     13  C   UNL     1      -1.877  14.270  20.953  0.00  0.00    +0.000 A 
ATOM     14  O   UNL     1      -1.648  15.261  20.266  0.00  0.00    +0.000 OA
ATOM     15  N   UNL     1      -1.252  13.059  20.735  0.00  0.00    +0.000 N 
ATOM     16  C   UNL     1      -0.130   9.830  21.939  0.00  0.00    +0.000 C 
ATOM     17  C   UNL     1       1.284   9.435  21.437  0.00  0.00    +0.000 C 
ATOM     18  H   UNL     1      -0.545  13.058  20.020  0.00  0.00    +0.000 HD
ENDROOT
BRANCH   1  23
ATOM     19  C   UNL     1       3.134   5.536  18.515  0.00  0.00    +0.000 A 
ATOM     20  C   UNL     1       3.211   6.737  17.822  0.00  0.00    +0.000 A 
ATOM     21  C   UNL     1       2.594   7.882  18.329  0.00  0.00    +0.000 A 
ATOM     22  F   UNL     1       2.740   9.007  17.608  0.00  0.00    +0.000 F 
ATOM     23  C   UNL     1       1.876   7.896  19.540  0.00  0.00    +0.000 A 
ATOM     24  C   UNL     1       1.823   6.659  20.210  0.00  0.00    +0.000 A 
ATOM     25  F   UNL     1       1.108   6.530  21.341  0.00  0.00    +0.000 F 
ATOM     26  C   UNL     1       2.436   5.503  19.717  0.00  0.00    +0.000 A 
BRANCH  19  27
ATOM     27  O   UNL     1       3.687   4.350  18.118  0.00  0.00    +0.000 OA
BRANCH  27  28
ATOM     28  C   UNL     1       4.758   3.858  18.928  0.00  0.00    +0.000 C 
BRANCH  28  29
ATOM     29  C   UNL     1       6.057   4.539  18.523  0.00  0.00    +0.000 C 
BRANCH  29  31
ATOM     30  C   UNL     1       7.859   5.799  19.370  0.00  0.00    +0.000 C 
ATOM     31  O   UNL     1       6.676   5.081  19.691  0.00  0.00    +0.000 OA
ENDBRANCH  29  31
ENDBRANCH  28  29
ENDBRANCH  27  28
ENDBRANCH  19  27
ENDBRANCH   1  23
TORSDOF 5
ENDMDL
MODEL 9
REMARK VINA RESULT:      -7.5      2.214      3.485
REMARK  Name = 
REMARK  7 active torsions:
REMARK  status: ('A' for Active; 'I' for Inactive)
REMARK    1  A    between atoms: C_1  and  O_2
REMARK    2  A    between atoms: O_2  and  C_3
REMARK    3  A    between atoms: C_3  and  C_4
REMARK    4  A    between atoms: C_4  and  O_5
REMARK    5  A    between atoms: O_5  and  C_6
REMARK    6  A    between atoms: C_10  and  N_11
REMARK    7  A    between atoms: N_21  and  C_22
REMARK                            x       y       z     vdW  Elec       q    Type
REMARK                         _______ _______ _______ _____ _____    ______ ____
ROOT
ATOM      1  N   UNL     1       1.185   9.277  19.972  0.00  0.00    +0.000 N 
ATOM      2  C   UNL     1       0.502  10.246  19.098  0.00  0.00    +0.000 C 
ATOM      3  C   UNL     1      -0.899  10.544  19.664  0.00  0.00    +0.000 C 
ATOM      4  N   UNL     1      -0.788  10.999  21.063  0.00  0.00    +0.000 N 
ATOM      5  C   UNL     1      -1.579  12.006  21.542  0.00  0.00    +0.000 A 
ATOM      6  N   UNL     1      -2.359  11.898  22.587  0.00  0.00    +0.000 NA
ATOM      7  C   UNL     1      -3.055  13.036  22.858  0.00  0.00    +0.000 A 
ATOM      8  C   UNL     1      -3.008  14.241  22.192  0.00  0.00    +0.000 A 
ATOM      9  N   UNL     1      -3.850  15.144  22.762  0.00  0.00    +0.000 NA
ATOM     10  N   UNL     1      -4.443  14.536  23.785  0.00  0.00    +0.000 NA
ATOM     11  N   UNL     1      -3.966  13.270  23.844  0.00  0.00    +0.000 N 
ATOM     12  C   UNL     1      -4.425  12.373  24.869  0.00  0.00    +0.000 C 
ATOM     13  C   UNL     1      -2.124  14.366  21.074  0.00  0.00    +0.000 A 
ATOM     14  O   UNL     1      -1.951  15.378  20.401  0.00  0.00    +0.000 OA
ATOM     15  N   UNL     1      -1.452  13.187  20.820  0.00  0.00    +0.000 N 
ATOM     16  C   UNL     1      -0.171   9.987  21.938  0.00  0.00    +0.000 C 
ATOM     17  C   UNL     1       1.248   9.663  21.400  0.00  0.00    +0.000 C 
ATOM     18  H   UNL     1      -0.762  13.230  20.091  0.00  0.00    +0.000 HD
ENDROOT
BRANCH   1  23
ATOM     19  C   UNL     1       3.200   5.900  18.369  0.00  0.00    +0.000 A 
ATOM     20  C   UNL     1       3.176   7.103  17.677  0.00  0.00    +0.000 A 
ATOM     21  C   UNL     1       2.522   8.212  18.217  0.00  0.00    +0.000 A 
ATOM     22  F   UNL     1       2.570   9.344  17.493  0.00  0.00    +0.000 F 
ATOM     23  C   UNL     1       1.866   8.186  19.462  0.00  0.00    +0.000 A 
ATOM     24  C   UNL     1       1.915   6.948  20.130  0.00  0.00    +0.000 A 
ATOM     25  F   UNL     1       1.265   6.779  21.294  0.00  0.00    +0.000 F 
ATOM     26  C   UNL     1       2.566   5.828  19.604  0.00  0.00    +0.000 A 
BRANCH  19  27
ATOM     27  O   UNL     1       3.798   4.746  17.941  0.00  0.00    +0.000 OA
BRANCH  27  28
ATOM     28  C   UNL     1       3.697   3.626  18.825  0.00  0.00    +0.000 C 
BRANCH  28  29
ATOM     29  C   UNL     1       3.111   2.438  18.078  0.00  0.00    +0.000 C 
BRANCH  29  31
ATOM     30  C   UNL     1       0.870   2.434  18.806  0.00  0.00    +0.000 C 
ATOM     31  O   UNL     1       1.755   2.733  17.736  0.00  0.00    +0.000 OA
ENDBRANCH  29  31
ENDBRANCH  28  29
ENDBRANCH  27  28
ENDBRANCH  19  27
ENDBRANCH   1  23
TORSDOF 5
ENDMDL
