MODEL 1
REMARK VINA RESULT:      -8.4      0.000      0.000
REMARK  Name = 
REMARK  7 active torsions:
REMARK  status: ('A' for Active; 'I' for Inactive)
REMARK    1  A    between atoms: C_1  and  C_2
REMARK    2  A    between atoms: C_2  and  C_3
REMARK    3  A    between atoms: C_3  and  C_4
REMARK    4  A    between atoms: C_3  and  N_5
REMARK    5  A    between atoms: C_7  and  C_8
REMARK    6  A    between atoms: C_11  and  C_12
REMARK    7  A    between atoms: C_13  and  O_14
REMARK                            x       y       z     vdW  Elec       q    Type
REMARK                         _______ _______ _______ _____ _____    ______ ____
ROOT
ATOM      1  N   UNL     1       4.656   4.506  17.183  0.00  0.00    +0.000 N 
ATOM      2  N   UNL     1       4.274   5.786  17.392  0.00  0.00    +0.000 NA
ATOM      3  C   UNL     1       3.223   5.689  18.229  0.00  0.00    +0.000 A 
ATOM      4  C   UNL     1       2.905   4.320  18.506  0.00  0.00    +0.000 A 
ATOM      5  C   UNL     1       1.955   3.570  19.215  0.00  0.00    +0.000 A 
ATOM      6  N   UNL     1       0.874   4.091  19.907  0.00  0.00    +0.000 N 
ATOM      7  N   UNL     1       2.063   2.225  19.227  0.00  0.00    +0.000 NA
ATOM      8  C   UNL     1       3.073   1.652  18.548  0.00  0.00    +0.000 A 
ATOM      9  N   UNL     1       4.017   2.257  17.812  0.00  0.00    +0.000 NA
ATOM     10  C   UNL     1       3.874   3.593  17.834  0.00  0.00    +0.000 A 
ATOM     11  H   UNL     1       0.488   4.954  19.544  0.00  0.00    +0.000 HD
ATOM     12  H   UNL     1       0.205   3.368  20.142  0.00  0.00    +0.000 HD
ENDROOT
BRANCH   3  13
ATOM     13  C   UNL     1       2.577   6.910  18.720  0.00  0.00    +0.000 A 
ATOM     14  C   UNL     1       2.167   7.009  20.057  0.00  0.00    +0.000 A 
ATOM     15  C   UNL     1       1.530   8.164  20.525  0.00  0.00    +0.000 A 
ATOM     16  C   UNL     1       1.293   9.250  19.670  0.00  0.00    +0.000 A 
ATOM     17  C   UNL     1       0.587  10.466  20.192  0.00  0.00    +0.000 C 
ATOM     18  C   UNL     1       1.712   9.144  18.341  0.00  0.00    +0.000 A 
ATOM     19  C   UNL     1       2.320   7.984  17.864  0.00  0.00    +0.000 A 
BRANCH  18  20
ATOM     20  O   UNL     1       1.560  10.152  17.432  0.00  0.00    +0.000 OA
ATOM     21  H   UNL     1       0.625  10.231  17.187  0.00  0.00    +0.000 HD
ENDBRANCH  18  20
ENDBRANCH   3  13
BRANCH   1  22
ATOM     22  C   UNL     1       5.781   4.210  16.305  0.00  0.00    +0.000 C 
ATOM     23  C   UNL     1       7.094   4.686  16.933  0.00  0.00    +0.000 C 
BRANCH  22  25
ATOM     24  C   UNL     1       6.292   3.978  13.807  0.00  0.00    +0.000 C 
ATOM     25  C   UNL     1       5.608   4.799  14.893  0.00  0.00    +0.000 C 
ENDBRANCH  22  25
ENDBRANCH   1  22
TORSDOF 4
ENDMDL
MODEL 2
REMARK VINA RESULT:      -8.3      1.014      1.438
REMARK  Name = 
REMARK  7 active torsions:
REMARK  status: ('A' for Active; 'I' for Inactive)
REMARK    1  A    between atoms: C_1  and  C_2
REMARK    2  A    between atoms: C_2  and  C_3
REMARK    3  A    between atoms: C_3  and  C_4
REMARK    4  A    between atoms: C_3  and  N_5
REMARK    5  A    between atoms: C_7  and  C_8
REMARK    6  A    between atoms: C_11  and  C_12
REMARK    7  A    between atoms: C_13  and  O_14
REMARK                            x       y       z     vdW  Elec       q    Type
REMARK                         _______ _______ _______ _____ _____    ______ ____
ROOT
ATOM      1  N   UNL     1       4.693   4.474  17.082  0.00  0.00    +0.000 N 
ATOM      2  N   UNL     1       4.286   5.749  17.275  0.00  0.00    +0.000 NA
ATOM      3  C   UNL     1       3.234   5.642  18.108  0.00  0.00    +0.000 A 
ATOM      4  C   UNL     1       2.940   4.271  18.398  0.00  0.00    +0.000 A 
ATOM      5  C   UNL     1       1.999   3.511  19.111  0.00  0.00    +0.000 A 
ATOM      6  N   UNL     1       0.906   4.020  19.792  0.00  0.00    +0.000 N 
ATOM      7  N   UNL     1       2.133   2.168  19.139  0.00  0.00    +0.000 NA
ATOM      8  C   UNL     1       3.156   1.607  18.471  0.00  0.00    +0.000 A 
ATOM      9  N   UNL     1       4.093   2.221  17.732  0.00  0.00    +0.000 NA
ATOM     10  C   UNL     1       3.925   3.554  17.739  0.00  0.00    +0.000 A 
ATOM     11  H   UNL     1       0.506   4.871  19.418  0.00  0.00    +0.000 HD
ATOM     12  H   UNL     1       0.249   3.287  20.032  0.00  0.00    +0.000 HD
ENDROOT
BRANCH   3  13
ATOM     13  C   UNL     1       2.563   6.856  18.583  0.00  0.00    +0.000 A 
ATOM     14  C   UNL     1       2.195   7.864  17.682  0.00  0.00    +0.000 A 
ATOM     15  C   UNL     1       1.573   9.035  18.134  0.00  0.00    +0.000 A 
ATOM     16  C   UNL     1       1.300   9.222  19.496  0.00  0.00    +0.000 A 
ATOM     17  C   UNL     1       0.655  10.496  19.957  0.00  0.00    +0.000 C 
ATOM     18  C   UNL     1       1.664   8.207  20.386  0.00  0.00    +0.000 A 
ATOM     19  C   UNL     1       2.310   7.054  19.943  0.00  0.00    +0.000 A 
BRANCH  18  20
ATOM     20  O   UNL     1       1.417   8.272  21.728  0.00  0.00    +0.000 OA
ATOM     21  H   UNL     1       1.253   9.192  21.985  0.00  0.00    +0.000 HD
ENDBRANCH  18  20
ENDBRANCH   3  13
BRANCH   1  22
ATOM     22  C   UNL     1       5.828   4.190  16.212  0.00  0.00    +0.000 C 
ATOM     23  C   UNL     1       7.138   4.613  16.881  0.00  0.00    +0.000 C 
BRANCH  22  25
ATOM     24  C   UNL     1       6.022   3.887  13.677  0.00  0.00    +0.000 C 
ATOM     25  C   UNL     1       5.692   4.838  14.822  0.00  0.00    +0.000 C 
ENDBRANCH  22  25
ENDBRANCH   1  22
TORSDOF 4
ENDMDL
MODEL 3
REMARK VINA RESULT:      -8.1      1.504      1.915
REMARK  Name = 
REMARK  7 active torsions:
REMARK  status: ('A' for Active; 'I' for Inactive)
REMARK    1  A    between atoms: C_1  and  C_2
REMARK    2  A    between atoms: C_2  and  C_3
REMARK    3  A    between atoms: C_3  and  C_4
REMARK    4  A    between atoms: C_3  and  N_5
REMARK    5  A    between atoms: C_7  and  C_8
REMARK    6  A    between atoms: C_11  and  C_12
REMARK    7  A    between atoms: C_13  and  O_14
REMARK                            x       y       z     vdW  Elec       q    Type
REMARK                         _______ _______ _______ _____ _____    ______ ____
ROOT
ATOM      1  N   UNL     1       5.309   5.049  18.500  0.00  0.00    +0.000 N 
ATOM      2  N   UNL     1       4.705   6.241  18.299  0.00  0.00    +0.000 NA
ATOM      3  C   UNL     1       3.521   6.129  18.931  0.00  0.00    +0.000 A 
ATOM      4  C   UNL     1       3.357   4.821  19.493  0.00  0.00    +0.000 A 
ATOM      5  C   UNL     1       2.395   4.076  20.192  0.00  0.00    +0.000 A 
ATOM      6  N   UNL     1       1.123   4.514  20.521  0.00  0.00    +0.000 N 
ATOM      7  N   UNL     1       2.696   2.816  20.572  0.00  0.00    +0.000 NA
ATOM      8  C   UNL     1       3.904   2.318  20.256  0.00  0.00    +0.000 A 
ATOM      9  N   UNL     1       4.888   2.917  19.568  0.00  0.00    +0.000 NA
ATOM     10  C   UNL     1       4.547   4.169  19.217  0.00  0.00    +0.000 A 
ATOM     11  H   UNL     1       0.704   5.179  19.884  0.00  0.00    +0.000 HD
ATOM     12  H   UNL     1       0.534   3.744  20.813  0.00  0.00    +0.000 HD
ENDROOT
BRANCH   3  13
ATOM     13  C   UNL     1       2.609   7.275  18.966  0.00  0.00    +0.000 A 
ATOM     14  C   UNL     1       2.356   8.019  17.805  0.00  0.00    +0.000 A 
ATOM     15  C   UNL     1       1.503   9.128  17.838  0.00  0.00    +0.000 A 
ATOM     16  C   UNL     1       0.876   9.516  19.031  0.00  0.00    +0.000 A 
ATOM     17  C   UNL     1      -0.014  10.723  19.044  0.00  0.00    +0.000 C 
ATOM     18  C   UNL     1       1.129   8.764  20.181  0.00  0.00    +0.000 A 
ATOM     19  C   UNL     1       2.001   7.677  20.159  0.00  0.00    +0.000 A 
BRANCH  18  20
ATOM     20  O   UNL     1       0.549   9.034  21.388  0.00  0.00    +0.000 OA
ATOM     21  H   UNL     1      -0.271   8.524  21.477  0.00  0.00    +0.000 HD
ENDBRANCH  18  20
ENDBRANCH   3  13
BRANCH   1  22
ATOM     22  C   UNL     1       6.632   4.793  17.944  0.00  0.00    +0.000 C 
ATOM     23  C   UNL     1       7.675   5.708  18.591  0.00  0.00    +0.000 C 
BRANCH  22  25
ATOM     24  C   UNL     1       5.903   3.821  15.690  0.00  0.00    +0.000 C 
ATOM     25  C   UNL     1       6.670   4.924  16.410  0.00  0.00    +0.000 C 
ENDBRANCH  22  25
ENDBRANCH   1  22
TORSDOF 4
ENDMDL
MODEL 4
REMARK VINA RESULT:      -7.9      0.658      1.374
REMARK  Name = 
REMARK  7 active torsions:
REMARK  status: ('A' for Active; 'I' for Inactive)
REMARK    1  A    between atoms: C_1  and  C_2
REMARK    2  A    between atoms: C_2  and  C_3
REMARK    3  A    between atoms: C_3  and  C_4
REMARK    4  A    between atoms: C_3  and  N_5
REMARK    5  A    between atoms: C_7  and  C_8
REMARK    6  A    between atoms: C_11  and  C_12
REMARK    7  A    between atoms: C_13  and  O_14
REMARK                            x       y       z     vdW  Elec       q    Type
REMARK                         _______ _______ _______ _____ _____    ______ ____
ROOT
ATOM      1  N   UNL     1       4.765   5.271  16.959  0.00  0.00    +0.000 N 
ATOM      2  N   UNL     1       4.259   6.477  17.303  0.00  0.00    +0.000 NA
ATOM      3  C   UNL     1       3.223   6.187  18.112  0.00  0.00    +0.000 A 
ATOM      4  C   UNL     1       3.041   4.772  18.234  0.00  0.00    +0.000 A 
ATOM      5  C   UNL     1       2.168   3.858  18.847  0.00  0.00    +0.000 A 
ATOM      6  N   UNL     1       1.041   4.193  19.580  0.00  0.00    +0.000 N 
ATOM      7  N   UNL     1       2.408   2.537  18.713  0.00  0.00    +0.000 NA
ATOM      8  C   UNL     1       3.469   2.144  17.987  0.00  0.00    +0.000 A 
ATOM      9  N   UNL     1       4.350   2.915  17.331  0.00  0.00    +0.000 NA
ATOM     10  C   UNL     1       4.077   4.220  17.498  0.00  0.00    +0.000 A 
ATOM     11  H   UNL     1       0.573   5.048  19.308  0.00  0.00    +0.000 HD
ATOM     12  H   UNL     1       0.447   3.386  19.727  0.00  0.00    +0.000 HD
ENDROOT
BRANCH   3  13
ATOM     13  C   UNL     1       2.460   7.277  18.727  0.00  0.00    +0.000 A 
ATOM     14  C   UNL     1       2.150   7.246  20.093  0.00  0.00    +0.000 A 
ATOM     15  C   UNL     1       1.403   8.275  20.680  0.00  0.00    +0.000 A 
ATOM     16  C   UNL     1       0.953   9.361  19.916  0.00  0.00    +0.000 A 
ATOM     17  C   UNL     1       0.134  10.437  20.565  0.00  0.00    +0.000 C 
ATOM     18  C   UNL     1       1.274   9.387  18.556  0.00  0.00    +0.000 A 
ATOM     19  C   UNL     1       1.992   8.350  17.962  0.00  0.00    +0.000 A 
BRANCH  18  20
ATOM     20  O   UNL     1       0.914  10.410  17.727  0.00  0.00    +0.000 OA
ATOM     21  H   UNL     1       1.704  10.896  17.446  0.00  0.00    +0.000 HD
ENDBRANCH  18  20
ENDBRANCH   3  13
BRANCH   1  22
ATOM     22  C   UNL     1       5.914   5.184  16.066  0.00  0.00    +0.000 C 
ATOM     23  C   UNL     1       5.547   4.423  14.789  0.00  0.00    +0.000 C 
BRANCH  22  25
ATOM     24  C   UNL     1       7.553   5.257  18.031  0.00  0.00    +0.000 C 
ATOM     25  C   UNL     1       7.147   4.556  16.740  0.00  0.00    +0.000 C 
ENDBRANCH  22  25
ENDBRANCH   1  22
TORSDOF 4
ENDMDL
MODEL 5
REMARK VINA RESULT:      -7.8      1.213      1.984
REMARK  Name = 
REMARK  7 active torsions:
REMARK  status: ('A' for Active; 'I' for Inactive)
REMARK    1  A    between atoms: C_1  and  C_2
REMARK    2  A    between atoms: C_2  and  C_3
REMARK    3  A    between atoms: C_3  and  C_4
REMARK    4  A    between atoms: C_3  and  N_5
REMARK    5  A    between atoms: C_7  and  C_8
REMARK    6  A    between atoms: C_11  and  C_12
REMARK    7  A    between atoms: C_13  and  O_14
REMARK                            x       y       z     vdW  Elec       q    Type
REMARK                         _______ _______ _______ _____ _____    ______ ____
ROOT
ATOM      1  N   UNL     1       4.774   5.271  16.897  0.00  0.00    +0.000 N 
ATOM      2  N   UNL     1       4.261   6.481  17.213  0.00  0.00    +0.000 NA
ATOM      3  C   UNL     1       3.225   6.204  18.027  0.00  0.00    +0.000 A 
ATOM      4  C   UNL     1       3.050   4.791  18.181  0.00  0.00    +0.000 A 
ATOM      5  C   UNL     1       2.181   3.888  18.813  0.00  0.00    +0.000 A 
ATOM      6  N   UNL     1       1.052   4.232  19.536  0.00  0.00    +0.000 N 
ATOM      7  N   UNL     1       2.429   2.565  18.709  0.00  0.00    +0.000 NA
ATOM      8  C   UNL     1       3.493   2.161  17.993  0.00  0.00    +0.000 A 
ATOM      9  N   UNL     1       4.371   2.922  17.322  0.00  0.00    +0.000 NA
ATOM     10  C   UNL     1       4.090   4.229  17.459  0.00  0.00    +0.000 A 
ATOM     11  H   UNL     1       0.579   5.079  19.245  0.00  0.00    +0.000 HD
ATOM     12  H   UNL     1       0.461   3.426  19.701  0.00  0.00    +0.000 HD
ENDROOT
BRANCH   3  13
ATOM     13  C   UNL     1       2.455   7.304  18.617  0.00  0.00    +0.000 A 
ATOM     14  C   UNL     1       1.944   8.328  17.808  0.00  0.00    +0.000 A 
ATOM     15  C   UNL     1       1.227   9.391  18.369  0.00  0.00    +0.000 A 
ATOM     16  C   UNL     1       0.999   9.454  19.751  0.00  0.00    +0.000 A 
ATOM     17  C   UNL     1       0.249  10.617  20.328  0.00  0.00    +0.000 C 
ATOM     18  C   UNL     1       1.507   8.424  20.548  0.00  0.00    +0.000 A 
ATOM     19  C   UNL     1       2.247   7.380  19.997  0.00  0.00    +0.000 A 
BRANCH  18  20
ATOM     20  O   UNL     1       1.318   8.369  21.899  0.00  0.00    +0.000 OA
ATOM     21  H   UNL     1       0.994   7.490  22.147  0.00  0.00    +0.000 HD
ENDBRANCH  18  20
ENDBRANCH   3  13
BRANCH   1  22
ATOM     22  C   UNL     1       5.925   5.170  16.008  0.00  0.00    +0.000 C 
ATOM     23  C   UNL     1       5.551   4.420  14.727  0.00  0.00    +0.000 C 
BRANCH  22  25
ATOM     24  C   UNL     1       7.569   5.220  17.970  0.00  0.00    +0.000 C 
ATOM     25  C   UNL     1       7.146   4.520  16.684  0.00  0.00    +0.000 C 
ENDBRANCH  22  25
ENDBRANCH   1  22
TORSDOF 4
ENDMDL
MODEL 6
REMARK VINA RESULT:      -7.8      1.927      2.356
REMARK  Name = 
REMARK  7 active torsions:
REMARK  status: ('A' for Active; 'I' for Inactive)
REMARK    1  A    between atoms: C_1  and  C_2
REMARK    2  A    between atoms: C_2  and  C_3
REMARK    3  A    between atoms: C_3  and  C_4
REMARK    4  A    between atoms: C_3  and  N_5
REMARK    5  A    between atoms: C_7  and  C_8
REMARK    6  A    between atoms: C_11  and  C_12
REMARK    7  A    between atoms: C_13  and  O_14
REMARK                            x       y       z     vdW  Elec       q    Type
REMARK                         _______ _______ _______ _____ _____    ______ ____
ROOT
ATOM      1  N   UNL     1       5.334   5.487  18.653  0.00  0.00    +0.000 N 
ATOM      2  N   UNL     1       4.660   6.650  18.507  0.00  0.00    +0.000 NA
ATOM      3  C   UNL     1       3.444   6.401  19.029  0.00  0.00    +0.000 A 
ATOM      4  C   UNL     1       3.335   5.040  19.461  0.00  0.00    +0.000 A 
ATOM      5  C   UNL     1       2.381   4.170  20.013  0.00  0.00    +0.000 A 
ATOM      6  N   UNL     1       1.059   4.490  20.275  0.00  0.00    +0.000 N 
ATOM      7  N   UNL     1       2.746   2.904  20.306  0.00  0.00    +0.000 NA
ATOM      8  C   UNL     1       4.007   2.519  20.046  0.00  0.00    +0.000 A 
ATOM      9  N   UNL     1       4.993   3.243  19.495  0.00  0.00    +0.000 NA
ATOM     10  C   UNL     1       4.588   4.496  19.226  0.00  0.00    +0.000 A 
ATOM     11  H   UNL     1       0.641   5.182  19.665  0.00  0.00    +0.000 HD
ATOM     12  H   UNL     1       0.509   3.659  20.451  0.00  0.00    +0.000 HD
ENDROOT
BRANCH   3  13
ATOM     13  C   UNL     1       2.450   7.476  19.089  0.00  0.00    +0.000 A 
ATOM     14  C   UNL     1       2.117   8.202  17.938  0.00  0.00    +0.000 A 
ATOM     15  C   UNL     1       1.184   9.244  17.994  0.00  0.00    +0.000 A 
ATOM     16  C   UNL     1       0.556   9.581  19.202  0.00  0.00    +0.000 A 
ATOM     17  C   UNL     1      -0.422  10.717  19.240  0.00  0.00    +0.000 C 
ATOM     18  C   UNL     1       0.889   8.846  20.343  0.00  0.00    +0.000 A 
ATOM     19  C   UNL     1       1.840   7.828  20.297  0.00  0.00    +0.000 A 
BRANCH  18  20
ATOM     20  O   UNL     1       0.317   9.068  21.563  0.00  0.00    +0.000 OA
ATOM     21  H   UNL     1      -0.608   8.779  21.547  0.00  0.00    +0.000 HD
ENDBRANCH  18  20
ENDBRANCH   3  13
BRANCH   1  22
ATOM     22  C   UNL     1       6.710   5.372  18.185  0.00  0.00    +0.000 C 
ATOM     23  C   UNL     1       7.691   5.578  19.342  0.00  0.00    +0.000 C 
BRANCH  22  25
ATOM     24  C   UNL     1       7.688   7.630  17.478  0.00  0.00    +0.000 C 
ATOM     25  C   UNL     1       7.028   6.333  17.025  0.00  0.00    +0.000 C 
ENDBRANCH  22  25
ENDBRANCH   1  22
TORSDOF 4
ENDMDL
MODEL 7
REMARK VINA RESULT:      -7.7      1.468      2.235
REMARK  Name = 
REMARK  7 active torsions:
REMARK  status: ('A' for Active; 'I' for Inactive)
REMARK    1  A    between atoms: C_1  and  C_2
REMARK    2  A    between atoms: C_2  and  C_3
REMARK    3  A    between atoms: C_3  and  C_4
REMARK    4  A    between atoms: C_3  and  N_5
REMARK    5  A    between atoms: C_7  and  C_8
REMARK    6  A    between atoms: C_11  and  C_12
REMARK    7  A    between atoms: C_13  and  O_14
REMARK                            x       y       z     vdW  Elec       q    Type
REMARK                         _______ _______ _______ _____ _____    ______ ____
ROOT
ATOM      1  N   UNL     1       4.936   5.378  17.796  0.00  0.00    +0.000 N 
ATOM      2  N   UNL     1       4.298   6.569  17.760  0.00  0.00    +0.000 NA
ATOM      3  C   UNL     1       3.267   6.424  18.615  0.00  0.00    +0.000 A 
ATOM      4  C   UNL     1       3.226   5.098  19.155  0.00  0.00    +0.000 A 
ATOM      5  C   UNL     1       2.428   4.321  20.010  0.00  0.00    +0.000 A 
ATOM      6  N   UNL     1       1.247   4.734  20.603  0.00  0.00    +0.000 N 
ATOM      7  N   UNL     1       2.806   3.053  20.279  0.00  0.00    +0.000 NA
ATOM      8  C   UNL     1       3.927   2.578  19.709  0.00  0.00    +0.000 A 
ATOM      9  N   UNL     1       4.748   3.209  18.857  0.00  0.00    +0.000 NA
ATOM     10  C   UNL     1       4.338   4.468  18.623  0.00  0.00    +0.000 A 
ATOM     11  H   UNL     1       0.705   5.415  20.086  0.00  0.00    +0.000 HD
ATOM     12  H   UNL     1       0.732   3.949  20.983  0.00  0.00    +0.000 HD
ENDROOT
BRANCH   3  13
ATOM     13  C   UNL     1       2.376   7.559  18.871  0.00  0.00    +0.000 A 
ATOM     14  C   UNL     1       1.979   8.403  17.824  0.00  0.00    +0.000 A 
ATOM     15  C   UNL     1       1.146   9.500  18.068  0.00  0.00    +0.000 A 
ATOM     16  C   UNL     1       0.683   9.777  19.362  0.00  0.00    +0.000 A 
ATOM     17  C   UNL     1      -0.189  10.974  19.599  0.00  0.00    +0.000 C 
ATOM     18  C   UNL     1       1.078   8.926  20.398  0.00  0.00    +0.000 A 
ATOM     19  C   UNL     1       1.932   7.850  20.164  0.00  0.00    +0.000 A 
BRANCH  18  20
ATOM     20  O   UNL     1       0.662   9.085  21.689  0.00  0.00    +0.000 OA
ATOM     21  H   UNL     1       1.425   9.270  22.256  0.00  0.00    +0.000 HD
ENDBRANCH  18  20
ENDBRANCH   3  13
BRANCH   1  22
ATOM     22  C   UNL     1       6.119   5.154  16.976  0.00  0.00    +0.000 C 
ATOM     23  C   UNL     1       5.849   4.074  15.925  0.00  0.00    +0.000 C 
BRANCH  22  25
ATOM     24  C   UNL     1       7.775   5.905  18.778  0.00  0.00    +0.000 C 
ATOM     25  C   UNL     1       7.365   4.802  17.809  0.00  0.00    +0.000 C 
ENDBRANCH  22  25
ENDBRANCH   1  22
TORSDOF 4
ENDMDL
MODEL 8
REMARK VINA RESULT:      -7.4      1.278      1.471
REMARK  Name = 
REMARK  7 active torsions:
REMARK  status: ('A' for Active; 'I' for Inactive)
REMARK    1  A    between atoms: C_1  and  C_2
REMARK    2  A    between atoms: C_2  and  C_3
REMARK    3  A    between atoms: C_3  and  C_4
REMARK    4  A    between atoms: C_3  and  N_5
REMARK    5  A    between atoms: C_7  and  C_8
REMARK    6  A    between atoms: C_11  and  C_12
REMARK    7  A    between atoms: C_13  and  O_14
REMARK                            x       y       z     vdW  Elec       q    Type
REMARK                         _______ _______ _______ _____ _____    ______ ____
ROOT
ATOM      1  N   UNL     1       4.738   5.190  18.150  0.00  0.00    +0.000 N 
ATOM      2  N   UNL     1       4.204   6.420  18.323  0.00  0.00    +0.000 NA
ATOM      3  C   UNL     1       3.060   6.197  18.998  0.00  0.00    +0.000 A 
ATOM      4  C   UNL     1       2.846   4.796  19.204  0.00  0.00    +0.000 A 
ATOM      5  C   UNL     1       1.884   3.936  19.757  0.00  0.00    +0.000 A 
ATOM      6  N   UNL     1       0.669   4.329  20.294  0.00  0.00    +0.000 N 
ATOM      7  N   UNL     1       2.124   2.608  19.762  0.00  0.00    +0.000 NA
ATOM      8  C   UNL     1       3.272   2.156  19.227  0.00  0.00    +0.000 A 
ATOM      9  N   UNL     1       4.246   2.872  18.644  0.00  0.00    +0.000 NA
ATOM     10  C   UNL     1       3.968   4.187  18.667  0.00  0.00    +0.000 A 
ATOM     11  H   UNL     1       0.255   5.160  19.893  0.00  0.00    +0.000 HD
ATOM     12  H   UNL     1       0.050   3.537  20.419  0.00  0.00    +0.000 HD
ENDROOT
BRANCH   3  13
ATOM     13  C   UNL     1       2.232   7.334  19.411  0.00  0.00    +0.000 A 
ATOM     14  C   UNL     1       1.727   7.409  20.716  0.00  0.00    +0.000 A 
ATOM     15  C   UNL     1       0.918   8.482  21.109  0.00  0.00    +0.000 A 
ATOM     16  C   UNL     1       0.599   9.508  20.208  0.00  0.00    +0.000 A 
ATOM     17  C   UNL     1      -0.290  10.633  20.647  0.00  0.00    +0.000 C 
ATOM     18  C   UNL     1       1.114   9.428  18.911  0.00  0.00    +0.000 A 
ATOM     19  C   UNL     1       1.895   8.346  18.508  0.00  0.00    +0.000 A 
BRANCH  18  20
ATOM     20  O   UNL     1       0.892  10.386  17.963  0.00  0.00    +0.000 OA
ATOM     21  H   UNL     1       1.469  11.147  18.128  0.00  0.00    +0.000 HD
ENDBRANCH  18  20
ENDBRANCH   3  13
BRANCH   1  22
ATOM     22  C   UNL     1       6.000   5.032  17.438  0.00  0.00    +0.000 C 
ATOM     23  C   UNL     1       7.132   4.703  18.416  0.00  0.00    +0.000 C 
BRANCH  22  25
ATOM     24  C   UNL     1       7.414   7.156  17.224  0.00  0.00    +0.000 C 
ATOM     25  C   UNL     1       6.361   6.259  16.582  0.00  0.00    +0.000 C 
ENDBRANCH  22  25
ENDBRANCH   1  22
TORSDOF 4
ENDMDL
MODEL 9
REMARK VINA RESULT:      -7.4      1.256      3.537
REMARK  Name = 
REMARK  7 active torsions:
REMARK  status: ('A' for Active; 'I' for Inactive)
REMARK    1  A    between atoms: C_1  and  C_2
REMARK    2  A    between atoms: C_2  and  C_3
REMARK    3  A    between atoms: C_3  and  C_4
REMARK    4  A    between atoms: C_3  and  N_5
REMARK    5  A    between atoms: C_7  and  C_8
REMARK    6  A    between atoms: C_11  and  C_12
REMARK    7  A    between atoms: C_13  and  O_14
REMARK                            x       y       z     vdW  Elec       q    Type
REMARK                         _______ _______ _______ _____ _____    ______ ____
ROOT
ATOM      1  N   UNL     1       2.976   3.659  17.785  0.00  0.00    +0.000 N 
ATOM      2  N   UNL     1       2.272   4.606  18.445  0.00  0.00    +0.000 NA
ATOM      3  C   UNL     1       2.929   5.753  18.185  0.00  0.00    +0.000 A 
ATOM      4  C   UNL     1       4.098   5.513  17.394  0.00  0.00    +0.000 A 
ATOM      5  C   UNL     1       5.181   6.222  16.851  0.00  0.00    +0.000 A 
ATOM      6  N   UNL     1       5.429   7.572  17.034  0.00  0.00    +0.000 N 
ATOM      7  N   UNL     1       6.085   5.557  16.101  0.00  0.00    +0.000 NA
ATOM      8  C   UNL     1       5.920   4.236  15.911  0.00  0.00    +0.000 A 
ATOM      9  N   UNL     1       4.951   3.449  16.400  0.00  0.00    +0.000 NA
ATOM     10  C   UNL     1       4.072   4.152  17.134  0.00  0.00    +0.000 A 
ATOM     11  H   UNL     1       5.113   7.967  17.910  0.00  0.00    +0.000 HD
ATOM     12  H   UNL     1       6.371   7.814  16.750  0.00  0.00    +0.000 HD
ENDROOT
BRANCH   3  13
ATOM     13  C   UNL     1       2.405   7.019  18.707  0.00  0.00    +0.000 A 
ATOM     14  C   UNL     1       1.980   7.118  20.039  0.00  0.00    +0.000 A 
ATOM     15  C   UNL     1       1.459   8.319  20.535  0.00  0.00    +0.000 A 
ATOM     16  C   UNL     1       1.356   9.451  19.714  0.00  0.00    +0.000 A 
ATOM     17  C   UNL     1       0.771  10.717  20.265  0.00  0.00    +0.000 C 
ATOM     18  C   UNL     1       1.789   9.344  18.390  0.00  0.00    +0.000 A 
ATOM     19  C   UNL     1       2.280   8.141  17.884  0.00  0.00    +0.000 A 
BRANCH  18  20
ATOM     20  O   UNL     1       1.763  10.390  17.513  0.00  0.00    +0.000 OA
ATOM     21  H   UNL     1       1.659  11.221  18.001  0.00  0.00    +0.000 HD
ENDBRANCH  18  20
ENDBRANCH   3  13
BRANCH   1  22
ATOM     22  C   UNL     1       2.561   2.263  17.843  0.00  0.00    +0.000 C 
ATOM     23  C   UNL     1       1.206   2.133  18.544  0.00  0.00    +0.000 C 
BRANCH  22  25
ATOM     24  C   UNL     1       4.286   1.999  19.716  0.00  0.00    +0.000 C 
ATOM     25  C   UNL     1       3.609   1.355  18.511  0.00  0.00    +0.000 C 
ENDBRANCH  22  25
ENDBRANCH   1  22
TORSDOF 4
ENDMDL
