MODEL 1
REMARK VINA RESULT:      -7.1      0.000      0.000
REMARK  Name = 
REMARK  6 active torsions:
REMARK  status: ('A' for Active; 'I' for Inactive)
REMARK    1  A    between atoms: C_1  and  C_2
REMARK    2  A    between atoms: C_2  and  N_3
REMARK    3  A    between atoms: N_3  and  C_4
REMARK    4  A    between atoms: C_4  and  C_5
REMARK    5  A    between atoms: C_6  and  C_8
REMARK    6  A    between atoms: C_9  and  C_10
REMARK                            x       y       z     vdW  Elec       q    Type
REMARK                         _______ _______ _______ _____ _____    ______ ____
ROOT
ATOM      1  C   UNL     1       2.997   6.101  19.093  0.00  0.00    +0.000 A 
ATOM      2  C   UNL     1       3.504   6.529  17.862  0.00  0.00    +0.000 A 
ATOM      3  N   UNL     1       3.031   7.770  17.519  0.00  0.00    +0.000 NA
ATOM      4  C   UNL     1       2.306   8.167  18.531  0.00  0.00    +0.000 A 
ATOM      5  C   UNL     1       1.597   9.384  18.723  0.00  0.00    +0.000 A 
ATOM      6  C   UNL     1       0.898   9.579  19.857  0.00  0.00    +0.000 A 
ATOM      7  C   UNL     1       0.849   8.554  20.886  0.00  0.00    +0.000 A 
ATOM      8 CL   UNL     1      -0.073   8.862  22.303  0.00  0.00    +0.000 Cl
ATOM      9  C   UNL     1       1.514   7.403  20.709  0.00  0.00    +0.000 A 
ATOM     10  N   UNL     1       2.252   7.202  19.537  0.00  0.00    +0.000 N 
ENDROOT
BRANCH   2  11
ATOM     11  C   UNL     1       4.345   5.821  16.905  0.00  0.00    +0.000 A 
ATOM     12  C   UNL     1       5.006   6.583  15.922  0.00  0.00    +0.000 A 
ATOM     13  C   UNL     1       5.720   5.964  14.896  0.00  0.00    +0.000 A 
ATOM     14  C   UNL     1       5.781   4.575  14.849  0.00  0.00    +0.000 A 
ATOM     15 CL   UNL     1       6.615   3.803  13.559  0.00  0.00    +0.000 Cl
ATOM     16  C   UNL     1       5.153   3.806  15.830  0.00  0.00    +0.000 A 
ATOM     17  C   UNL     1       4.452   4.427  16.873  0.00  0.00    +0.000 A 
ENDBRANCH   2  11
BRANCH   1  19
ATOM     18  N   UNL     1       2.247   3.823  19.867  0.00  0.00    +0.000 N 
ATOM     19  C   UNL     1       3.162   4.904  19.910  0.00  0.00    +0.000 C 
ATOM     20  O   UNL     1       4.099   4.855  20.715  0.00  0.00    +0.000 OA
BRANCH  18  22
ATOM     21  C   UNL     1       1.721   2.586  21.993  0.00  0.00    +0.000 C 
ATOM     22  C   UNL     1       2.552   2.658  20.715  0.00  0.00    +0.000 C 
ENDBRANCH  18  22
BRANCH  18  23
ATOM     23  C   UNL     1       1.173   3.676  18.884  0.00  0.00    +0.000 C 
ATOM     24  C   UNL     1       0.644   2.285  18.599  0.00  0.00    +0.000 C 
ENDBRANCH  18  23
ENDBRANCH   1  19
TORSDOF 4
ENDMDL
MODEL 2
REMARK VINA RESULT:      -7.0      1.471      5.980
REMARK  Name = 
REMARK  6 active torsions:
REMARK  status: ('A' for Active; 'I' for Inactive)
REMARK    1  A    between atoms: C_1  and  C_2
REMARK    2  A    between atoms: C_2  and  N_3
REMARK    3  A    between atoms: N_3  and  C_4
REMARK    4  A    between atoms: C_4  and  C_5
REMARK    5  A    between atoms: C_6  and  C_8
REMARK    6  A    between atoms: C_9  and  C_10
REMARK                            x       y       z     vdW  Elec       q    Type
REMARK                         _______ _______ _______ _____ _____    ______ ____
ROOT
ATOM      1  C   UNL     1       2.825   5.785  17.996  0.00  0.00    +0.000 A 
ATOM      2  C   UNL     1       2.888   7.125  18.393  0.00  0.00    +0.000 A 
ATOM      3  N   UNL     1       4.050   7.725  17.985  0.00  0.00    +0.000 NA
ATOM      4  C   UNL     1       4.685   6.828  17.278  0.00  0.00    +0.000 A 
ATOM      5  C   UNL     1       5.929   6.917  16.597  0.00  0.00    +0.000 A 
ATOM      6  C   UNL     1       6.404   5.849  15.928  0.00  0.00    +0.000 A 
ATOM      7  C   UNL     1       5.663   4.599  15.902  0.00  0.00    +0.000 A 
ATOM      8 CL   UNL     1       6.330   3.270  15.040  0.00  0.00    +0.000 Cl
ATOM      9  C   UNL     1       4.489   4.509  16.544  0.00  0.00    +0.000 A 
ATOM     10  N   UNL     1       3.987   5.621  17.230  0.00  0.00    +0.000 N 
ENDROOT
BRANCH   2  11
ATOM     11  C   UNL     1       1.968   7.892  19.225  0.00  0.00    +0.000 A 
ATOM     12  C   UNL     1       1.408   9.063  18.677  0.00  0.00    +0.000 A 
ATOM     13  C   UNL     1       0.627   9.916  19.456  0.00  0.00    +0.000 A 
ATOM     14  C   UNL     1       0.397   9.601  20.791  0.00  0.00    +0.000 A 
ATOM     15 CL   UNL     1      -0.522  10.672  21.772  0.00  0.00    +0.000 Cl
ATOM     16  C   UNL     1       0.923   8.431  21.343  0.00  0.00    +0.000 A 
ATOM     17  C   UNL     1       1.692   7.564  20.556  0.00  0.00    +0.000 A 
ENDBRANCH   2  11
BRANCH   1  19
ATOM     18  N   UNL     1       1.855   3.841  19.271  0.00  0.00    +0.000 N 
ATOM     19  C   UNL     1       1.850   4.713  18.154  0.00  0.00    +0.000 C 
ATOM     20  O   UNL     1       1.027   4.516  17.254  0.00  0.00    +0.000 OA
BRANCH  18  22
ATOM     21  C   UNL     1       1.220   1.449  18.826  0.00  0.00    +0.000 C 
ATOM     22  C   UNL     1       0.791   2.824  19.328  0.00  0.00    +0.000 C 
ENDBRANCH  18  22
BRANCH  18  23
ATOM     23  C   UNL     1       2.674   4.023  20.470  0.00  0.00    +0.000 C 
ATOM     24  C   UNL     1       2.164   3.462  21.782  0.00  0.00    +0.000 C 
ENDBRANCH  18  23
ENDBRANCH   1  19
TORSDOF 4
ENDMDL
MODEL 3
REMARK VINA RESULT:      -6.8      2.619      6.378
REMARK  Name = 
REMARK  6 active torsions:
REMARK  status: ('A' for Active; 'I' for Inactive)
REMARK    1  A    between atoms: C_1  and  C_2
REMARK    2  A    between atoms: C_2  and  N_3
REMARK    3  A    between atoms: N_3  and  C_4
REMARK    4  A    between atoms: C_4  and  C_5
REMARK    5  A    between atoms: C_6  and  C_8
REMARK    6  A    between atoms: C_9  and  C_10
REMARK                            x       y       z     vdW  Elec       q    Type
REMARK                         _______ _______ _______ _____ _____    ______ ____
ROOT
ATOM      1  C   UNL     1       3.510   5.675  18.973  0.00  0.00    +0.000 A 
ATOM      2  C   UNL     1       2.542   6.431  19.642  0.00  0.00    +0.000 A 
ATOM      3  N   UNL     1       1.910   5.704  20.619  0.00  0.00    +0.000 NA
ATOM      4  C   UNL     1       2.505   4.540  20.637  0.00  0.00    +0.000 A 
ATOM      5  C   UNL     1       2.272   3.410  21.466  0.00  0.00    +0.000 A 
ATOM      6  C   UNL     1       3.010   2.296  21.301  0.00  0.00    +0.000 A 
ATOM      7  C   UNL     1       4.038   2.230  20.276  0.00  0.00    +0.000 A 
ATOM      8 CL   UNL     1       4.935   0.773  20.110  0.00  0.00    +0.000 Cl
ATOM      9  C   UNL     1       4.261   3.293  19.490  0.00  0.00    +0.000 A 
ATOM     10  N   UNL     1       3.504   4.457  19.666  0.00  0.00    +0.000 N 
ENDROOT
BRANCH   2  11
ATOM     11  C   UNL     1       2.076   7.787  19.380  0.00  0.00    +0.000 A 
ATOM     12  C   UNL     1       1.437   8.477  20.430  0.00  0.00    +0.000 A 
ATOM     13  C   UNL     1       0.850   9.724  20.215  0.00  0.00    +0.000 A 
ATOM     14  C   UNL     1       0.900  10.292  18.947  0.00  0.00    +0.000 A 
ATOM     15 CL   UNL     1       0.134  11.804  18.661  0.00  0.00    +0.000 Cl
ATOM     16  C   UNL     1       1.551   9.633  17.902  0.00  0.00    +0.000 A 
ATOM     17  C   UNL     1       2.159   8.390  18.121  0.00  0.00    +0.000 A 
ENDBRANCH   2  11
BRANCH   1  19
ATOM     18  N   UNL     1       5.849   5.983  18.089  0.00  0.00    +0.000 N 
ATOM     19  C   UNL     1       4.447   5.939  17.888  0.00  0.00    +0.000 C 
ATOM     20  O   UNL     1       4.002   6.194  16.763  0.00  0.00    +0.000 OA
BRANCH  18  22
ATOM     21  C   UNL     1       7.026   4.956  16.118  0.00  0.00    +0.000 C 
ATOM     22  C   UNL     1       6.686   6.221  16.901  0.00  0.00    +0.000 C 
ENDBRANCH  18  22
BRANCH  18  23
ATOM     23  C   UNL     1       6.530   5.578  19.320  0.00  0.00    +0.000 C 
ATOM     24  C   UNL     1       8.021   5.820  19.430  0.00  0.00    +0.000 C 
ENDBRANCH  18  23
ENDBRANCH   1  19
TORSDOF 4
ENDMDL
MODEL 4
REMARK VINA RESULT:      -6.7      2.634      6.442
REMARK  Name = 
REMARK  6 active torsions:
REMARK  status: ('A' for Active; 'I' for Inactive)
REMARK    1  A    between atoms: C_1  and  C_2
REMARK    2  A    between atoms: C_2  and  N_3
REMARK    3  A    between atoms: N_3  and  C_4
REMARK    4  A    between atoms: C_4  and  C_5
REMARK    5  A    between atoms: C_6  and  C_8
REMARK    6  A    between atoms: C_9  and  C_10
REMARK                            x       y       z     vdW  Elec       q    Type
REMARK                         _______ _______ _______ _____ _____    ______ ____
ROOT
ATOM      1  C   UNL     1       3.435   5.827  18.338  0.00  0.00    +0.000 A 
ATOM      2  C   UNL     1       2.407   6.521  18.986  0.00  0.00    +0.000 A 
ATOM      3  N   UNL     1       1.531   5.670  19.610  0.00  0.00    +0.000 NA
ATOM      4  C   UNL     1       2.018   4.469  19.440  0.00  0.00    +0.000 A 
ATOM      5  C   UNL     1       1.529   3.215  19.894  0.00  0.00    +0.000 A 
ATOM      6  C   UNL     1       2.198   2.086  19.589  0.00  0.00    +0.000 A 
ATOM      7  C   UNL     1       3.411   2.134  18.791  0.00  0.00    +0.000 A 
ATOM      8 CL   UNL     1       4.209   0.656  18.427  0.00  0.00    +0.000 Cl
ATOM      9  C   UNL     1       3.875   3.315  18.358  0.00  0.00    +0.000 A 
ATOM     10  N   UNL     1       3.190   4.491  18.683  0.00  0.00    +0.000 N 
ENDROOT
BRANCH   2  11
ATOM     11  C   UNL     1       2.112   7.949  18.998  0.00  0.00    +0.000 A 
ATOM     12  C   UNL     1       1.509   8.485  20.153  0.00  0.00    +0.000 A 
ATOM     13  C   UNL     1       1.079   9.811  20.186  0.00  0.00    +0.000 A 
ATOM     14  C   UNL     1       1.252  10.613  19.063  0.00  0.00    +0.000 A 
ATOM     15 CL   UNL     1       0.678  12.233  19.077  0.00  0.00    +0.000 Cl
ATOM     16  C   UNL     1       1.871  10.104  17.920  0.00  0.00    +0.000 A 
ATOM     17  C   UNL     1       2.322   8.778  17.892  0.00  0.00    +0.000 A 
ENDBRANCH   2  11
BRANCH   1  19
ATOM     18  N   UNL     1       5.916   6.166  18.065  0.00  0.00    +0.000 N 
ATOM     19  C   UNL     1       4.597   6.218  17.550  0.00  0.00    +0.000 C 
ATOM     20  O   UNL     1       4.424   6.670  16.412  0.00  0.00    +0.000 OA
BRANCH  18  22
ATOM     21  C   UNL     1       7.588   7.934  17.431  0.00  0.00    +0.000 C 
ATOM     22  C   UNL     1       7.004   6.552  17.151  0.00  0.00    +0.000 C 
ENDBRANCH  18  22
BRANCH  18  23
ATOM     23  C   UNL     1       6.294   5.539  19.333  0.00  0.00    +0.000 C 
ATOM     24  C   UNL     1       7.758   5.533  19.723  0.00  0.00    +0.000 C 
ENDBRANCH  18  23
ENDBRANCH   1  19
TORSDOF 4
ENDMDL
MODEL 5
REMARK VINA RESULT:      -6.6      0.443      1.083
REMARK  Name = 
REMARK  6 active torsions:
REMARK  status: ('A' for Active; 'I' for Inactive)
REMARK    1  A    between atoms: C_1  and  C_2
REMARK    2  A    between atoms: C_2  and  N_3
REMARK    3  A    between atoms: N_3  and  C_4
REMARK    4  A    between atoms: C_4  and  C_5
REMARK    5  A    between atoms: C_6  and  C_8
REMARK    6  A    between atoms: C_9  and  C_10
REMARK                            x       y       z     vdW  Elec       q    Type
REMARK                         _______ _______ _______ _____ _____    ______ ____
ROOT
ATOM      1  C   UNL     1       2.955   6.363  19.153  0.00  0.00    +0.000 A 
ATOM      2  C   UNL     1       3.313   6.804  17.875  0.00  0.00    +0.000 A 
ATOM      3  N   UNL     1       2.732   8.007  17.568  0.00  0.00    +0.000 NA
ATOM      4  C   UNL     1       2.084   8.374  18.642  0.00  0.00    +0.000 A 
ATOM      5  C   UNL     1       1.322   9.547  18.892  0.00  0.00    +0.000 A 
ATOM      6  C   UNL     1       0.724   9.716  20.087  0.00  0.00    +0.000 A 
ATOM      7  C   UNL     1       0.839   8.705  21.124  0.00  0.00    +0.000 A 
ATOM      8 CL   UNL     1       0.041   8.976  22.622  0.00  0.00    +0.000 Cl
ATOM      9  C   UNL     1       1.556   7.595  20.893  0.00  0.00    +0.000 A 
ATOM     10  N   UNL     1       2.188   7.422  19.658  0.00  0.00    +0.000 N 
ENDROOT
BRANCH   2  11
ATOM     11  C   UNL     1       4.101   6.135  16.847  0.00  0.00    +0.000 A 
ATOM     12  C   UNL     1       4.103   4.726  16.833  0.00  0.00    +0.000 A 
ATOM     13  C   UNL     1       4.935   4.019  15.965  0.00  0.00    +0.000 A 
ATOM     14  C   UNL     1       5.771   4.719  15.101  0.00  0.00    +0.000 A 
ATOM     15 CL   UNL     1       6.837   3.855  14.065  0.00  0.00    +0.000 Cl
ATOM     16  C   UNL     1       5.763   6.114  15.084  0.00  0.00    +0.000 A 
ATOM     17  C   UNL     1       4.913   6.826  15.942  0.00  0.00    +0.000 A 
ENDBRANCH   2  11
BRANCH   1  19
ATOM     18  N   UNL     1       2.320   4.181  20.241  0.00  0.00    +0.000 N 
ATOM     19  C   UNL     1       3.273   5.191  19.960  0.00  0.00    +0.000 C 
ATOM     20  O   UNL     1       4.396   5.103  20.470  0.00  0.00    +0.000 OA
BRANCH  18  22
ATOM     21  C   UNL     1       1.696   2.398  21.902  0.00  0.00    +0.000 C 
ATOM     22  C   UNL     1       2.782   3.031  21.037  0.00  0.00    +0.000 C 
ENDBRANCH  18  22
BRANCH  18  23
ATOM     23  C   UNL     1       1.003   4.076  19.610  0.00  0.00    +0.000 C 
ATOM     24  C   UNL     1       0.892   3.324  18.299  0.00  0.00    +0.000 C 
ENDBRANCH  18  23
ENDBRANCH   1  19
TORSDOF 4
ENDMDL
MODEL 6
REMARK VINA RESULT:      -6.6      2.345      6.282
REMARK  Name = 
REMARK  6 active torsions:
REMARK  status: ('A' for Active; 'I' for Inactive)
REMARK    1  A    between atoms: C_1  and  C_2
REMARK    2  A    between atoms: C_2  and  N_3
REMARK    3  A    between atoms: N_3  and  C_4
REMARK    4  A    between atoms: C_4  and  C_5
REMARK    5  A    between atoms: C_6  and  C_8
REMARK    6  A    between atoms: C_9  and  C_10
REMARK                            x       y       z     vdW  Elec       q    Type
REMARK                         _______ _______ _______ _____ _____    ______ ____
ROOT
ATOM      1  C   UNL     1       3.764   5.431  18.743  0.00  0.00    +0.000 A 
ATOM      2  C   UNL     1       2.551   6.120  18.839  0.00  0.00    +0.000 A 
ATOM      3  N   UNL     1       1.477   5.268  18.837  0.00  0.00    +0.000 NA
ATOM      4  C   UNL     1       1.980   4.061  18.821  0.00  0.00    +0.000 A 
ATOM      5  C   UNL     1       1.326   2.800  18.833  0.00  0.00    +0.000 A 
ATOM      6  C   UNL     1       2.054   1.668  18.803  0.00  0.00    +0.000 A 
ATOM      7  C   UNL     1       3.505   1.719  18.748  0.00  0.00    +0.000 A 
ATOM      8 CL   UNL     1       4.375   0.237  18.698  0.00  0.00    +0.000 Cl
ATOM      9  C   UNL     1       4.128   2.907  18.735  0.00  0.00    +0.000 A 
ATOM     10  N   UNL     1       3.375   4.085  18.778  0.00  0.00    +0.000 N 
ENDROOT
BRANCH   2  11
ATOM     11  C   UNL     1       2.293   7.556  18.841  0.00  0.00    +0.000 A 
ATOM     12  C   UNL     1       1.681   8.111  19.981  0.00  0.00    +0.000 A 
ATOM     13  C   UNL     1       1.285   9.449  20.002  0.00  0.00    +0.000 A 
ATOM     14  C   UNL     1       1.504  10.242  18.880  0.00  0.00    +0.000 A 
ATOM     15 CL   UNL     1       0.973  11.877  18.878  0.00  0.00    +0.000 Cl
ATOM     16  C   UNL     1       2.133   9.713  17.752  0.00  0.00    +0.000 A 
ATOM     17  C   UNL     1       2.548   8.375  17.737  0.00  0.00    +0.000 A 
ENDBRANCH   2  11
BRANCH   1  19
ATOM     18  N   UNL     1       5.826   6.170  17.499  0.00  0.00    +0.000 N 
ATOM     19  C   UNL     1       5.167   5.826  18.705  0.00  0.00    +0.000 C 
ATOM     20  O   UNL     1       5.824   5.800  19.752  0.00  0.00    +0.000 OA
BRANCH  18  22
ATOM     21  C   UNL     1       7.444   8.096  17.506  0.00  0.00    +0.000 C 
ATOM     22  C   UNL     1       7.234   6.587  17.605  0.00  0.00    +0.000 C 
ENDBRANCH  18  22
BRANCH  18  23
ATOM     23  C   UNL     1       5.160   6.372  16.211  0.00  0.00    +0.000 C 
ATOM     24  C   UNL     1       5.512   5.443  15.066  0.00  0.00    +0.000 C 
ENDBRANCH  18  23
ENDBRANCH   1  19
TORSDOF 4
ENDMDL
MODEL 7
REMARK VINA RESULT:      -6.6      1.453      6.045
REMARK  Name = 
REMARK  6 active torsions:
REMARK  status: ('A' for Active; 'I' for Inactive)
REMARK    1  A    between atoms: C_1  and  C_2
REMARK    2  A    between atoms: C_2  and  N_3
REMARK    3  A    between atoms: N_3  and  C_4
REMARK    4  A    between atoms: C_4  and  C_5
REMARK    5  A    between atoms: C_6  and  C_8
REMARK    6  A    between atoms: C_9  and  C_10
REMARK                            x       y       z     vdW  Elec       q    Type
REMARK                         _______ _______ _______ _____ _____    ______ ____
ROOT
ATOM      1  C   UNL     1       2.859   5.834  17.947  0.00  0.00    +0.000 A 
ATOM      2  C   UNL     1       2.988   7.180  18.307  0.00  0.00    +0.000 A 
ATOM      3  N   UNL     1       4.167   7.718  17.859  0.00  0.00    +0.000 NA
ATOM      4  C   UNL     1       4.746   6.776  17.162  0.00  0.00    +0.000 A 
ATOM      5  C   UNL     1       5.977   6.793  16.453  0.00  0.00    +0.000 A 
ATOM      6  C   UNL     1       6.390   5.688  15.802  0.00  0.00    +0.000 A 
ATOM      7  C   UNL     1       5.595   4.472  15.825  0.00  0.00    +0.000 A 
ATOM      8 CL   UNL     1       6.185   3.094  14.984  0.00  0.00    +0.000 Cl
ATOM      9  C   UNL     1       4.433   4.450  16.494  0.00  0.00    +0.000 A 
ATOM     10  N   UNL     1       3.996   5.600  17.161  0.00  0.00    +0.000 N 
ENDROOT
BRANCH   2  11
ATOM     11  C   UNL     1       2.122   8.008  19.137  0.00  0.00    +0.000 A 
ATOM     12  C   UNL     1       1.882   7.587  20.460  0.00  0.00    +0.000 A 
ATOM     13  C   UNL     1       0.962   8.255  21.269  0.00  0.00    +0.000 A 
ATOM     14  C   UNL     1       0.277   9.352  20.759  0.00  0.00    +0.000 A 
ATOM     15 CL   UNL     1      -0.896  10.150  21.732  0.00  0.00    +0.000 Cl
ATOM     16  C   UNL     1       0.522   9.798  19.459  0.00  0.00    +0.000 A 
ATOM     17  C   UNL     1       1.460   9.140  18.653  0.00  0.00    +0.000 A 
ENDBRANCH   2  11
BRANCH   1  19
ATOM     18  N   UNL     1       1.838   3.963  19.289  0.00  0.00    +0.000 N 
ATOM     19  C   UNL     1       1.842   4.811  18.154  0.00  0.00    +0.000 C 
ATOM     20  O   UNL     1       0.987   4.632  17.279  0.00  0.00    +0.000 OA
BRANCH  18  22
ATOM     21  C   UNL     1       1.057   1.617  18.832  0.00  0.00    +0.000 C 
ATOM     22  C   UNL     1       0.732   2.997  19.396  0.00  0.00    +0.000 C 
ENDBRANCH  18  22
BRANCH  18  23
ATOM     23  C   UNL     1       2.696   4.134  20.463  0.00  0.00    +0.000 C 
ATOM     24  C   UNL     1       2.248   3.525  21.776  0.00  0.00    +0.000 C 
ENDBRANCH  18  23
ENDBRANCH   1  19
TORSDOF 4
ENDMDL
MODEL 8
REMARK VINA RESULT:      -6.3      2.632      6.306
REMARK  Name = 
REMARK  6 active torsions:
REMARK  status: ('A' for Active; 'I' for Inactive)
REMARK    1  A    between atoms: C_1  and  C_2
REMARK    2  A    between atoms: C_2  and  N_3
REMARK    3  A    between atoms: N_3  and  C_4
REMARK    4  A    between atoms: C_4  and  C_5
REMARK    5  A    between atoms: C_6  and  C_8
REMARK    6  A    between atoms: C_9  and  C_10
REMARK                            x       y       z     vdW  Elec       q    Type
REMARK                         _______ _______ _______ _____ _____    ______ ____
ROOT
ATOM      1  C   UNL     1       3.445   5.691  19.008  0.00  0.00    +0.000 A 
ATOM      2  C   UNL     1       2.460   6.421  19.682  0.00  0.00    +0.000 A 
ATOM      3  N   UNL     1       1.849   5.675  20.657  0.00  0.00    +0.000 NA
ATOM      4  C   UNL     1       2.471   4.526  20.670  0.00  0.00    +0.000 A 
ATOM      5  C   UNL     1       2.267   3.387  21.495  0.00  0.00    +0.000 A 
ATOM      6  C   UNL     1       3.031   2.291  21.324  0.00  0.00    +0.000 A 
ATOM      7  C   UNL     1       4.057   2.254  20.297  0.00  0.00    +0.000 A 
ATOM      8 CL   UNL     1       4.989   0.820  20.123  0.00  0.00    +0.000 Cl
ATOM      9  C   UNL     1       4.253   3.325  19.514  0.00  0.00    +0.000 A 
ATOM     10  N   UNL     1       3.470   4.470  19.696  0.00  0.00    +0.000 N 
ENDROOT
BRANCH   2  11
ATOM     11  C   UNL     1       1.961   7.767  19.427  0.00  0.00    +0.000 A 
ATOM     12  C   UNL     1       2.238   8.342  18.171  0.00  0.00    +0.000 A 
ATOM     13  C   UNL     1       1.908   9.671  17.903  0.00  0.00    +0.000 A 
ATOM     14  C   UNL     1       1.296  10.433  18.892  0.00  0.00    +0.000 A 
ATOM     15 CL   UNL     1       0.933  12.086  18.588  0.00  0.00    +0.000 Cl
ATOM     16  C   UNL     1       0.992   9.871  20.133  0.00  0.00    +0.000 A 
ATOM     17  C   UNL     1       1.304   8.531  20.396  0.00  0.00    +0.000 A 
ENDBRANCH   2  11
BRANCH   1  19
ATOM     18  N   UNL     1       5.777   6.007  18.109  0.00  0.00    +0.000 N 
ATOM     19  C   UNL     1       4.373   5.981  17.922  0.00  0.00    +0.000 C 
ATOM     20  O   UNL     1       3.919   6.275  16.811  0.00  0.00    +0.000 OA
BRANCH  18  22
ATOM     21  C   UNL     1       6.973   5.025  16.127  0.00  0.00    +0.000 C 
ATOM     22  C   UNL     1       6.603   6.275  16.920  0.00  0.00    +0.000 C 
ENDBRANCH  18  22
BRANCH  18  23
ATOM     23  C   UNL     1       6.467   5.558  19.320  0.00  0.00    +0.000 C 
ATOM     24  C   UNL     1       7.954   5.822  19.439  0.00  0.00    +0.000 C 
ENDBRANCH  18  23
ENDBRANCH   1  19
TORSDOF 4
ENDMDL
MODEL 9
REMARK VINA RESULT:      -6.3      4.782      7.325
REMARK  Name = 
REMARK  6 active torsions:
REMARK  status: ('A' for Active; 'I' for Inactive)
REMARK    1  A    between atoms: C_1  and  C_2
REMARK    2  A    between atoms: C_2  and  N_3
REMARK    3  A    between atoms: N_3  and  C_4
REMARK    4  A    between atoms: C_4  and  C_5
REMARK    5  A    between atoms: C_6  and  C_8
REMARK    6  A    between atoms: C_9  and  C_10
REMARK                            x       y       z     vdW  Elec       q    Type
REMARK                         _______ _______ _______ _____ _____    ______ ____
ROOT
ATOM      1  C   UNL     1      -1.102  11.326  19.519  0.00  0.00    +0.000 A 
ATOM      2  C   UNL     1      -0.260  10.375  20.105  0.00  0.00    +0.000 A 
ATOM      3  N   UNL     1      -0.276  10.452  21.474  0.00  0.00    +0.000 NA
ATOM      4  C   UNL     1      -1.161  11.369  21.768  0.00  0.00    +0.000 A 
ATOM      5  C   UNL     1      -1.597  11.841  23.035  0.00  0.00    +0.000 A 
ATOM      6  C   UNL     1      -2.526  12.813  23.104  0.00  0.00    +0.000 A 
ATOM      7  C   UNL     1      -3.083  13.395  21.894  0.00  0.00    +0.000 A 
ATOM      8 CL   UNL     1      -4.256  14.641  22.051  0.00  0.00    +0.000 Cl
ATOM      9  C   UNL     1      -2.673  12.954  20.696  0.00  0.00    +0.000 A 
ATOM     10  N   UNL     1      -1.717  11.936  20.621  0.00  0.00    +0.000 N 
ENDROOT
BRANCH   2  11
ATOM     11  C   UNL     1       0.657   9.432  19.476  0.00  0.00    +0.000 A 
ATOM     12  C   UNL     1       1.187   8.400  20.276  0.00  0.00    +0.000 A 
ATOM     13  C   UNL     1       2.169   7.543  19.779  0.00  0.00    +0.000 A 
ATOM     14  C   UNL     1       2.625   7.709  18.476  0.00  0.00    +0.000 A 
ATOM     15 CL   UNL     1       3.871   6.690  17.874  0.00  0.00    +0.000 Cl
ATOM     16  C   UNL     1       2.091   8.710  17.663  0.00  0.00    +0.000 A 
ATOM     17  C   UNL     1       1.091   9.560  18.153  0.00  0.00    +0.000 A 
ENDBRANCH   2  11
BRANCH   1  19
ATOM     18  N   UNL     1      -2.356  10.900  17.376  0.00  0.00    +0.000 N 
ATOM     19  C   UNL     1      -1.457  11.676  18.149  0.00  0.00    +0.000 C 
ATOM     20  O   UNL     1      -0.908  12.649  17.619  0.00  0.00    +0.000 OA
BRANCH  18  22
ATOM     21  C   UNL     1      -2.885  10.274  14.999  0.00  0.00    +0.000 C 
ATOM     22  C   UNL     1      -2.659  11.386  16.019  0.00  0.00    +0.000 C 
ENDBRANCH  18  22
BRANCH  18  23
ATOM     23  C   UNL     1      -3.178   9.807  17.897  0.00  0.00    +0.000 C 
ATOM     24  C   UNL     1      -4.631  10.091  18.222  0.00  0.00    +0.000 C 
ENDBRANCH  18  23
ENDBRANCH   1  19
TORSDOF 4
ENDMDL
