MODEL 1
REMARK VINA RESULT:      -7.6      0.000      0.000
REMARK  Name = 
REMARK  2 active torsions:
REMARK  status: ('A' for Active; 'I' for Inactive)
REMARK    1  A    between atoms: C_1  and  C_2
REMARK    2  A    between atoms: C_14  and  C_15
REMARK                            x       y       z     vdW  Elec       q    Type
REMARK                         _______ _______ _______ _____ _____    ______ ____
ROOT
ATOM      1  C   UNL     1       1.087   8.138  21.489  0.00  0.00    +0.000 C 
ATOM      2  C   UNL     1       1.652   8.092  20.096  0.00  0.00    +0.000 A 
ATOM      3  C   UNL     1       1.373   9.160  19.224  0.00  0.00    +0.000 A 
ATOM      4  C   UNL     1       1.858   9.163  17.918  0.00  0.00    +0.000 A 
ATOM      5  C   UNL     1       2.635   8.101  17.471  0.00  0.00    +0.000 A 
ATOM      6  C   UNL     1       2.907   7.021  18.319  0.00  0.00    +0.000 A 
ATOM      7  C   UNL     1       2.414   7.003  19.634  0.00  0.00    +0.000 A 
ATOM      8  N   UNL     1       2.747   5.907  20.462  0.00  0.00    +0.000 N 
ATOM      9  C   UNL     1       2.631   4.608  19.769  0.00  0.00    +0.000 C 
ATOM     10  C   UNL     1       3.027   3.489  20.779  0.00  0.00    +0.000 C 
ATOM     11  C   UNL     1       1.722   2.868  21.258  0.00  0.00    +0.000 C 
ATOM     12  C   UNL     1       0.834   2.942  20.033  0.00  0.00    +0.000 C 
ATOM     13  C   UNL     1       1.128   4.325  19.468  0.00  0.00    +0.000 C 
ATOM     14  C   UNL     1       3.601   4.564  18.547  0.00  0.00    +0.000 C 
ATOM     15  C   UNL     1       3.229   3.506  17.496  0.00  0.00    +0.000 C 
ATOM     16  C   UNL     1       3.817   5.923  17.853  0.00  0.00    +0.000 C 
ATOM     17  H   UNL     1       2.240   5.927  21.342  0.00  0.00    +0.000 HD
ENDROOT
TORSDOF 0
ENDMDL
MODEL 2
REMARK VINA RESULT:      -7.4      2.341      5.275
REMARK  Name = 
REMARK  2 active torsions:
REMARK  status: ('A' for Active; 'I' for Inactive)
REMARK    1  A    between atoms: C_1  and  C_2
REMARK    2  A    between atoms: C_14  and  C_15
REMARK                            x       y       z     vdW  Elec       q    Type
REMARK                         _______ _______ _______ _____ _____    ______ ____
ROOT
ATOM      1  C   UNL     1       3.895   0.910  18.646  0.00  0.00    +0.000 C 
ATOM      2  C   UNL     1       3.124   2.165  18.954  0.00  0.00    +0.000 A 
ATOM      3  C   UNL     1       1.776   2.045  19.336  0.00  0.00    +0.000 A 
ATOM      4  C   UNL     1       1.009   3.174  19.618  0.00  0.00    +0.000 A 
ATOM      5  C   UNL     1       1.585   4.436  19.528  0.00  0.00    +0.000 A 
ATOM      6  C   UNL     1       2.920   4.574  19.131  0.00  0.00    +0.000 A 
ATOM      7  C   UNL     1       3.699   3.444  18.834  0.00  0.00    +0.000 A 
ATOM      8  N   UNL     1       5.052   3.635  18.473  0.00  0.00    +0.000 N 
ATOM      9  C   UNL     1       5.240   4.749  17.521  0.00  0.00    +0.000 C 
ATOM     10  C   UNL     1       6.763   4.859  17.209  0.00  0.00    +0.000 C 
ATOM     11  C   UNL     1       6.963   4.220  15.841  0.00  0.00    +0.000 C 
ATOM     12  C   UNL     1       5.688   4.574  15.104  0.00  0.00    +0.000 C 
ATOM     13  C   UNL     1       4.605   4.361  16.152  0.00  0.00    +0.000 C 
ATOM     14  C   UNL     1       4.748   6.086  18.158  0.00  0.00    +0.000 C 
ATOM     15  C   UNL     1       4.440   7.187  17.131  0.00  0.00    +0.000 C 
ATOM     16  C   UNL     1       3.554   5.935  19.121  0.00  0.00    +0.000 C 
ATOM     17  H   UNL     1       5.486   2.773  18.156  0.00  0.00    +0.000 HD
ENDROOT
TORSDOF 0
ENDMDL
MODEL 3
REMARK VINA RESULT:      -7.4      2.372      5.077
REMARK  Name = 
REMARK  2 active torsions:
REMARK  status: ('A' for Active; 'I' for Inactive)
REMARK    1  A    between atoms: C_1  and  C_2
REMARK    2  A    between atoms: C_14  and  C_15
REMARK                            x       y       z     vdW  Elec       q    Type
REMARK                         _______ _______ _______ _____ _____    ______ ____
ROOT
ATOM      1  C   UNL     1       4.302   1.759  20.236  0.00  0.00    +0.000 C 
ATOM      2  C   UNL     1       3.319   2.619  19.491  0.00  0.00    +0.000 A 
ATOM      3  C   UNL     1       2.046   2.090  19.207  0.00  0.00    +0.000 A 
ATOM      4  C   UNL     1       1.101   2.836  18.507  0.00  0.00    +0.000 A 
ATOM      5  C   UNL     1       1.415   4.123  18.087  0.00  0.00    +0.000 A 
ATOM      6  C   UNL     1       2.683   4.658  18.343  0.00  0.00    +0.000 A 
ATOM      7  C   UNL     1       3.647   3.911  19.040  0.00  0.00    +0.000 A 
ATOM      8  N   UNL     1       4.900   4.510  19.305  0.00  0.00    +0.000 N 
ATOM      9  C   UNL     1       5.444   5.241  18.143  0.00  0.00    +0.000 C 
ATOM     10  C   UNL     1       6.814   5.855  18.562  0.00  0.00    +0.000 C 
ATOM     11  C   UNL     1       7.884   4.956  17.959  0.00  0.00    +0.000 C 
ATOM     12  C   UNL     1       7.264   4.509  16.651  0.00  0.00    +0.000 C 
ATOM     13  C   UNL     1       5.819   4.218  17.029  0.00  0.00    +0.000 C 
ATOM     14  C   UNL     1       4.471   6.389  17.728  0.00  0.00    +0.000 C 
ATOM     15  C   UNL     1       4.672   6.884  16.288  0.00  0.00    +0.000 C 
ATOM     16  C   UNL     1       2.980   6.079  17.961  0.00  0.00    +0.000 C 
ATOM     17  H   UNL     1       5.563   3.847  19.696  0.00  0.00    +0.000 HD
ENDROOT
TORSDOF 0
ENDMDL
MODEL 4
REMARK VINA RESULT:      -7.2      1.922      4.506
REMARK  Name = 
REMARK  2 active torsions:
REMARK  status: ('A' for Active; 'I' for Inactive)
REMARK    1  A    between atoms: C_1  and  C_2
REMARK    2  A    between atoms: C_14  and  C_15
REMARK                            x       y       z     vdW  Elec       q    Type
REMARK                         _______ _______ _______ _____ _____    ______ ____
ROOT
ATOM      1  C   UNL     1       1.922   6.647  20.518  0.00  0.00    +0.000 C 
ATOM      2  C   UNL     1       1.925   5.253  19.954  0.00  0.00    +0.000 A 
ATOM      3  C   UNL     1       1.295   4.232  20.690  0.00  0.00    +0.000 A 
ATOM      4  C   UNL     1       1.279   2.920  20.224  0.00  0.00    +0.000 A 
ATOM      5  C   UNL     1       1.889   2.612  19.013  0.00  0.00    +0.000 A 
ATOM      6  C   UNL     1       2.537   3.612  18.278  0.00  0.00    +0.000 A 
ATOM      7  C   UNL     1       2.567   4.936  18.743  0.00  0.00    +0.000 A 
ATOM      8  N   UNL     1       3.203   5.915  17.946  0.00  0.00    +0.000 N 
ATOM      9  C   UNL     1       4.492   5.454  17.389  0.00  0.00    +0.000 C 
ATOM     10  C   UNL     1       5.085   6.613  16.532  0.00  0.00    +0.000 C 
ATOM     11  C   UNL     1       6.170   7.258  17.384  0.00  0.00    +0.000 C 
ATOM     12  C   UNL     1       6.748   6.088  18.154  0.00  0.00    +0.000 C 
ATOM     13  C   UNL     1       5.516   5.287  18.552  0.00  0.00    +0.000 C 
ATOM     14  C   UNL     1       4.267   4.205  16.481  0.00  0.00    +0.000 C 
ATOM     15  C   UNL     1       5.534   3.366  16.254  0.00  0.00    +0.000 C 
ATOM     16  C   UNL     1       3.116   3.285  16.931  0.00  0.00    +0.000 C 
ATOM     17  H   UNL     1       3.282   6.806  18.428  0.00  0.00    +0.000 HD
ENDROOT
TORSDOF 0
ENDMDL
MODEL 5
REMARK VINA RESULT:      -7.2      2.652      4.867
REMARK  Name = 
REMARK  2 active torsions:
REMARK  status: ('A' for Active; 'I' for Inactive)
REMARK    1  A    between atoms: C_1  and  C_2
REMARK    2  A    between atoms: C_14  and  C_15
REMARK                            x       y       z     vdW  Elec       q    Type
REMARK                         _______ _______ _______ _____ _____    ______ ____
ROOT
ATOM      1  C   UNL     1       2.643   6.719  19.778  0.00  0.00    +0.000 C 
ATOM      2  C   UNL     1       2.716   5.551  18.833  0.00  0.00    +0.000 A 
ATOM      3  C   UNL     1       1.787   4.506  18.986  0.00  0.00    +0.000 A 
ATOM      4  C   UNL     1       1.816   3.394  18.149  0.00  0.00    +0.000 A 
ATOM      5  C   UNL     1       2.773   3.315  17.144  0.00  0.00    +0.000 A 
ATOM      6  C   UNL     1       3.718   4.336  16.989  0.00  0.00    +0.000 A 
ATOM      7  C   UNL     1       3.703   5.458  17.834  0.00  0.00    +0.000 A 
ATOM      8  N   UNL     1       4.655   6.479  17.613  0.00  0.00    +0.000 N 
ATOM      9  C   UNL     1       6.011   5.953  17.352  0.00  0.00    +0.000 C 
ATOM     10  C   UNL     1       6.960   7.168  17.121  0.00  0.00    +0.000 C 
ATOM     11  C   UNL     1       7.741   7.347  18.415  0.00  0.00    +0.000 C 
ATOM     12  C   UNL     1       7.917   5.928  18.914  0.00  0.00    +0.000 C 
ATOM     13  C   UNL     1       6.558   5.293  18.653  0.00  0.00    +0.000 C 
ATOM     14  C   UNL     1       6.001   5.057  16.073  0.00  0.00    +0.000 C 
ATOM     15  C   UNL     1       7.191   4.090  15.984  0.00  0.00    +0.000 C 
ATOM     16  C   UNL     1       4.690   4.281  15.846  0.00  0.00    +0.000 C 
ATOM     17  H   UNL     1       4.642   7.177  18.351  0.00  0.00    +0.000 HD
ENDROOT
TORSDOF 0
ENDMDL
MODEL 6
REMARK VINA RESULT:      -7.1      2.621      3.977
REMARK  Name = 
REMARK  2 active torsions:
REMARK  status: ('A' for Active; 'I' for Inactive)
REMARK    1  A    between atoms: C_1  and  C_2
REMARK    2  A    between atoms: C_14  and  C_15
REMARK                            x       y       z     vdW  Elec       q    Type
REMARK                         _______ _______ _______ _____ _____    ______ ____
ROOT
ATOM      1  C   UNL     1       7.440   5.471  19.949  0.00  0.00    +0.000 C 
ATOM      2  C   UNL     1       6.803   5.451  18.587  0.00  0.00    +0.000 A 
ATOM      3  C   UNL     1       7.351   6.265  17.579  0.00  0.00    +0.000 A 
ATOM      4  C   UNL     1       6.793   6.297  16.303  0.00  0.00    +0.000 A 
ATOM      5  C   UNL     1       5.683   5.510  16.018  0.00  0.00    +0.000 A 
ATOM      6  C   UNL     1       5.113   4.708  17.014  0.00  0.00    +0.000 A 
ATOM      7  C   UNL     1       5.662   4.676  18.306  0.00  0.00    +0.000 A 
ATOM      8  N   UNL     1       5.072   3.823  19.267  0.00  0.00    +0.000 N 
ATOM      9  C   UNL     1       3.596   3.876  19.252  0.00  0.00    +0.000 C 
ATOM     10  C   UNL     1       3.070   2.895  20.343  0.00  0.00    +0.000 C 
ATOM     11  C   UNL     1       2.665   3.758  21.530  0.00  0.00    +0.000 C 
ATOM     12  C   UNL     1       2.138   5.019  20.877  0.00  0.00    +0.000 C 
ATOM     13  C   UNL     1       3.133   5.277  19.755  0.00  0.00    +0.000 C 
ATOM     14  C   UNL     1       3.058   3.429  17.857  0.00  0.00    +0.000 C 
ATOM     15  C   UNL     1       1.624   3.898  17.565  0.00  0.00    +0.000 C 
ATOM     16  C   UNL     1       3.970   3.799  16.671  0.00  0.00    +0.000 C 
ATOM     17  H   UNL     1       5.459   3.969  20.194  0.00  0.00    +0.000 HD
ENDROOT
TORSDOF 0
ENDMDL
MODEL 7
REMARK VINA RESULT:      -7.1      1.529      2.700
REMARK  Name = 
REMARK  2 active torsions:
REMARK  status: ('A' for Active; 'I' for Inactive)
REMARK    1  A    between atoms: C_1  and  C_2
REMARK    2  A    between atoms: C_14  and  C_15
REMARK                            x       y       z     vdW  Elec       q    Type
REMARK                         _______ _______ _______ _____ _____    ______ ____
ROOT
ATOM      1  C   UNL     1       2.476   7.807  18.415  0.00  0.00    +0.000 C 
ATOM      2  C   UNL     1       3.514   6.910  17.799  0.00  0.00    +0.000 A 
ATOM      3  C   UNL     1       4.171   7.349  16.634  0.00  0.00    +0.000 A 
ATOM      4  C   UNL     1       5.131   6.554  16.012  0.00  0.00    +0.000 A 
ATOM      5  C   UNL     1       5.450   5.312  16.550  0.00  0.00    +0.000 A 
ATOM      6  C   UNL     1       4.793   4.852  17.697  0.00  0.00    +0.000 A 
ATOM      7  C   UNL     1       3.816   5.641  18.326  0.00  0.00    +0.000 A 
ATOM      8  N   UNL     1       3.207   5.147  19.503  0.00  0.00    +0.000 N 
ATOM      9  C   UNL     1       2.840   3.719  19.402  0.00  0.00    +0.000 C 
ATOM     10  C   UNL     1       2.188   3.296  20.753  0.00  0.00    +0.000 C 
ATOM     11  C   UNL     1       0.686   3.262  20.507  0.00  0.00    +0.000 C 
ATOM     12  C   UNL     1       0.581   2.790  19.071  0.00  0.00    +0.000 C 
ATOM     13  C   UNL     1       1.687   3.564  18.366  0.00  0.00    +0.000 C 
ATOM     14  C   UNL     1       4.115   2.854  19.153  0.00  0.00    +0.000 C 
ATOM     15  C   UNL     1       3.820   1.469  18.558  0.00  0.00    +0.000 C 
ATOM     16  C   UNL     1       5.207   3.550  18.317  0.00  0.00    +0.000 C 
ATOM     17  H   UNL     1       2.432   5.730  19.803  0.00  0.00    +0.000 HD
ENDROOT
TORSDOF 0
ENDMDL
MODEL 8
REMARK VINA RESULT:      -7.0      2.747      5.286
REMARK  Name = 
REMARK  2 active torsions:
REMARK  status: ('A' for Active; 'I' for Inactive)
REMARK    1  A    between atoms: C_1  and  C_2
REMARK    2  A    between atoms: C_14  and  C_15
REMARK                            x       y       z     vdW  Elec       q    Type
REMARK                         _______ _______ _______ _____ _____    ______ ____
ROOT
ATOM      1  C   UNL     1       2.569   2.143  17.456  0.00  0.00    +0.000 C 
ATOM      2  C   UNL     1       2.872   3.312  18.352  0.00  0.00    +0.000 A 
ATOM      3  C   UNL     1       1.856   3.786  19.202  0.00  0.00    +0.000 A 
ATOM      4  C   UNL     1       2.075   4.874  20.043  0.00  0.00    +0.000 A 
ATOM      5  C   UNL     1       3.317   5.499  20.048  0.00  0.00    +0.000 A 
ATOM      6  C   UNL     1       4.334   5.053  19.196  0.00  0.00    +0.000 A 
ATOM      7  C   UNL     1       4.120   3.963  18.337  0.00  0.00    +0.000 A 
ATOM      8  N   UNL     1       5.190   3.528  17.522  0.00  0.00    +0.000 N 
ATOM      9  C   UNL     1       5.920   4.645  16.889  0.00  0.00    +0.000 C 
ATOM     10  C   UNL     1       7.070   4.039  16.028  0.00  0.00    +0.000 C 
ATOM     11  C   UNL     1       6.591   4.094  14.584  0.00  0.00    +0.000 C 
ATOM     12  C   UNL     1       5.773   5.368  14.537  0.00  0.00    +0.000 C 
ATOM     13  C   UNL     1       4.991   5.330  15.843  0.00  0.00    +0.000 C 
ATOM     14  C   UNL     1       6.532   5.574  17.984  0.00  0.00    +0.000 C 
ATOM     15  C   UNL     1       6.876   6.984  17.481  0.00  0.00    +0.000 C 
ATOM     16  C   UNL     1       5.696   5.679  19.274  0.00  0.00    +0.000 C 
ATOM     17  H   UNL     1       4.896   2.823  16.852  0.00  0.00    +0.000 HD
ENDROOT
TORSDOF 0
ENDMDL
MODEL 9
REMARK VINA RESULT:      -6.9      2.355      4.731
REMARK  Name = 
REMARK  2 active torsions:
REMARK  status: ('A' for Active; 'I' for Inactive)
REMARK    1  A    between atoms: C_1  and  C_2
REMARK    2  A    between atoms: C_14  and  C_15
REMARK                            x       y       z     vdW  Elec       q    Type
REMARK                         _______ _______ _______ _____ _____    ______ ____
ROOT
ATOM      1  C   UNL     1       7.340   6.720  18.160  0.00  0.00    +0.000 C 
ATOM      2  C   UNL     1       6.701   5.653  17.313  0.00  0.00    +0.000 A 
ATOM      3  C   UNL     1       7.342   5.272  16.120  0.00  0.00    +0.000 A 
ATOM      4  C   UNL     1       6.789   4.300  15.290  0.00  0.00    +0.000 A 
ATOM      5  C   UNL     1       5.591   3.692  15.646  0.00  0.00    +0.000 A 
ATOM      6  C   UNL     1       4.930   4.072  16.820  0.00  0.00    +0.000 A 
ATOM      7  C   UNL     1       5.474   5.058  17.659  0.00  0.00    +0.000 A 
ATOM      8  N   UNL     1       4.787   5.381  18.852  0.00  0.00    +0.000 N 
ATOM      9  C   UNL     1       3.328   5.508  18.657  0.00  0.00    +0.000 C 
ATOM     10  C   UNL     1       2.689   5.857  20.036  0.00  0.00    +0.000 C 
ATOM     11  C   UNL     1       2.395   7.350  20.001  0.00  0.00    +0.000 C 
ATOM     12  C   UNL     1       2.023   7.597  18.553  0.00  0.00    +0.000 C 
ATOM     13  C   UNL     1       3.040   6.766  17.783  0.00  0.00    +0.000 C 
ATOM     14  C   UNL     1       2.736   4.158  18.143  0.00  0.00    +0.000 C 
ATOM     15  C   UNL     1       1.369   4.301  17.455  0.00  0.00    +0.000 C 
ATOM     16  C   UNL     1       3.683   3.348  17.238  0.00  0.00    +0.000 C 
ATOM     17  H   UNL     1       5.191   6.188  19.318  0.00  0.00    +0.000 HD
ENDROOT
TORSDOF 0
ENDMDL
