MODEL 1
REMARK VINA RESULT:      -7.7      0.000      0.000
REMARK  Name = 
REMARK  4 active torsions:
REMARK  status: ('A' for Active; 'I' for Inactive)
REMARK    1  A    between atoms: N_12  and  C_13
REMARK    2  A    between atoms: C_13  and  O_14
REMARK    3  A    between atoms: O_14  and  C_15
REMARK    4  A    between atoms: C_15  and  C_16
REMARK                            x       y       z     vdW  Elec       q    Type
REMARK                         _______ _______ _______ _____ _____    ______ ____
ROOT
ATOM      1  O   UNL     1       5.561   7.110  16.294  0.00  0.00    +0.000 OA
ATOM      2  C   UNL     1       5.998   6.524  17.280  0.00  0.00    +0.000 A 
ATOM      3  C   UNL     1       5.167   5.509  17.953  0.00  0.00    +0.000 A 
ATOM      4  C   UNL     1       3.886   5.206  17.478  0.00  0.00    +0.000 A 
ATOM      5  C   UNL     1       3.103   4.296  18.182  0.00  0.00    +0.000 A 
ATOM      6 BR   UNL     1       1.354   3.906  17.584  0.00  0.00    +0.000 Br
ATOM      7  C   UNL     1       3.593   3.686  19.337  0.00  0.00    +0.000 A 
ATOM      8  C   UNL     1       4.881   3.988  19.790  0.00  0.00    +0.000 A 
ATOM      9  C   UNL     1       5.678   4.908  19.105  0.00  0.00    +0.000 A 
ATOM     10  N   UNL     1       6.949   5.213  19.609  0.00  0.00    +0.000 NA
ATOM     11  C   UNL     1       7.641   6.108  18.989  0.00  0.00    +0.000 A 
ATOM     12  N   UNL     1       7.228   6.777  17.861  0.00  0.00    +0.000 N 
ENDROOT
BRANCH  12  13
ATOM     13  C   UNL     1       8.034   7.859  17.345  0.00  0.00    +0.000 C 
BRANCH  13  14
ATOM     14  O   UNL     1       8.500   8.636  18.438  0.00  0.00    +0.000 OA
BRANCH  14  15
ATOM     15  C   UNL     1       8.316  10.030  18.196  0.00  0.00    +0.000 C 
BRANCH  15  16
ATOM     16  C   UNL     1       9.492  10.799  18.739  0.00  0.00    +0.000 A 
ATOM     17  C   UNL     1       9.609  11.067  20.111  0.00  0.00    +0.000 A 
ATOM     18  C   UNL     1      10.700  11.786  20.603  0.00  0.00    +0.000 A 
ATOM     19  C   UNL     1      11.695  12.226  19.735  0.00  0.00    +0.000 A 
ATOM     20  C   UNL     1      11.609  11.936  18.375  0.00  0.00    +0.000 A 
ATOM     21  C   UNL     1      10.518  11.219  17.879  0.00  0.00    +0.000 A 
ENDBRANCH  15  16
ENDBRANCH  14  15
ENDBRANCH  13  14
ENDBRANCH  12  13
TORSDOF 4
ENDMDL
MODEL 2
REMARK VINA RESULT:      -7.6      4.710      7.655
REMARK  Name = 
REMARK  4 active torsions:
REMARK  status: ('A' for Active; 'I' for Inactive)
REMARK    1  A    between atoms: N_12  and  C_13
REMARK    2  A    between atoms: C_13  and  O_14
REMARK    3  A    between atoms: O_14  and  C_15
REMARK    4  A    between atoms: C_15  and  C_16
REMARK                            x       y       z     vdW  Elec       q    Type
REMARK                         _______ _______ _______ _____ _____    ______ ____
ROOT
ATOM      1  O   UNL     1       4.119   3.495  16.572  0.00  0.00    +0.000 OA
ATOM      2  C   UNL     1       5.071   4.256  16.427  0.00  0.00    +0.000 A 
ATOM      3  C   UNL     1       5.759   4.322  15.125  0.00  0.00    +0.000 A 
ATOM      4  C   UNL     1       5.338   3.527  14.053  0.00  0.00    +0.000 A 
ATOM      5  C   UNL     1       6.057   3.561  12.863  0.00  0.00    +0.000 A 
ATOM      6 BR   UNL     1       5.532   2.463  11.419  0.00  0.00    +0.000 Br
ATOM      7  C   UNL     1       7.175   4.387  12.735  0.00  0.00    +0.000 A 
ATOM      8  C   UNL     1       7.575   5.187  13.810  0.00  0.00    +0.000 A 
ATOM      9  C   UNL     1       6.874   5.156  15.018  0.00  0.00    +0.000 A 
ATOM     10  N   UNL     1       7.325   5.944  16.085  0.00  0.00    +0.000 NA
ATOM     11  C   UNL     1       6.692   5.854  17.206  0.00  0.00    +0.000 A 
ATOM     12  N   UNL     1       5.600   5.050  17.429  0.00  0.00    +0.000 N 
ENDROOT
BRANCH  12  13
ATOM     13  C   UNL     1       5.070   4.930  18.767  0.00  0.00    +0.000 C 
BRANCH  13  14
ATOM     14  O   UNL     1       4.360   6.120  19.079  0.00  0.00    +0.000 OA
BRANCH  14  15
ATOM     15  C   UNL     1       2.987   6.015  18.704  0.00  0.00    +0.000 C 
BRANCH  15  16
ATOM     16  C   UNL     1       2.348   4.864  19.437  0.00  0.00    +0.000 A 
ATOM     17  C   UNL     1       2.514   4.707  20.821  0.00  0.00    +0.000 A 
ATOM     18  C   UNL     1       1.924   3.633  21.490  0.00  0.00    +0.000 A 
ATOM     19  C   UNL     1       1.146   2.717  20.788  0.00  0.00    +0.000 A 
ATOM     20  C   UNL     1       0.943   2.880  19.419  0.00  0.00    +0.000 A 
ATOM     21  C   UNL     1       1.534   3.953  18.748  0.00  0.00    +0.000 A 
ENDBRANCH  15  16
ENDBRANCH  14  15
ENDBRANCH  13  14
ENDBRANCH  12  13
TORSDOF 4
ENDMDL
MODEL 3
REMARK VINA RESULT:      -7.6      4.698      7.673
REMARK  Name = 
REMARK  4 active torsions:
REMARK  status: ('A' for Active; 'I' for Inactive)
REMARK    1  A    between atoms: N_12  and  C_13
REMARK    2  A    between atoms: C_13  and  O_14
REMARK    3  A    between atoms: O_14  and  C_15
REMARK    4  A    between atoms: C_15  and  C_16
REMARK                            x       y       z     vdW  Elec       q    Type
REMARK                         _______ _______ _______ _____ _____    ______ ____
ROOT
ATOM      1  O   UNL     1       4.272   3.389  16.588  0.00  0.00    +0.000 OA
ATOM      2  C   UNL     1       5.199   4.176  16.416  0.00  0.00    +0.000 A 
ATOM      3  C   UNL     1       5.837   4.272  15.090  0.00  0.00    +0.000 A 
ATOM      4  C   UNL     1       5.396   3.477  14.026  0.00  0.00    +0.000 A 
ATOM      5  C   UNL     1       6.070   3.541  12.810  0.00  0.00    +0.000 A 
ATOM      6 BR   UNL     1       5.519   2.443  11.375  0.00  0.00    +0.000 Br
ATOM      7  C   UNL     1       7.161   4.396  12.651  0.00  0.00    +0.000 A 
ATOM      8  C   UNL     1       7.579   5.197  13.719  0.00  0.00    +0.000 A 
ATOM      9  C   UNL     1       6.924   5.136  14.951  0.00  0.00    +0.000 A 
ATOM     10  N   UNL     1       7.395   5.925  16.009  0.00  0.00    +0.000 NA
ATOM     11  C   UNL     1       6.807   5.808  17.152  0.00  0.00    +0.000 A 
ATOM     12  N   UNL     1       5.744   4.973  17.406  0.00  0.00    +0.000 N 
ENDROOT
BRANCH  12  13
ATOM     13  C   UNL     1       5.268   4.827  18.761  0.00  0.00    +0.000 C 
BRANCH  13  14
ATOM     14  O   UNL     1       4.589   6.018  19.132  0.00  0.00    +0.000 OA
BRANCH  14  15
ATOM     15  C   UNL     1       3.249   6.023  18.639  0.00  0.00    +0.000 C 
BRANCH  15  16
ATOM     16  C   UNL     1       2.459   4.928  19.306  0.00  0.00    +0.000 A 
ATOM     17  C   UNL     1       1.688   4.031  18.552  0.00  0.00    +0.000 A 
ATOM     18  C   UNL     1       0.954   3.023  19.179  0.00  0.00    +0.000 A 
ATOM     19  C   UNL     1       0.999   2.886  20.564  0.00  0.00    +0.000 A 
ATOM     20  C   UNL     1       1.789   3.748  21.323  0.00  0.00    +0.000 A 
ATOM     21  C   UNL     1       2.522   4.758  20.697  0.00  0.00    +0.000 A 
ENDBRANCH  15  16
ENDBRANCH  14  15
ENDBRANCH  13  14
ENDBRANCH  12  13
TORSDOF 4
ENDMDL
MODEL 4
REMARK VINA RESULT:      -7.5      3.817      6.139
REMARK  Name = 
REMARK  4 active torsions:
REMARK  status: ('A' for Active; 'I' for Inactive)
REMARK    1  A    between atoms: N_12  and  C_13
REMARK    2  A    between atoms: C_13  and  O_14
REMARK    3  A    between atoms: O_14  and  C_15
REMARK    4  A    between atoms: C_15  and  C_16
REMARK                            x       y       z     vdW  Elec       q    Type
REMARK                         _______ _______ _______ _____ _____    ______ ____
ROOT
ATOM      1  O   UNL     1       6.409   4.951  19.718  0.00  0.00    +0.000 OA
ATOM      2  C   UNL     1       5.582   5.463  18.969  0.00  0.00    +0.000 A 
ATOM      3  C   UNL     1       4.154   5.131  19.123  0.00  0.00    +0.000 A 
ATOM      4  C   UNL     1       3.731   4.237  20.114  0.00  0.00    +0.000 A 
ATOM      5  C   UNL     1       2.385   3.890  20.181  0.00  0.00    +0.000 A 
ATOM      6 BR   UNL     1       1.801   2.652  21.482  0.00  0.00    +0.000 Br
ATOM      7  C   UNL     1       1.469   4.436  19.282  0.00  0.00    +0.000 A 
ATOM      8  C   UNL     1       1.904   5.340  18.307  0.00  0.00    +0.000 A 
ATOM      9  C   UNL     1       3.253   5.690  18.215  0.00  0.00    +0.000 A 
ATOM     10  N   UNL     1       3.658   6.570  17.202  0.00  0.00    +0.000 NA
ATOM     11  C   UNL     1       4.918   6.832  17.105  0.00  0.00    +0.000 A 
ATOM     12  N   UNL     1       5.892   6.321  17.929  0.00  0.00    +0.000 N 
ENDROOT
BRANCH  12  13
ATOM     13  C   UNL     1       7.281   6.577  17.626  0.00  0.00    +0.000 C 
BRANCH  13  14
ATOM     14  O   UNL     1       7.528   6.195  16.282  0.00  0.00    +0.000 OA
BRANCH  14  15
ATOM     15  C   UNL     1       7.200   4.822  16.067  0.00  0.00    +0.000 C 
BRANCH  15  16
ATOM     16  C   UNL     1       7.019   4.568  14.593  0.00  0.00    +0.000 A 
ATOM     17  C   UNL     1       6.037   3.681  14.128  0.00  0.00    +0.000 A 
ATOM     18  C   UNL     1       5.881   3.448  12.760  0.00  0.00    +0.000 A 
ATOM     19  C   UNL     1       6.689   4.112  11.842  0.00  0.00    +0.000 A 
ATOM     20  C   UNL     1       7.645   5.022  12.289  0.00  0.00    +0.000 A 
ATOM     21  C   UNL     1       7.805   5.256  13.656  0.00  0.00    +0.000 A 
ENDBRANCH  15  16
ENDBRANCH  14  15
ENDBRANCH  13  14
ENDBRANCH  12  13
TORSDOF 4
ENDMDL
MODEL 5
REMARK VINA RESULT:      -7.4      1.759      2.352
REMARK  Name = 
REMARK  4 active torsions:
REMARK  status: ('A' for Active; 'I' for Inactive)
REMARK    1  A    between atoms: N_12  and  C_13
REMARK    2  A    between atoms: C_13  and  O_14
REMARK    3  A    between atoms: O_14  and  C_15
REMARK    4  A    between atoms: C_15  and  C_16
REMARK                            x       y       z     vdW  Elec       q    Type
REMARK                         _______ _______ _______ _____ _____    ______ ____
ROOT
ATOM      1  O   UNL     1       6.756   5.137  19.802  0.00  0.00    +0.000 OA
ATOM      2  C   UNL     1       5.982   5.583  18.959  0.00  0.00    +0.000 A 
ATOM      3  C   UNL     1       4.552   5.229  19.023  0.00  0.00    +0.000 A 
ATOM      4  C   UNL     1       4.068   4.391  20.034  0.00  0.00    +0.000 A 
ATOM      5  C   UNL     1       2.728   4.019  20.019  0.00  0.00    +0.000 A 
ATOM      6 BR   UNL     1       2.064   2.853  21.349  0.00  0.00    +0.000 Br
ATOM      7  C   UNL     1       1.875   4.486  19.018  0.00  0.00    +0.000 A 
ATOM      8  C   UNL     1       2.371   5.335  18.023  0.00  0.00    +0.000 A 
ATOM      9  C   UNL     1       3.716   5.709  18.013  0.00  0.00    +0.000 A 
ATOM     10  N   UNL     1       4.185   6.531  16.980  0.00  0.00    +0.000 NA
ATOM     11  C   UNL     1       5.444   6.815  16.963  0.00  0.00    +0.000 A 
ATOM     12  N   UNL     1       6.359   6.379  17.892  0.00  0.00    +0.000 N 
ENDROOT
BRANCH  12  13
ATOM     13  C   UNL     1       7.762   6.647  17.683  0.00  0.00    +0.000 C 
BRANCH  13  14
ATOM     14  O   UNL     1       8.119   7.796  18.438  0.00  0.00    +0.000 OA
BRANCH  14  15
ATOM     15  C   UNL     1       8.022   8.982  17.649  0.00  0.00    +0.000 C 
BRANCH  15  16
ATOM     16  C   UNL     1       8.689  10.125  18.370  0.00  0.00    +0.000 A 
ATOM     17  C   UNL     1       9.239   9.950  19.648  0.00  0.00    +0.000 A 
ATOM     18  C   UNL     1       9.849  11.017  20.311  0.00  0.00    +0.000 A 
ATOM     19  C   UNL     1       9.933  12.264  19.696  0.00  0.00    +0.000 A 
ATOM     20  C   UNL     1       9.422  12.442  18.412  0.00  0.00    +0.000 A 
ATOM     21  C   UNL     1       8.810  11.376  17.748  0.00  0.00    +0.000 A 
ENDBRANCH  15  16
ENDBRANCH  14  15
ENDBRANCH  13  14
ENDBRANCH  12  13
TORSDOF 4
ENDMDL
MODEL 6
REMARK VINA RESULT:      -7.4      5.148      6.542
REMARK  Name = 
REMARK  4 active torsions:
REMARK  status: ('A' for Active; 'I' for Inactive)
REMARK    1  A    between atoms: N_12  and  C_13
REMARK    2  A    between atoms: C_13  and  O_14
REMARK    3  A    between atoms: O_14  and  C_15
REMARK    4  A    between atoms: C_15  and  C_16
REMARK                            x       y       z     vdW  Elec       q    Type
REMARK                         _______ _______ _______ _____ _____    ______ ____
ROOT
ATOM      1  O   UNL     1       2.907   3.386  16.989  0.00  0.00    +0.000 OA
ATOM      2  C   UNL     1       3.874   3.992  17.443  0.00  0.00    +0.000 A 
ATOM      3  C   UNL     1       5.017   4.302  16.565  0.00  0.00    +0.000 A 
ATOM      4  C   UNL     1       5.012   3.914  15.221  0.00  0.00    +0.000 A 
ATOM      5  C   UNL     1       6.139   4.159  14.442  0.00  0.00    +0.000 A 
ATOM      6 BR   UNL     1       6.169   3.603  12.637  0.00  0.00    +0.000 Br
ATOM      7  C   UNL     1       7.253   4.794  14.991  0.00  0.00    +0.000 A 
ATOM      8  C   UNL     1       7.237   5.190  16.333  0.00  0.00    +0.000 A 
ATOM      9  C   UNL     1       6.121   4.941  17.134  0.00  0.00    +0.000 A 
ATOM     10  N   UNL     1       6.155   5.319  18.483  0.00  0.00    +0.000 NA
ATOM     11  C   UNL     1       5.133   5.026  19.213  0.00  0.00    +0.000 A 
ATOM     12  N   UNL     1       4.005   4.381  18.764  0.00  0.00    +0.000 N 
ENDROOT
BRANCH  12  13
ATOM     13  C   UNL     1       2.991   3.983  19.712  0.00  0.00    +0.000 C 
BRANCH  13  14
ATOM     14  O   UNL     1       1.922   4.915  19.645  0.00  0.00    +0.000 OA
BRANCH  14  15
ATOM     15  C   UNL     1       2.146   6.023  20.516  0.00  0.00    +0.000 C 
BRANCH  15  16
ATOM     16  C   UNL     1       1.926   7.311  19.765  0.00  0.00    +0.000 A 
ATOM     17  C   UNL     1       1.305   8.408  20.380  0.00  0.00    +0.000 A 
ATOM     18  C   UNL     1       1.100   9.595  19.675  0.00  0.00    +0.000 A 
ATOM     19  C   UNL     1       1.530   9.706  18.355  0.00  0.00    +0.000 A 
ATOM     20  C   UNL     1       2.180   8.636  17.743  0.00  0.00    +0.000 A 
ATOM     21  C   UNL     1       2.384   7.447  18.447  0.00  0.00    +0.000 A 
ENDBRANCH  15  16
ENDBRANCH  14  15
ENDBRANCH  13  14
ENDBRANCH  12  13
TORSDOF 4
ENDMDL
MODEL 7
REMARK VINA RESULT:      -7.4      5.098      6.594
REMARK  Name = 
REMARK  4 active torsions:
REMARK  status: ('A' for Active; 'I' for Inactive)
REMARK    1  A    between atoms: N_12  and  C_13
REMARK    2  A    between atoms: C_13  and  O_14
REMARK    3  A    between atoms: O_14  and  C_15
REMARK    4  A    between atoms: C_15  and  C_16
REMARK                            x       y       z     vdW  Elec       q    Type
REMARK                         _______ _______ _______ _____ _____    ______ ____
ROOT
ATOM      1  O   UNL     1       2.938   3.472  17.073  0.00  0.00    +0.000 OA
ATOM      2  C   UNL     1       3.905   4.103  17.489  0.00  0.00    +0.000 A 
ATOM      3  C   UNL     1       5.033   4.389  16.583  0.00  0.00    +0.000 A 
ATOM      4  C   UNL     1       5.011   3.950  15.255  0.00  0.00    +0.000 A 
ATOM      5  C   UNL     1       6.124   4.175  14.450  0.00  0.00    +0.000 A 
ATOM      6 BR   UNL     1       6.133   3.551  12.668  0.00  0.00    +0.000 Br
ATOM      7  C   UNL     1       7.241   4.840  14.958  0.00  0.00    +0.000 A 
ATOM      8  C   UNL     1       7.241   5.287  16.283  0.00  0.00    +0.000 A 
ATOM      9  C   UNL     1       6.139   5.059  17.110  0.00  0.00    +0.000 A 
ATOM     10  N   UNL     1       6.190   5.488  18.443  0.00  0.00    +0.000 NA
ATOM     11  C   UNL     1       5.181   5.215  19.200  0.00  0.00    +0.000 A 
ATOM     12  N   UNL     1       4.053   4.543  18.792  0.00  0.00    +0.000 N 
ENDROOT
BRANCH  12  13
ATOM     13  C   UNL     1       3.057   4.174  19.770  0.00  0.00    +0.000 C 
BRANCH  13  14
ATOM     14  O   UNL     1       1.961   5.070  19.659  0.00  0.00    +0.000 OA
BRANCH  14  15
ATOM     15  C   UNL     1       2.108   6.178  20.547  0.00  0.00    +0.000 C 
BRANCH  15  16
ATOM     16  C   UNL     1       1.895   7.464  19.793  0.00  0.00    +0.000 A 
ATOM     17  C   UNL     1       2.341   7.609  18.470  0.00  0.00    +0.000 A 
ATOM     18  C   UNL     1       2.145   8.807  17.781  0.00  0.00    +0.000 A 
ATOM     19  C   UNL     1       1.485   9.866  18.398  0.00  0.00    +0.000 A 
ATOM     20  C   UNL     1       1.005   9.724  19.699  0.00  0.00    +0.000 A 
ATOM     21  C   UNL     1       1.202   8.527  20.390  0.00  0.00    +0.000 A 
ENDBRANCH  15  16
ENDBRANCH  14  15
ENDBRANCH  13  14
ENDBRANCH  12  13
TORSDOF 4
ENDMDL
MODEL 8
REMARK VINA RESULT:      -7.3      6.710      9.464
REMARK  Name = 
REMARK  4 active torsions:
REMARK  status: ('A' for Active; 'I' for Inactive)
REMARK    1  A    between atoms: N_12  and  C_13
REMARK    2  A    between atoms: C_13  and  O_14
REMARK    3  A    between atoms: O_14  and  C_15
REMARK    4  A    between atoms: C_15  and  C_16
REMARK                            x       y       z     vdW  Elec       q    Type
REMARK                         _______ _______ _______ _____ _____    ______ ____
ROOT
ATOM      1  O   UNL     1       0.133  10.524  18.437  0.00  0.00    +0.000 OA
ATOM      2  C   UNL     1       0.295  10.016  19.543  0.00  0.00    +0.000 A 
ATOM      3  C   UNL     1      -0.423  10.564  20.709  0.00  0.00    +0.000 A 
ATOM      4  C   UNL     1      -1.287  11.656  20.567  0.00  0.00    +0.000 A 
ATOM      5  C   UNL     1      -1.889  12.193  21.701  0.00  0.00    +0.000 A 
ATOM      6 BR   UNL     1      -3.023  13.694  21.537  0.00  0.00    +0.000 Br
ATOM      7  C   UNL     1      -1.646  11.641  22.959  0.00  0.00    +0.000 A 
ATOM      8  C   UNL     1      -0.792  10.540  23.083  0.00  0.00    +0.000 A 
ATOM      9  C   UNL     1      -0.167   9.996  21.958  0.00  0.00    +0.000 A 
ATOM     10  N   UNL     1       0.710   8.916  22.125  0.00  0.00    +0.000 NA
ATOM     11  C   UNL     1       1.317   8.470  21.077  0.00  0.00    +0.000 A 
ATOM     12  N   UNL     1       1.158   8.967  19.806  0.00  0.00    +0.000 N 
ENDROOT
BRANCH  12  13
ATOM     13  C   UNL     1       2.002   8.475  18.742  0.00  0.00    +0.000 C 
BRANCH  13  14
ATOM     14  O   UNL     1       2.629   7.280  19.181  0.00  0.00    +0.000 OA
BRANCH  14  15
ATOM     15  C   UNL     1       2.548   6.258  18.187  0.00  0.00    +0.000 C 
BRANCH  15  16
ATOM     16  C   UNL     1       1.991   4.999  18.798  0.00  0.00    +0.000 A 
ATOM     17  C   UNL     1       1.742   4.914  20.177  0.00  0.00    +0.000 A 
ATOM     18  C   UNL     1       1.232   3.741  20.735  0.00  0.00    +0.000 A 
ATOM     19  C   UNL     1       0.947   2.647  19.921  0.00  0.00    +0.000 A 
ATOM     20  C   UNL     1       1.156   2.731  18.546  0.00  0.00    +0.000 A 
ATOM     21  C   UNL     1       1.668   3.903  17.986  0.00  0.00    +0.000 A 
ENDBRANCH  15  16
ENDBRANCH  14  15
ENDBRANCH  13  14
ENDBRANCH  12  13
TORSDOF 4
ENDMDL
MODEL 9
REMARK VINA RESULT:      -7.3      5.064      7.989
REMARK  Name = 
REMARK  4 active torsions:
REMARK  status: ('A' for Active; 'I' for Inactive)
REMARK    1  A    between atoms: N_12  and  C_13
REMARK    2  A    between atoms: C_13  and  O_14
REMARK    3  A    between atoms: O_14  and  C_15
REMARK    4  A    between atoms: C_15  and  C_16
REMARK                            x       y       z     vdW  Elec       q    Type
REMARK                         _______ _______ _______ _____ _____    ______ ____
ROOT
ATOM      1  O   UNL     1       3.805   3.673  16.818  0.00  0.00    +0.000 OA
ATOM      2  C   UNL     1       4.945   4.119  16.714  0.00  0.00    +0.000 A 
ATOM      3  C   UNL     1       5.570   4.215  15.382  0.00  0.00    +0.000 A 
ATOM      4  C   UNL     1       4.879   3.806  14.236  0.00  0.00    +0.000 A 
ATOM      5  C   UNL     1       5.529   3.842  13.006  0.00  0.00    +0.000 A 
ATOM      6 BR   UNL     1       4.629   3.252  11.454  0.00  0.00    +0.000 Br
ATOM      7  C   UNL     1       6.846   4.294  12.915  0.00  0.00    +0.000 A 
ATOM      8  C   UNL     1       7.518   4.715  14.067  0.00  0.00    +0.000 A 
ATOM      9  C   UNL     1       6.888   4.673  15.313  0.00  0.00    +0.000 A 
ATOM     10  N   UNL     1       7.605   5.068  16.450  0.00  0.00    +0.000 NA
ATOM     11  C   UNL     1       7.018   4.966  17.595  0.00  0.00    +0.000 A 
ATOM     12  N   UNL     1       5.735   4.508  17.780  0.00  0.00    +0.000 N 
ENDROOT
BRANCH  12  13
ATOM     13  C   UNL     1       5.243   4.305  19.123  0.00  0.00    +0.000 C 
BRANCH  13  14
ATOM     14  O   UNL     1       5.309   2.919  19.423  0.00  0.00    +0.000 OA
BRANCH  14  15
ATOM     15  C   UNL     1       4.472   2.589  20.531  0.00  0.00    +0.000 C 
BRANCH  15  16
ATOM     16  C   UNL     1       3.027   2.787  20.151  0.00  0.00    +0.000 A 
ATOM     17  C   UNL     1       2.251   3.785  20.759  0.00  0.00    +0.000 A 
ATOM     18  C   UNL     1       0.911   3.957  20.405  0.00  0.00    +0.000 A 
ATOM     19  C   UNL     1       0.339   3.147  19.427  0.00  0.00    +0.000 A 
ATOM     20  C   UNL     1       1.108   2.175  18.791  0.00  0.00    +0.000 A 
ATOM     21  C   UNL     1       2.448   2.001  19.145  0.00  0.00    +0.000 A 
ENDBRANCH  15  16
ENDBRANCH  14  15
ENDBRANCH  13  14
ENDBRANCH  12  13
TORSDOF 4
ENDMDL
