MODEL 1
REMARK VINA RESULT:      -6.0      0.000      0.000
REMARK  Name = 
REMARK  5 active torsions:
REMARK  status: ('A' for Active; 'I' for Inactive)
REMARK    1  A    between atoms: C_1  and  N_2
REMARK    2  A    between atoms: N_2  and  C_3
REMARK    3  A    between atoms: N_6  and  C_7
REMARK    4  A    between atoms: C_7  and  C_8
REMARK    5  A    between atoms: N_13  and  C_14
REMARK                            x       y       z     vdW  Elec       q    Type
REMARK                         _______ _______ _______ _____ _____    ______ ____
ROOT
ATOM      1  C   UNL     1       2.781   7.088  19.108  0.00  0.00    +0.000 C 
ENDROOT
BRANCH   1   2
ATOM      2  C   UNL     1       2.116   8.334  18.504  0.00  0.00    +0.000 C 
ATOM      3  O   UNL     1       2.398   8.671  17.345  0.00  0.00    +0.000 OA
ATOM      4  N   UNL     1       1.161   9.027  19.243  0.00  0.00    +0.000 N 
ATOM      5  C   UNL     1       0.546  10.183  18.585  0.00  0.00    +0.000 C 
ATOM      6  C   UNL     1      -0.785  10.609  19.231  0.00  0.00    +0.000 C 
ATOM      7  N   UNL     1      -0.737  10.778  20.695  0.00  0.00    +0.000 NA
ATOM      8  C   UNL     1       0.010  11.976  21.073  0.00  0.00    +0.000 C 
ATOM      9  C   UNL     1      -0.169   9.558  21.304  0.00  0.00    +0.000 C 
ATOM     10  C   UNL     1       1.175   9.075  20.710  0.00  0.00    +0.000 C 
ENDBRANCH   1   2
BRANCH   1  14
ATOM     11  C   UNL     1       1.567   2.924  19.227  0.00  0.00    +0.000 C 
ATOM     12  C   UNL     1       1.652   3.678  17.889  0.00  0.00    +0.000 C 
ATOM     13  C   UNL     1       2.462   4.973  18.009  0.00  0.00    +0.000 C 
ATOM     14  N   UNL     1       1.921   5.878  19.049  0.00  0.00    +0.000 NA
ATOM     15  C   UNL     1       1.914   5.173  20.349  0.00  0.00    +0.000 C 
ATOM     16  C   UNL     1       1.055   3.909  20.283  0.00  0.00    +0.000 C 
BRANCH  11  18
ATOM     17  C   UNL     1       3.446   1.551  18.444  0.00  0.00    +0.000 C 
ATOM     18  N   UNL     1       2.885   2.336  19.536  0.00  0.00    +0.000 NA
ATOM     19  H   UNL     1       3.537   3.087  19.763  0.00  0.00    +0.000 HD
ENDBRANCH  11  18
ENDBRANCH   1  14
TORSDOF 3
ENDMDL
MODEL 2
REMARK VINA RESULT:      -5.9      1.093      1.558
REMARK  Name = 
REMARK  5 active torsions:
REMARK  status: ('A' for Active; 'I' for Inactive)
REMARK    1  A    between atoms: C_1  and  N_2
REMARK    2  A    between atoms: N_2  and  C_3
REMARK    3  A    between atoms: N_6  and  C_7
REMARK    4  A    between atoms: C_7  and  C_8
REMARK    5  A    between atoms: N_13  and  C_14
REMARK                            x       y       z     vdW  Elec       q    Type
REMARK                         _______ _______ _______ _____ _____    ______ ____
ROOT
ATOM      1  C   UNL     1       2.545   7.208  19.076  0.00  0.00    +0.000 C 
ENDROOT
BRANCH   1   2
ATOM      2  C   UNL     1       1.960   8.513  18.515  0.00  0.00    +0.000 C 
ATOM      3  O   UNL     1       2.271   8.877  17.372  0.00  0.00    +0.000 OA
ATOM      4  N   UNL     1       1.041   9.233  19.275  0.00  0.00    +0.000 N 
ATOM      5  C   UNL     1       0.500  10.448  18.659  0.00  0.00    +0.000 C 
ATOM      6  C   UNL     1      -0.808  10.926  19.312  0.00  0.00    +0.000 C 
ATOM      7  N   UNL     1      -0.763  11.037  20.782  0.00  0.00    +0.000 NA
ATOM      8  C   UNL     1       0.050  12.173  21.210  0.00  0.00    +0.000 C 
ATOM      9  C   UNL     1      -0.273   9.763  21.347  0.00  0.00    +0.000 C 
ATOM     10  C   UNL     1       1.045   9.224  20.743  0.00  0.00    +0.000 C 
ENDBRANCH   1   2
BRANCH   1  14
ATOM     11  C   UNL     1       3.758   3.491  17.196  0.00  0.00    +0.000 C 
ATOM     12  C   UNL     1       4.488   4.805  16.876  0.00  0.00    +0.000 C 
ATOM     13  C   UNL     1       4.188   5.896  17.909  0.00  0.00    +0.000 C 
ATOM     14  N   UNL     1       2.738   6.160  18.040  0.00  0.00    +0.000 NA
ATOM     15  C   UNL     1       2.049   4.909  18.425  0.00  0.00    +0.000 C 
ATOM     16  C   UNL     1       2.271   3.817  17.375  0.00  0.00    +0.000 C 
BRANCH  11  18
ATOM     17  C   UNL     1       3.691   1.671  18.842  0.00  0.00    +0.000 C 
ATOM     18  N   UNL     1       4.386   2.862  18.374  0.00  0.00    +0.000 NA
ATOM     19  H   UNL     1       5.346   2.605  18.138  0.00  0.00    +0.000 HD
ENDBRANCH  11  18
ENDBRANCH   1  14
TORSDOF 3
ENDMDL
MODEL 3
REMARK VINA RESULT:      -5.9      4.402      6.461
REMARK  Name = 
REMARK  5 active torsions:
REMARK  status: ('A' for Active; 'I' for Inactive)
REMARK    1  A    between atoms: C_1  and  N_2
REMARK    2  A    between atoms: N_2  and  C_3
REMARK    3  A    between atoms: N_6  and  C_7
REMARK    4  A    between atoms: C_7  and  C_8
REMARK    5  A    between atoms: N_13  and  C_14
REMARK                            x       y       z     vdW  Elec       q    Type
REMARK                         _______ _______ _______ _____ _____    ______ ____
ROOT
ATOM      1  C   UNL     1       5.791   4.086  18.348  0.00  0.00    +0.000 C 
ENDROOT
BRANCH   1   2
ATOM      2  C   UNL     1       4.778   4.779  19.271  0.00  0.00    +0.000 C 
ATOM      3  O   UNL     1       5.020   5.919  19.692  0.00  0.00    +0.000 OA
ATOM      4  N   UNL     1       3.576   4.142  19.569  0.00  0.00    +0.000 N 
ATOM      5  C   UNL     1       2.645   4.880  20.427  0.00  0.00    +0.000 C 
ATOM      6  C   UNL     1       1.200   4.360  20.340  0.00  0.00    +0.000 C 
ATOM      7  N   UNL     1       1.055   2.902  20.510  0.00  0.00    +0.000 NA
ATOM      8  C   UNL     1       1.283   2.498  21.896  0.00  0.00    +0.000 C 
ATOM      9  C   UNL     1       1.969   2.213  19.576  0.00  0.00    +0.000 C 
ATOM     10  C   UNL     1       3.443   2.681  19.614  0.00  0.00    +0.000 C 
ENDBRANCH   1   2
BRANCH   1  14
ATOM     11  C   UNL     1       6.425   4.830  14.121  0.00  0.00    +0.000 C 
ATOM     12  C   UNL     1       7.576   4.994  15.126  0.00  0.00    +0.000 C 
ATOM     13  C   UNL     1       7.271   4.317  16.466  0.00  0.00    +0.000 C 
ATOM     14  N   UNL     1       6.015   4.814  17.072  0.00  0.00    +0.000 NA
ATOM     15  C   UNL     1       4.897   4.583  16.132  0.00  0.00    +0.000 C 
ATOM     16  C   UNL     1       5.139   5.306  14.805  0.00  0.00    +0.000 C 
BRANCH  11  18
ATOM     17  C   UNL     1       5.936   3.282  12.279  0.00  0.00    +0.000 C 
ATOM     18  N   UNL     1       6.382   3.429  13.658  0.00  0.00    +0.000 NA
ATOM     19  H   UNL     1       7.315   3.025  13.742  0.00  0.00    +0.000 HD
ENDBRANCH  11  18
ENDBRANCH   1  14
TORSDOF 3
ENDMDL
MODEL 4
REMARK VINA RESULT:      -5.8      3.878      6.339
REMARK  Name = 
REMARK  5 active torsions:
REMARK  status: ('A' for Active; 'I' for Inactive)
REMARK    1  A    between atoms: C_1  and  N_2
REMARK    2  A    between atoms: N_2  and  C_3
REMARK    3  A    between atoms: N_6  and  C_7
REMARK    4  A    between atoms: C_7  and  C_8
REMARK    5  A    between atoms: N_13  and  C_14
REMARK                            x       y       z     vdW  Elec       q    Type
REMARK                         _______ _______ _______ _____ _____    ______ ____
ROOT
ATOM      1  C   UNL     1       5.022   6.033  18.147  0.00  0.00    +0.000 C 
ENDROOT
BRANCH   1   2
ATOM      2  C   UNL     1       3.605   6.015  18.740  0.00  0.00    +0.000 C 
ATOM      3  O   UNL     1       2.956   7.070  18.794  0.00  0.00    +0.000 OA
ATOM      4  N   UNL     1       3.049   4.806  19.148  0.00  0.00    +0.000 N 
ATOM      5  C   UNL     1       1.681   4.864  19.670  0.00  0.00    +0.000 C 
ATOM      6  C   UNL     1       0.971   3.498  19.661  0.00  0.00    +0.000 C 
ATOM      7  N   UNL     1       1.739   2.397  20.272  0.00  0.00    +0.000 NA
ATOM      8  C   UNL     1       1.805   2.530  21.725  0.00  0.00    +0.000 C 
ATOM      9  C   UNL     1       3.084   2.348  19.660  0.00  0.00    +0.000 C 
ATOM     10  C   UNL     1       3.860   3.686  19.641  0.00  0.00    +0.000 C 
ENDBRANCH   1   2
BRANCH   1  14
ATOM     11  C   UNL     1       6.567   4.587  14.359  0.00  0.00    +0.000 C 
ATOM     12  C   UNL     1       5.312   5.474  14.406  0.00  0.00    +0.000 C 
ATOM     13  C   UNL     1       5.165   6.192  15.751  0.00  0.00    +0.000 C 
ATOM     14  N   UNL     1       5.142   5.248  16.891  0.00  0.00    +0.000 NA
ATOM     15  C   UNL     1       6.387   4.450  16.886  0.00  0.00    +0.000 C 
ATOM     16  C   UNL     1       6.529   3.664  15.582  0.00  0.00    +0.000 C 
BRANCH  11  18
ATOM     17  C   UNL     1       8.260   5.647  12.930  0.00  0.00    +0.000 C 
ATOM     18  N   UNL     1       7.765   5.446  14.286  0.00  0.00    +0.000 NA
ATOM     19  H   UNL     1       7.544   6.357  14.688  0.00  0.00    +0.000 HD
ENDBRANCH  11  18
ENDBRANCH   1  14
TORSDOF 3
ENDMDL
MODEL 5
REMARK VINA RESULT:      -5.8      2.071      2.579
REMARK  Name = 
REMARK  5 active torsions:
REMARK  status: ('A' for Active; 'I' for Inactive)
REMARK    1  A    between atoms: C_1  and  N_2
REMARK    2  A    between atoms: N_2  and  C_3
REMARK    3  A    between atoms: N_6  and  C_7
REMARK    4  A    between atoms: C_7  and  C_8
REMARK    5  A    between atoms: N_13  and  C_14
REMARK                            x       y       z     vdW  Elec       q    Type
REMARK                         _______ _______ _______ _____ _____    ______ ____
ROOT
ATOM      1  C   UNL     1       2.669   7.076  18.904  0.00  0.00    +0.000 C 
ENDROOT
BRANCH   1   2
ATOM      2  C   UNL     1       2.048   8.394  18.420  0.00  0.00    +0.000 C 
ATOM      3  O   UNL     1       2.327   8.818  17.289  0.00  0.00    +0.000 OA
ATOM      4  N   UNL     1       1.133   9.059  19.231  0.00  0.00    +0.000 N 
ATOM      5  C   UNL     1       0.556  10.291  18.686  0.00  0.00    +0.000 C 
ATOM      6  C   UNL     1      -0.746  10.713  19.388  0.00  0.00    +0.000 C 
ATOM      7  N   UNL     1      -0.671  10.754  20.860  0.00  0.00    +0.000 NA
ATOM      8  C   UNL     1       0.130  11.884  21.326  0.00  0.00    +0.000 C 
ATOM      9  C   UNL     1      -0.145   9.464  21.354  0.00  0.00    +0.000 C 
ATOM     10  C   UNL     1       1.169   8.981  20.697  0.00  0.00    +0.000 C 
ENDBRANCH   1   2
BRANCH   1  14
ATOM     11  C   UNL     1       5.180   4.320  16.685  0.00  0.00    +0.000 C 
ATOM     12  C   UNL     1       5.175   5.820  16.348  0.00  0.00    +0.000 C 
ATOM     13  C   UNL     1       4.553   6.659  17.469  0.00  0.00    +0.000 C 
ATOM     14  N   UNL     1       3.176   6.225  17.797  0.00  0.00    +0.000 NA
ATOM     15  C   UNL     1       3.198   4.801  18.195  0.00  0.00    +0.000 C 
ATOM     16  C   UNL     1       3.749   3.925  17.068  0.00  0.00    +0.000 C 
BRANCH  11  18
ATOM     17  C   UNL     1       7.503   4.591  17.430  0.00  0.00    +0.000 C 
ATOM     18  N   UNL     1       6.181   4.063  17.738  0.00  0.00    +0.000 NA
ATOM     19  H   UNL     1       5.860   4.483  18.610  0.00  0.00    +0.000 HD
ENDBRANCH  11  18
ENDBRANCH   1  14
TORSDOF 3
ENDMDL
MODEL 6
REMARK VINA RESULT:      -5.7      3.152      5.036
REMARK  Name = 
REMARK  5 active torsions:
REMARK  status: ('A' for Active; 'I' for Inactive)
REMARK    1  A    between atoms: C_1  and  N_2
REMARK    2  A    between atoms: N_2  and  C_3
REMARK    3  A    between atoms: N_6  and  C_7
REMARK    4  A    between atoms: C_7  and  C_8
REMARK    5  A    between atoms: N_13  and  C_14
REMARK                            x       y       z     vdW  Elec       q    Type
REMARK                         _______ _______ _______ _____ _____    ______ ____
ROOT
ATOM      1  C   UNL     1       2.367   6.427  19.942  0.00  0.00    +0.000 C 
ENDROOT
BRANCH   1   2
ATOM      2  C   UNL     1       3.072   6.734  18.612  0.00  0.00    +0.000 C 
ATOM      3  O   UNL     1       2.437   7.282  17.700  0.00  0.00    +0.000 OA
ATOM      4  N   UNL     1       4.429   6.451  18.475  0.00  0.00    +0.000 N 
ATOM      5  C   UNL     1       5.039   6.804  17.191  0.00  0.00    +0.000 C 
ATOM      6  C   UNL     1       6.573   6.907  17.258  0.00  0.00    +0.000 C 
ATOM      7  N   UNL     1       7.244   5.749  17.878  0.00  0.00    +0.000 NA
ATOM      8  C   UNL     1       7.204   4.575  17.008  0.00  0.00    +0.000 C 
ATOM      9  C   UNL     1       6.630   5.482  19.195  0.00  0.00    +0.000 C 
ATOM     10  C   UNL     1       5.088   5.359  19.202  0.00  0.00    +0.000 C 
ENDBRANCH   1   2
BRANCH   1  14
ATOM     11  C   UNL     1       1.639   2.160  19.644  0.00  0.00    +0.000 C 
ATOM     12  C   UNL     1       1.180   3.113  18.528  0.00  0.00    +0.000 C 
ATOM     13  C   UNL     1       1.864   4.481  18.622  0.00  0.00    +0.000 C 
ATOM     14  N   UNL     1       1.650   5.126  19.937  0.00  0.00    +0.000 NA
ATOM     15  C   UNL     1       2.164   4.238  21.003  0.00  0.00    +0.000 C 
ATOM     16  C   UNL     1       1.450   2.885  20.981  0.00  0.00    +0.000 C 
BRANCH  11  18
ATOM     17  C   UNL     1       3.370   1.711  17.962  0.00  0.00    +0.000 C 
ATOM     18  N   UNL     1       3.027   1.735  19.377  0.00  0.00    +0.000 NA
ATOM     19  H   UNL     1       3.666   2.371  19.855  0.00  0.00    +0.000 HD
ENDBRANCH  11  18
ENDBRANCH   1  14
TORSDOF 3
ENDMDL
MODEL 7
REMARK VINA RESULT:      -5.7      3.300      4.096
REMARK  Name = 
REMARK  5 active torsions:
REMARK  status: ('A' for Active; 'I' for Inactive)
REMARK    1  A    between atoms: C_1  and  N_2
REMARK    2  A    between atoms: N_2  and  C_3
REMARK    3  A    between atoms: N_6  and  C_7
REMARK    4  A    between atoms: C_7  and  C_8
REMARK    5  A    between atoms: N_13  and  C_14
REMARK                            x       y       z     vdW  Elec       q    Type
REMARK                         _______ _______ _______ _____ _____    ______ ____
ROOT
ATOM      1  C   UNL     1       3.707   7.125  17.488  0.00  0.00    +0.000 C 
ENDROOT
BRANCH   1   2
ATOM      2  C   UNL     1       2.819   7.166  18.741  0.00  0.00    +0.000 C 
ATOM      3  O   UNL     1       2.772   6.176  19.485  0.00  0.00    +0.000 OA
ATOM      4  N   UNL     1       2.132   8.336  19.054  0.00  0.00    +0.000 N 
ATOM      5  C   UNL     1       1.333   8.309  20.283  0.00  0.00    +0.000 C 
ATOM      6  C   UNL     1       0.992   9.713  20.813  0.00  0.00    +0.000 C 
ATOM      7  N   UNL     1       0.417  10.630  19.811  0.00  0.00    +0.000 NA
ATOM      8  C   UNL     1      -0.953  10.257  19.465  0.00  0.00    +0.000 C 
ATOM      9  C   UNL     1       1.297  10.664  18.625  0.00  0.00    +0.000 C 
ATOM     10  C   UNL     1       1.676   9.286  18.033  0.00  0.00    +0.000 C 
ENDBRANCH   1   2
BRANCH   1  14
ATOM     11  C   UNL     1       7.134   4.702  16.390  0.00  0.00    +0.000 C 
ATOM     12  C   UNL     1       5.736   4.073  16.507  0.00  0.00    +0.000 C 
ATOM     13  C   UNL     1       4.628   5.132  16.507  0.00  0.00    +0.000 C 
ATOM     14  N   UNL     1       4.809   6.132  17.583  0.00  0.00    +0.000 NA
ATOM     15  C   UNL     1       6.124   6.789  17.420  0.00  0.00    +0.000 C 
ATOM     16  C   UNL     1       7.259   5.765  17.487  0.00  0.00    +0.000 C 
BRANCH  11  18
ATOM     17  C   UNL     1       6.720   4.381  13.991  0.00  0.00    +0.000 C 
ATOM     18  N   UNL     1       7.320   5.219  15.021  0.00  0.00    +0.000 NA
ATOM     19  H   UNL     1       6.909   6.151  14.961  0.00  0.00    +0.000 HD
ENDBRANCH  11  18
ENDBRANCH   1  14
TORSDOF 3
ENDMDL
MODEL 8
REMARK VINA RESULT:      -5.6      3.185      4.165
REMARK  Name = 
REMARK  5 active torsions:
REMARK  status: ('A' for Active; 'I' for Inactive)
REMARK    1  A    between atoms: C_1  and  N_2
REMARK    2  A    between atoms: N_2  and  C_3
REMARK    3  A    between atoms: N_6  and  C_7
REMARK    4  A    between atoms: C_7  and  C_8
REMARK    5  A    between atoms: N_13  and  C_14
REMARK                            x       y       z     vdW  Elec       q    Type
REMARK                         _______ _______ _______ _____ _____    ______ ____
ROOT
ATOM      1  C   UNL     1       3.178   5.615  18.706  0.00  0.00    +0.000 C 
ENDROOT
BRANCH   1   2
ATOM      2  C   UNL     1       2.316   6.414  19.694  0.00  0.00    +0.000 C 
ATOM      3  O   UNL     1       1.963   5.885  20.758  0.00  0.00    +0.000 OA
ATOM      4  N   UNL     1       1.998   7.740  19.410  0.00  0.00    +0.000 N 
ATOM      5  C   UNL     1       1.202   8.447  20.417  0.00  0.00    +0.000 C 
ATOM      6  C   UNL     1       1.279   9.978  20.284  0.00  0.00    +0.000 C 
ATOM      7  N   UNL     1       1.022  10.495  18.927  0.00  0.00    +0.000 NA
ATOM      8  C   UNL     1      -0.389  10.378  18.566  0.00  0.00    +0.000 C 
ATOM      9  C   UNL     1       1.898   9.792  17.967  0.00  0.00    +0.000 C 
ATOM     10  C   UNL     1       1.865   8.247  18.039  0.00  0.00    +0.000 C 
ENDBRANCH   1   2
BRANCH   1  14
ATOM     11  C   UNL     1       7.369   5.864  17.609  0.00  0.00    +0.000 C 
ATOM     12  C   UNL     1       6.955   5.528  19.051  0.00  0.00    +0.000 C 
ATOM     13  C   UNL     1       5.486   5.101  19.144  0.00  0.00    +0.000 C 
ATOM     14  N   UNL     1       4.569   6.126  18.596  0.00  0.00    +0.000 NA
ATOM     15  C   UNL     1       4.923   6.390  17.184  0.00  0.00    +0.000 C 
ATOM     16  C   UNL     1       6.365   6.887  17.065  0.00  0.00    +0.000 C 
BRANCH  11  18
ATOM     17  C   UNL     1       7.223   4.807  15.398  0.00  0.00    +0.000 C 
ATOM     18  N   UNL     1       7.449   4.617  16.825  0.00  0.00    +0.000 NA
ATOM     19  H   UNL     1       8.374   4.205  16.954  0.00  0.00    +0.000 HD
ENDBRANCH  11  18
ENDBRANCH   1  14
TORSDOF 3
ENDMDL
MODEL 9
REMARK VINA RESULT:      -5.6      5.278      7.086
REMARK  Name = 
REMARK  5 active torsions:
REMARK  status: ('A' for Active; 'I' for Inactive)
REMARK    1  A    between atoms: C_1  and  N_2
REMARK    2  A    between atoms: N_2  and  C_3
REMARK    3  A    between atoms: N_6  and  C_7
REMARK    4  A    between atoms: C_7  and  C_8
REMARK    5  A    between atoms: N_13  and  C_14
REMARK                            x       y       z     vdW  Elec       q    Type
REMARK                         _______ _______ _______ _____ _____    ______ ____
ROOT
ATOM      1  C   UNL     1       6.810   4.942  15.691  0.00  0.00    +0.000 C 
ENDROOT
BRANCH   1   2
ATOM      2  C   UNL     1       5.942   5.889  16.533  0.00  0.00    +0.000 C 
ATOM      3  O   UNL     1       6.243   7.089  16.603  0.00  0.00    +0.000 OA
ATOM      4  N   UNL     1       4.796   5.397  17.154  0.00  0.00    +0.000 N 
ATOM      5  C   UNL     1       4.001   6.368  17.911  0.00  0.00    +0.000 C 
ATOM      6  C   UNL     1       2.558   5.899  18.167  0.00  0.00    +0.000 C 
ATOM      7  N   UNL     1       2.439   4.541  18.731  0.00  0.00    +0.000 NA
ATOM      8  C   UNL     1       2.866   4.500  20.127  0.00  0.00    +0.000 C 
ATOM      9  C   UNL     1       3.206   3.599  17.890  0.00  0.00    +0.000 C 
ATOM     10  C   UNL     1       4.670   4.003  17.597  0.00  0.00    +0.000 C 
ENDBRANCH   1   2
BRANCH   1  14
ATOM     11  C   UNL     1       6.338   3.502  11.626  0.00  0.00    +0.000 C 
ATOM     12  C   UNL     1       7.295   4.664  11.939  0.00  0.00    +0.000 C 
ATOM     13  C   UNL     1       7.618   4.756  13.434  0.00  0.00    +0.000 C 
ATOM     14  N   UNL     1       6.400   4.886  14.264  0.00  0.00    +0.000 NA
ATOM     15  C   UNL     1       5.517   3.725  14.016  0.00  0.00    +0.000 C 
ATOM     16  C   UNL     1       5.118   3.645  12.541  0.00  0.00    +0.000 C 
BRANCH  11  18
ATOM     17  C   UNL     1       6.411   1.102  11.114  0.00  0.00    +0.000 C 
ATOM     18  N   UNL     1       7.062   2.224  11.776  0.00  0.00    +0.000 NA
ATOM     19  H   UNL     1       8.000   2.329  11.390  0.00  0.00    +0.000 HD
ENDBRANCH  11  18
ENDBRANCH   1  14
TORSDOF 3
ENDMDL
