MODEL 1
REMARK VINA RESULT:      -6.0      0.000      0.000
REMARK  Name = 
REMARK  12 active torsions:
REMARK  status: ('A' for Active; 'I' for Inactive)
REMARK    1  A    between atoms: C_1  and  C_2
REMARK    2  A    between atoms: C_2  and  O_3
REMARK    3  A    between atoms: O_3  and  C_4
REMARK    4  A    between atoms: C_8  and  O_9
REMARK    5  A    between atoms: O_9  and  C_10
REMARK    6  A    between atoms: C_10  and  C_11
REMARK    7  A    between atoms: C_12  and  O_13
REMARK    8  A    between atoms: O_13  and  C_14
REMARK    9  A    between atoms: C_17  and  C_18
REMARK   10  A    between atoms: C_18  and  O_19
REMARK   11  A    between atoms: C_20  and  O_21
REMARK   12  A    between atoms: C_22  and  O_23
REMARK                            x       y       z     vdW  Elec       q    Type
REMARK                         _______ _______ _______ _____ _____    ______ ____
ROOT
ATOM      1  C   UNL     1       0.042  10.166  19.279  0.00  0.00    +0.000 A 
ATOM      2  C   UNL     1      -0.816  10.304  18.188  0.00  0.00    +0.000 A 
ATOM      3  C   UNL     1      -1.986  11.044  18.267  0.00  0.00    +0.000 A 
ATOM      4  C   UNL     1      -2.357  11.670  19.472  0.00  0.00    +0.000 A 
ATOM      5  C   UNL     1      -1.451  11.627  20.566  0.00  0.00    +0.000 A 
ATOM      6  C   UNL     1      -0.253  10.854  20.476  0.00  0.00    +0.000 A 
ATOM      7  C   UNL     1      -3.691  12.395  19.486  0.00  0.00    +0.000 C 
ATOM      8  O   UNL     1      -4.346  12.322  20.755  0.00  0.00    +0.000 OA
ATOM      9  C   UNL     1      -5.583  13.057  20.785  0.00  0.00    +0.000 C 
ATOM     10  C   UNL     1      -6.584  12.459  19.791  0.00  0.00    +0.000 C 
ATOM     11  C   UNL     1      -5.961  12.392  18.389  0.00  0.00    +0.000 C 
ATOM     12  C   UNL     1      -4.592  11.710  18.448  0.00  0.00    +0.000 C 
ATOM     13  O   UNL     1      -3.993  11.761  17.147  0.00  0.00    +0.000 OA
ATOM     14  C   UNL     1      -2.787  11.169  17.015  0.00  0.00    +0.000 C 
ATOM     15  O   UNL     1      -2.358  10.795  15.931  0.00  0.00    +0.000 OA
ENDROOT
BRANCH   6  16
ATOM     16  O   UNL     1       0.527  10.833  21.605  0.00  0.00    +0.000 OA
ATOM     17  C   UNL     1       0.369   9.845  22.607  0.00  0.00    +0.000 C 
ENDBRANCH   6  16
BRANCH  10  18
ATOM     18  O   UNL     1      -7.801  13.205  19.780  0.00  0.00    +0.000 OA
ATOM     19  H   UNL     1      -7.762  13.861  19.062  0.00  0.00    +0.000 HD
ENDBRANCH  10  18
BRANCH  11  20
ATOM     20  O   UNL     1      -6.838  11.694  17.493  0.00  0.00    +0.000 OA
ATOM     21  H   UNL     1      -7.759  11.927  17.702  0.00  0.00    +0.000 HD
ENDBRANCH  11  20
BRANCH   1  22
ATOM     22  O   UNL     1       1.174   9.391  19.193  0.00  0.00    +0.000 OA
BRANCH  22  24
ATOM     23  C   UNL     1       2.653   8.077  17.832  0.00  0.00    +0.000 C 
ATOM     24  C   UNL     1       1.839   9.347  17.927  0.00  0.00    +0.000 C 
ENDBRANCH  22  24
ENDBRANCH   1  22
BRANCH   5  25
ATOM     25  O   UNL     1      -1.854  12.401  21.636  0.00  0.00    +0.000 OA
BRANCH  25  26
ATOM     26  C   UNL     1      -1.232  13.657  21.893  0.00  0.00    +0.000 C 
ATOM     27  C   UNL     1      -1.187  13.898  23.392  0.00  0.00    +0.000 C 
ENDBRANCH  25  26
ENDBRANCH   5  25
BRANCH   9  28
ATOM     28  C   UNL     1      -6.134  12.987  22.214  0.00  0.00    +0.000 C 
BRANCH  28  29
ATOM     29  O   UNL     1      -6.990  11.851  22.341  0.00  0.00    +0.000 OA
ATOM     30  H   UNL     1      -6.758  11.456  23.202  0.00  0.00    +0.000 HD
ENDBRANCH  28  29
ENDBRANCH   9  28
TORSDOF 9
ENDMDL
MODEL 2
REMARK VINA RESULT:      -5.6      1.789      3.690
REMARK  Name = 
REMARK  12 active torsions:
REMARK  status: ('A' for Active; 'I' for Inactive)
REMARK    1  A    between atoms: C_1  and  C_2
REMARK    2  A    between atoms: C_2  and  O_3
REMARK    3  A    between atoms: O_3  and  C_4
REMARK    4  A    between atoms: C_8  and  O_9
REMARK    5  A    between atoms: O_9  and  C_10
REMARK    6  A    between atoms: C_10  and  C_11
REMARK    7  A    between atoms: C_12  and  O_13
REMARK    8  A    between atoms: O_13  and  C_14
REMARK    9  A    between atoms: C_17  and  C_18
REMARK   10  A    between atoms: C_18  and  O_19
REMARK   11  A    between atoms: C_20  and  O_21
REMARK   12  A    between atoms: C_22  and  O_23
REMARK                            x       y       z     vdW  Elec       q    Type
REMARK                         _______ _______ _______ _____ _____    ______ ____
ROOT
ATOM      1  C   UNL     1      -2.637  10.985  17.622  0.00  0.00    +0.000 A 
ATOM      2  C   UNL     1      -4.023  11.083  17.752  0.00  0.00    +0.000 A 
ATOM      3  C   UNL     1      -4.611  11.774  18.801  0.00  0.00    +0.000 A 
ATOM      4  C   UNL     1      -3.818  12.387  19.788  0.00  0.00    +0.000 A 
ATOM      5  C   UNL     1      -2.407  12.386  19.624  0.00  0.00    +0.000 A 
ATOM      6  C   UNL     1      -1.811  11.663  18.545  0.00  0.00    +0.000 A 
ATOM      7  C   UNL     1      -4.551  13.056  20.939  0.00  0.00    +0.000 C 
ATOM      8  O   UNL     1      -3.841  12.960  22.176  0.00  0.00    +0.000 OA
ATOM      9  C   UNL     1      -4.507  13.643  23.254  0.00  0.00    +0.000 C 
ATOM     10  C   UNL     1      -5.870  13.000  23.531  0.00  0.00    +0.000 C 
ATOM     11  C   UNL     1      -6.705  12.955  22.244  0.00  0.00    +0.000 C 
ATOM     12  C   UNL     1      -5.894  12.331  21.106  0.00  0.00    +0.000 C 
ATOM     13  O   UNL     1      -6.661  12.403  19.897  0.00  0.00    +0.000 OA
ATOM     14  C   UNL     1      -6.101  11.862  18.794  0.00  0.00    +0.000 C 
ATOM     15  O   UNL     1      -6.767  11.502  17.832  0.00  0.00    +0.000 OA
ENDROOT
BRANCH   6  16
ATOM     16  O   UNL     1      -0.439  11.679  18.505  0.00  0.00    +0.000 OA
ATOM     17  C   UNL     1       0.341  10.703  19.173  0.00  0.00    +0.000 C 
ENDBRANCH   6  16
BRANCH  10  18
ATOM     18  O   UNL     1      -6.560  13.695  24.570  0.00  0.00    +0.000 OA
ATOM     19  H   UNL     1      -6.005  14.431  24.880  0.00  0.00    +0.000 HD
ENDBRANCH  10  18
BRANCH  11  20
ATOM     20  O   UNL     1      -7.917  12.219  22.466  0.00  0.00    +0.000 OA
ATOM     21  H   UNL     1      -8.397  12.614  23.215  0.00  0.00    +0.000 HD
ENDBRANCH  11  20
BRANCH   1  22
ATOM     22  O   UNL     1      -2.074  10.257  16.602  0.00  0.00    +0.000 OA
BRANCH  22  24
ATOM     23  C   UNL     1      -3.069  10.372  14.419  0.00  0.00    +0.000 C 
ATOM     24  C   UNL     1      -2.969   9.589  15.708  0.00  0.00    +0.000 C 
ENDBRANCH  22  24
ENDBRANCH   1  22
BRANCH   5  25
ATOM     25  O   UNL     1      -1.748  13.145  20.570  0.00  0.00    +0.000 OA
BRANCH  25  26
ATOM     26  C   UNL     1      -1.256  14.442  20.240  0.00  0.00    +0.000 C 
ATOM     27  C   UNL     1      -1.005  15.224  21.518  0.00  0.00    +0.000 C 
ENDBRANCH  25  26
ENDBRANCH   5  25
BRANCH   9  28
ATOM     28  C   UNL     1      -3.606  13.554  24.492  0.00  0.00    +0.000 C 
BRANCH  28  29
ATOM     29  O   UNL     1      -3.791  14.715  25.301  0.00  0.00    +0.000 OA
ATOM     30  H   UNL     1      -4.753  14.760  25.463  0.00  0.00    +0.000 HD
ENDBRANCH  28  29
ENDBRANCH   9  28
TORSDOF 9
ENDMDL
MODEL 3
REMARK VINA RESULT:      -5.6      1.300      1.401
REMARK  Name = 
REMARK  12 active torsions:
REMARK  status: ('A' for Active; 'I' for Inactive)
REMARK    1  A    between atoms: C_1  and  C_2
REMARK    2  A    between atoms: C_2  and  O_3
REMARK    3  A    between atoms: O_3  and  C_4
REMARK    4  A    between atoms: C_8  and  O_9
REMARK    5  A    between atoms: O_9  and  C_10
REMARK    6  A    between atoms: C_10  and  C_11
REMARK    7  A    between atoms: C_12  and  O_13
REMARK    8  A    between atoms: O_13  and  C_14
REMARK    9  A    between atoms: C_17  and  C_18
REMARK   10  A    between atoms: C_18  and  O_19
REMARK   11  A    between atoms: C_20  and  O_21
REMARK   12  A    between atoms: C_22  and  O_23
REMARK                            x       y       z     vdW  Elec       q    Type
REMARK                         _______ _______ _______ _____ _____    ______ ____
ROOT
ATOM      1  C   UNL     1       0.204  10.602  18.628  0.00  0.00    +0.000 A 
ATOM      2  C   UNL     1      -0.880  10.240  17.827  0.00  0.00    +0.000 A 
ATOM      3  C   UNL     1      -2.141  10.787  18.013  0.00  0.00    +0.000 A 
ATOM      4  C   UNL     1      -2.371  11.721  19.040  0.00  0.00    +0.000 A 
ATOM      5  C   UNL     1      -1.264  12.180  19.802  0.00  0.00    +0.000 A 
ATOM      6  C   UNL     1       0.028  11.602  19.609  0.00  0.00    +0.000 A 
ATOM      7  C   UNL     1      -3.799  12.209  19.215  0.00  0.00    +0.000 C 
ATOM      8  O   UNL     1      -4.128  12.474  20.581  0.00  0.00    +0.000 OA
ATOM      9  C   UNL     1      -5.463  12.990  20.742  0.00  0.00    +0.000 C 
ATOM     10  C   UNL     1      -6.494  11.955  20.281  0.00  0.00    +0.000 C 
ATOM     11  C   UNL     1      -6.193  11.511  18.843  0.00  0.00    +0.000 C 
ATOM     12  C   UNL     1      -4.726  11.093  18.713  0.00  0.00    +0.000 C 
ATOM     13  O   UNL     1      -4.452  10.789  17.339  0.00  0.00    +0.000 OA
ATOM     14  C   UNL     1      -3.202  10.367  17.052  0.00  0.00    +0.000 C 
ATOM     15  O   UNL     1      -2.946   9.716  16.048  0.00  0.00    +0.000 OA
ENDROOT
BRANCH   6  16
ATOM     16  O   UNL     1       1.020  12.075  20.432  0.00  0.00    +0.000 OA
ATOM     17  C   UNL     1       1.962  13.037  19.994  0.00  0.00    +0.000 C 
ENDBRANCH   6  16
BRANCH  10  18
ATOM     18  O   UNL     1      -7.820  12.471  20.395  0.00  0.00    +0.000 OA
ATOM     19  H   UNL     1      -8.449  11.728  20.390  0.00  0.00    +0.000 HD
ENDBRANCH  10  18
BRANCH  11  20
ATOM     20  O   UNL     1      -7.063  10.434  18.466  0.00  0.00    +0.000 OA
ATOM     21  H   UNL     1      -7.094  10.374  17.496  0.00  0.00    +0.000 HD
ENDBRANCH  11  20
BRANCH   1  22
ATOM     22  O   UNL     1       1.434  10.015  18.458  0.00  0.00    +0.000 OA
BRANCH  22  24
ATOM     23  C   UNL     1       2.761   8.065  17.998  0.00  0.00    +0.000 C 
ATOM     24  C   UNL     1       1.478   8.806  17.693  0.00  0.00    +0.000 C 
ENDBRANCH  22  24
ENDBRANCH   1  22
BRANCH   5  25
ATOM     25  O   UNL     1      -1.588  13.202  20.672  0.00  0.00    +0.000 OA
BRANCH  25  26
ATOM     26  C   UNL     1      -1.331  14.559  20.319  0.00  0.00    +0.000 C 
ATOM     27  C   UNL     1      -2.389  15.450  20.946  0.00  0.00    +0.000 C 
ENDBRANCH  25  26
ENDBRANCH   5  25
BRANCH   9  28
ATOM     28  C   UNL     1      -5.659  13.326  22.225  0.00  0.00    +0.000 C 
BRANCH  28  29
ATOM     29  O   UNL     1      -6.310  12.237  22.878  0.00  0.00    +0.000 OA
ATOM     30  H   UNL     1      -5.664  11.506  22.857  0.00  0.00    +0.000 HD
ENDBRANCH  28  29
ENDBRANCH   9  28
TORSDOF 9
ENDMDL
MODEL 4
REMARK VINA RESULT:      -5.4      1.275      1.414
REMARK  Name = 
REMARK  12 active torsions:
REMARK  status: ('A' for Active; 'I' for Inactive)
REMARK    1  A    between atoms: C_1  and  C_2
REMARK    2  A    between atoms: C_2  and  O_3
REMARK    3  A    between atoms: O_3  and  C_4
REMARK    4  A    between atoms: C_8  and  O_9
REMARK    5  A    between atoms: O_9  and  C_10
REMARK    6  A    between atoms: C_10  and  C_11
REMARK    7  A    between atoms: C_12  and  O_13
REMARK    8  A    between atoms: O_13  and  C_14
REMARK    9  A    between atoms: C_17  and  C_18
REMARK   10  A    between atoms: C_18  and  O_19
REMARK   11  A    between atoms: C_20  and  O_21
REMARK   12  A    between atoms: C_22  and  O_23
REMARK                            x       y       z     vdW  Elec       q    Type
REMARK                         _______ _______ _______ _____ _____    ______ ____
ROOT
ATOM      1  C   UNL     1      -0.122  11.151  18.817  0.00  0.00    +0.000 A 
ATOM      2  C   UNL     1      -1.274  10.991  18.047  0.00  0.00    +0.000 A 
ATOM      3  C   UNL     1      -2.494  11.521  18.439  0.00  0.00    +0.000 A 
ATOM      4  C   UNL     1      -2.612  12.227  19.651  0.00  0.00    +0.000 A 
ATOM      5  C   UNL     1      -1.435  12.488  20.402  0.00  0.00    +0.000 A 
ATOM      6  C   UNL     1      -0.185  11.929  19.993  0.00  0.00    +0.000 A 
ATOM      7  C   UNL     1      -4.002  12.705  20.034  0.00  0.00    +0.000 C 
ATOM      8  O   UNL     1      -4.221  12.688  21.447  0.00  0.00    +0.000 OA
ATOM      9  C   UNL     1      -5.518  13.194  21.814  0.00  0.00    +0.000 C 
ATOM     10  C   UNL     1      -6.622  12.305  21.234  0.00  0.00    +0.000 C 
ATOM     11  C   UNL     1      -6.443  12.162  19.716  0.00  0.00    +0.000 C 
ATOM     12  C   UNL     1      -5.008  11.742  19.388  0.00  0.00    +0.000 C 
ATOM     13  O   UNL     1      -4.846  11.723  17.964  0.00  0.00    +0.000 OA
ATOM     14  C   UNL     1      -3.639  11.338  17.499  0.00  0.00    +0.000 C 
ATOM     15  O   UNL     1      -3.482  10.903  16.365  0.00  0.00    +0.000 OA
ENDROOT
BRANCH   6  16
ATOM     16  O   UNL     1       0.882  12.195  20.816  0.00  0.00    +0.000 OA
ATOM     17  C   UNL     1       1.771  13.269  20.567  0.00  0.00    +0.000 C 
ENDBRANCH   6  16
BRANCH  10  18
ATOM     18  O   UNL     1      -7.914  12.820  21.555  0.00  0.00    +0.000 OA
ATOM     19  H   UNL     1      -8.346  12.218  22.186  0.00  0.00    +0.000 HD
ENDBRANCH  10  18
BRANCH  11  20
ATOM     20  O   UNL     1      -7.382  11.210  19.196  0.00  0.00    +0.000 OA
ATOM     21  H   UNL     1      -7.323  11.202  18.224  0.00  0.00    +0.000 HD
ENDBRANCH  11  20
BRANCH   1  22
ATOM     22  O   UNL     1       1.068  10.579  18.434  0.00  0.00    +0.000 OA
BRANCH  22  24
ATOM     23  C   UNL     1       2.106   8.509  17.796  0.00  0.00    +0.000 C 
ATOM     24  C   UNL     1       1.310   9.235  18.858  0.00  0.00    +0.000 C 
ENDBRANCH  22  24
ENDBRANCH   1  22
BRANCH   5  25
ATOM     25  O   UNL     1      -1.653  13.314  21.486  0.00  0.00    +0.000 OA
BRANCH  25  26
ATOM     26  C   UNL     1      -1.316  12.882  22.802  0.00  0.00    +0.000 C 
ATOM     27  C   UNL     1      -1.373  14.068  23.750  0.00  0.00    +0.000 C 
ENDBRANCH  25  26
ENDBRANCH   5  25
BRANCH   9  28
ATOM     28  C   UNL     1      -5.593  13.220  23.346  0.00  0.00    +0.000 C 
BRANCH  28  29
ATOM     29  O   UNL     1      -6.283  12.059  23.808  0.00  0.00    +0.000 OA
ATOM     30  H   UNL     1      -5.585  11.471  24.154  0.00  0.00    +0.000 HD
ENDBRANCH  28  29
ENDBRANCH   9  28
TORSDOF 9
ENDMDL
MODEL 5
REMARK VINA RESULT:      -5.4      2.074      4.656
REMARK  Name = 
REMARK  12 active torsions:
REMARK  status: ('A' for Active; 'I' for Inactive)
REMARK    1  A    between atoms: C_1  and  C_2
REMARK    2  A    between atoms: C_2  and  O_3
REMARK    3  A    between atoms: O_3  and  C_4
REMARK    4  A    between atoms: C_8  and  O_9
REMARK    5  A    between atoms: O_9  and  C_10
REMARK    6  A    between atoms: C_10  and  C_11
REMARK    7  A    between atoms: C_12  and  O_13
REMARK    8  A    between atoms: O_13  and  C_14
REMARK    9  A    between atoms: C_17  and  C_18
REMARK   10  A    between atoms: C_18  and  O_19
REMARK   11  A    between atoms: C_20  and  O_21
REMARK   12  A    between atoms: C_22  and  O_23
REMARK                            x       y       z     vdW  Elec       q    Type
REMARK                         _______ _______ _______ _____ _____    ______ ____
ROOT
ATOM      1  C   UNL     1      -0.719  11.296  19.250  0.00  0.00    +0.000 A 
ATOM      2  C   UNL     1      -0.628  11.282  20.642  0.00  0.00    +0.000 A 
ATOM      3  C   UNL     1      -1.663  11.733  21.447  0.00  0.00    +0.000 A 
ATOM      4  C   UNL     1      -2.843  12.244  20.875  0.00  0.00    +0.000 A 
ATOM      5  C   UNL     1      -3.000  12.177  19.465  0.00  0.00    +0.000 A 
ATOM      6  C   UNL     1      -1.922  11.719  18.645  0.00  0.00    +0.000 A 
ATOM      7  C   UNL     1      -3.891  12.784  21.833  0.00  0.00    +0.000 C 
ATOM      8  O   UNL     1      -4.611  13.895  21.294  0.00  0.00    +0.000 OA
ATOM      9  C   UNL     1      -5.642  14.371  22.179  0.00  0.00    +0.000 C 
ATOM     10  C   UNL     1      -5.029  14.894  23.482  0.00  0.00    +0.000 C 
ATOM     11  C   UNL     1      -4.143  13.815  24.120  0.00  0.00    +0.000 C 
ATOM     12  C   UNL     1      -3.153  13.263  23.092  0.00  0.00    +0.000 C 
ATOM     13  O   UNL     1      -2.418  12.187  23.688  0.00  0.00    +0.000 OA
ATOM     14  C   UNL     1      -1.471  11.605  22.921  0.00  0.00    +0.000 C 
ATOM     15  O   UNL     1      -0.535  10.979  23.401  0.00  0.00    +0.000 OA
ENDROOT
BRANCH   6  16
ATOM     16  O   UNL     1      -2.153  11.744  17.292  0.00  0.00    +0.000 OA
ATOM     17  C   UNL     1      -2.418  10.564  16.556  0.00  0.00    +0.000 C 
ENDBRANCH   6  16
BRANCH  10  18
ATOM     18  O   UNL     1      -6.044  15.330  24.385  0.00  0.00    +0.000 OA
ATOM     19  H   UNL     1      -6.799  14.719  24.330  0.00  0.00    +0.000 HD
ENDBRANCH  10  18
BRANCH  11  20
ATOM     20  O   UNL     1      -3.449  14.353  25.255  0.00  0.00    +0.000 OA
ATOM     21  H   UNL     1      -2.544  14.593  24.990  0.00  0.00    +0.000 HD
ENDBRANCH  11  20
BRANCH   1  22
ATOM     22  O   UNL     1       0.336  10.888  18.470  0.00  0.00    +0.000 OA
BRANCH  22  24
ATOM     23  C   UNL     1       1.857   9.147  17.815  0.00  0.00    +0.000 C 
ATOM     24  C   UNL     1       1.134   9.810  18.967  0.00  0.00    +0.000 C 
ENDBRANCH  22  24
ENDBRANCH   1  22
BRANCH   5  25
ATOM     25  O   UNL     1      -4.253  12.566  19.037  0.00  0.00    +0.000 OA
BRANCH  25  26
ATOM     26  C   UNL     1      -5.231  11.589  18.688  0.00  0.00    +0.000 C 
ATOM     27  C   UNL     1      -5.842  11.948  17.344  0.00  0.00    +0.000 C 
ENDBRANCH  25  26
ENDBRANCH   5  25
BRANCH   9  28
ATOM     28  C   UNL     1      -6.402  15.488  21.453  0.00  0.00    +0.000 C 
BRANCH  28  29
ATOM     29  O   UNL     1      -7.734  15.566  21.960  0.00  0.00    +0.000 OA
ATOM     30  H   UNL     1      -8.308  15.369  21.196  0.00  0.00    +0.000 HD
ENDBRANCH  28  29
ENDBRANCH   9  28
TORSDOF 9
ENDMDL
MODEL 6
REMARK VINA RESULT:      -5.4      2.200      5.468
REMARK  Name = 
REMARK  12 active torsions:
REMARK  status: ('A' for Active; 'I' for Inactive)
REMARK    1  A    between atoms: C_1  and  C_2
REMARK    2  A    between atoms: C_2  and  O_3
REMARK    3  A    between atoms: O_3  and  C_4
REMARK    4  A    between atoms: C_8  and  O_9
REMARK    5  A    between atoms: O_9  and  C_10
REMARK    6  A    between atoms: C_10  and  C_11
REMARK    7  A    between atoms: C_12  and  O_13
REMARK    8  A    between atoms: O_13  and  C_14
REMARK    9  A    between atoms: C_17  and  C_18
REMARK   10  A    between atoms: C_18  and  O_19
REMARK   11  A    between atoms: C_20  and  O_21
REMARK   12  A    between atoms: C_22  and  O_23
REMARK                            x       y       z     vdW  Elec       q    Type
REMARK                         _______ _______ _______ _____ _____    ______ ____
ROOT
ATOM      1  C   UNL     1      -3.725  11.718  17.736  0.00  0.00    +0.000 A 
ATOM      2  C   UNL     1      -2.595  11.695  18.554  0.00  0.00    +0.000 A 
ATOM      3  C   UNL     1      -2.663  12.020  19.901  0.00  0.00    +0.000 A 
ATOM      4  C   UNL     1      -3.883  12.407  20.484  0.00  0.00    +0.000 A 
ATOM      5  C   UNL     1      -5.064  12.342  19.696  0.00  0.00    +0.000 A 
ATOM      6  C   UNL     1      -4.982  12.015  18.308  0.00  0.00    +0.000 A 
ATOM      7  C   UNL     1      -3.846  12.817  21.946  0.00  0.00    +0.000 C 
ATOM      8  O   UNL     1      -4.785  13.850  22.254  0.00  0.00    +0.000 OA
ATOM      9  C   UNL     1      -4.789  14.199  23.651  0.00  0.00    +0.000 C 
ATOM     10  C   UNL     1      -3.428  14.769  24.063  0.00  0.00    +0.000 C 
ATOM     11  C   UNL     1      -2.309  13.785  23.695  0.00  0.00    +0.000 C 
ATOM     12  C   UNL     1      -2.437  13.358  22.231  0.00  0.00    +0.000 C 
ATOM     13  O   UNL     1      -1.446  12.360  21.951  0.00  0.00    +0.000 OA
ATOM     14  C   UNL     1      -1.399  11.896  20.685  0.00  0.00    +0.000 C 
ATOM     15  O   UNL     1      -0.396  11.369  20.219  0.00  0.00    +0.000 OA
ENDROOT
BRANCH   6  16
ATOM     16  O   UNL     1      -6.171  12.032  17.622  0.00  0.00    +0.000 OA
ATOM     17  C   UNL     1      -6.670  13.211  17.017  0.00  0.00    +0.000 C 
ENDBRANCH   6  16
BRANCH  10  18
ATOM     18  O   UNL     1      -3.405  15.080  25.455  0.00  0.00    +0.000 OA
ATOM     19  H   UNL     1      -4.147  14.627  25.892  0.00  0.00    +0.000 HD
ENDBRANCH  10  18
BRANCH  11  20
ATOM     20  O   UNL     1      -1.027  14.381  23.940  0.00  0.00    +0.000 OA
ATOM     21  H   UNL     1      -0.367  13.677  24.065  0.00  0.00    +0.000 HD
ENDBRANCH  11  20
BRANCH   1  22
ATOM     22  O   UNL     1      -3.630  11.437  16.394  0.00  0.00    +0.000 OA
BRANCH  22  24
ATOM     23  C   UNL     1      -2.964  10.044  14.554  0.00  0.00    +0.000 C 
ATOM     24  C   UNL     1      -2.742  10.382  16.011  0.00  0.00    +0.000 C 
ENDBRANCH  22  24
ENDBRANCH   1  22
BRANCH   5  25
ATOM     25  O   UNL     1      -6.213  12.597  20.416  0.00  0.00    +0.000 OA
BRANCH  25  26
ATOM     26  C   UNL     1      -7.092  11.533  20.773  0.00  0.00    +0.000 C 
ATOM     27  C   UNL     1      -7.783  11.871  22.083  0.00  0.00    +0.000 C 
ENDBRANCH  25  26
ENDBRANCH   5  25
BRANCH   9  28
ATOM     28  C   UNL     1      -5.898  15.236  23.870  0.00  0.00    +0.000 C 
BRANCH  28  29
ATOM     29  O   UNL     1      -5.320  16.537  23.978  0.00  0.00    +0.000 OA
ATOM     30  H   UNL     1      -5.460  16.948  23.104  0.00  0.00    +0.000 HD
ENDBRANCH  28  29
ENDBRANCH   9  28
TORSDOF 9
ENDMDL
MODEL 7
REMARK VINA RESULT:      -5.4      1.956      5.561
REMARK  Name = 
REMARK  12 active torsions:
REMARK  status: ('A' for Active; 'I' for Inactive)
REMARK    1  A    between atoms: C_1  and  C_2
REMARK    2  A    between atoms: C_2  and  O_3
REMARK    3  A    between atoms: O_3  and  C_4
REMARK    4  A    between atoms: C_8  and  O_9
REMARK    5  A    between atoms: O_9  and  C_10
REMARK    6  A    between atoms: C_10  and  C_11
REMARK    7  A    between atoms: C_12  and  O_13
REMARK    8  A    between atoms: O_13  and  C_14
REMARK    9  A    between atoms: C_17  and  C_18
REMARK   10  A    between atoms: C_18  and  O_19
REMARK   11  A    between atoms: C_20  and  O_21
REMARK   12  A    between atoms: C_22  and  O_23
REMARK                            x       y       z     vdW  Elec       q    Type
REMARK                         _______ _______ _______ _____ _____    ______ ____
ROOT
ATOM      1  C   UNL     1      -3.781  11.323  17.167  0.00  0.00    +0.000 A 
ATOM      2  C   UNL     1      -2.490  11.124  17.657  0.00  0.00    +0.000 A 
ATOM      3  C   UNL     1      -2.120  11.537  18.928  0.00  0.00    +0.000 A 
ATOM      4  C   UNL     1      -3.041  12.195  19.764  0.00  0.00    +0.000 A 
ATOM      5  C   UNL     1      -4.387  12.320  19.326  0.00  0.00    +0.000 A 
ATOM      6  C   UNL     1      -4.755  11.900  18.011  0.00  0.00    +0.000 A 
ATOM      7  C   UNL     1      -2.525  12.677  21.108  0.00  0.00    +0.000 C 
ATOM      8  O   UNL     1      -3.144  13.894  21.533  0.00  0.00    +0.000 OA
ATOM      9  C   UNL     1      -2.696  14.322  22.833  0.00  0.00    +0.000 C 
ATOM     10  C   UNL     1      -1.195  14.631  22.805  0.00  0.00    +0.000 C 
ATOM     11  C   UNL     1      -0.415  13.421  22.271  0.00  0.00    +0.000 C 
ATOM     12  C   UNL     1      -1.020  12.941  20.950  0.00  0.00    +0.000 C 
ATOM     13  O   UNL     1      -0.340  11.750  20.535  0.00  0.00    +0.000 OA
ATOM     14  C   UNL     1      -0.730  11.209  19.362  0.00  0.00    +0.000 C 
ATOM     15  O   UNL     1      -0.007  10.465  18.711  0.00  0.00    +0.000 OA
ENDROOT
BRANCH   6  16
ATOM     16  O   UNL     1      -6.066  12.113  17.664  0.00  0.00    +0.000 OA
ATOM     17  C   UNL     1      -6.493  13.317  17.051  0.00  0.00    +0.000 C 
ENDBRANCH   6  16
BRANCH  10  18
ATOM     18  O   UNL     1      -0.730  15.015  24.099  0.00  0.00    +0.000 OA
ATOM     19  H   UNL     1      -1.493  15.096  24.698  0.00  0.00    +0.000 HD
ENDBRANCH  10  18
BRANCH  11  20
ATOM     20  O   UNL     1       0.968  13.762  22.101  0.00  0.00    +0.000 OA
ATOM     21  H   UNL     1       1.111  14.068  21.189  0.00  0.00    +0.000 HD
ENDBRANCH  11  20
BRANCH   1  22
ATOM     22  O   UNL     1      -4.116  10.948  15.888  0.00  0.00    +0.000 OA
BRANCH  22  24
ATOM     23  C   UNL     1      -3.630   9.955  13.754  0.00  0.00    +0.000 C 
ATOM     24  C   UNL     1      -3.052  10.499  15.042  0.00  0.00    +0.000 C 
ENDBRANCH  22  24
ENDBRANCH   1  22
BRANCH   5  25
ATOM     25  O   UNL     1      -5.226  12.844  20.288  0.00  0.00    +0.000 OA
BRANCH  25  26
ATOM     26  C   UNL     1      -6.180  12.011  20.944  0.00  0.00    +0.000 C 
ATOM     27  C   UNL     1      -7.556  12.647  20.840  0.00  0.00    +0.000 C 
ENDBRANCH  25  26
ENDBRANCH   5  25
BRANCH   9  28
ATOM     28  C   UNL     1      -3.498  15.571  23.216  0.00  0.00    +0.000 C 
BRANCH  28  29
ATOM     29  O   UNL     1      -2.761  16.739  22.858  0.00  0.00    +0.000 OA
ATOM     30  H   UNL     1      -3.347  17.232  22.252  0.00  0.00    +0.000 HD
ENDBRANCH  28  29
ENDBRANCH   9  28
TORSDOF 9
ENDMDL
MODEL 8
REMARK VINA RESULT:      -5.3      2.279      6.208
REMARK  Name = 
REMARK  12 active torsions:
REMARK  status: ('A' for Active; 'I' for Inactive)
REMARK    1  A    between atoms: C_1  and  C_2
REMARK    2  A    between atoms: C_2  and  O_3
REMARK    3  A    between atoms: O_3  and  C_4
REMARK    4  A    between atoms: C_8  and  O_9
REMARK    5  A    between atoms: O_9  and  C_10
REMARK    6  A    between atoms: C_10  and  C_11
REMARK    7  A    between atoms: C_12  and  O_13
REMARK    8  A    between atoms: O_13  and  C_14
REMARK    9  A    between atoms: C_17  and  C_18
REMARK   10  A    between atoms: C_18  and  O_19
REMARK   11  A    between atoms: C_20  and  O_21
REMARK   12  A    between atoms: C_22  and  O_23
REMARK                            x       y       z     vdW  Elec       q    Type
REMARK                         _______ _______ _______ _____ _____    ______ ____
ROOT
ATOM      1  C   UNL     1      -4.883  12.030  19.055  0.00  0.00    +0.000 A 
ATOM      2  C   UNL     1      -3.877  11.440  18.288  0.00  0.00    +0.000 A 
ATOM      3  C   UNL     1      -2.539  11.534  18.642  0.00  0.00    +0.000 A 
ATOM      4  C   UNL     1      -2.150  12.252  19.788  0.00  0.00    +0.000 A 
ATOM      5  C   UNL     1      -3.161  12.775  20.638  0.00  0.00    +0.000 A 
ATOM      6  C   UNL     1      -4.536  12.682  20.259  0.00  0.00    +0.000 A 
ATOM      7  C   UNL     1      -0.659  12.363  20.054  0.00  0.00    +0.000 C 
ATOM      8  O   UNL     1      -0.297  13.608  20.658  0.00  0.00    +0.000 OA
ATOM      9  C   UNL     1       1.108  13.691  20.962  0.00  0.00    +0.000 C 
ATOM     10  C   UNL     1       1.937  13.621  19.675  0.00  0.00    +0.000 C 
ATOM     11  C   UNL     1       1.571  12.362  18.877  0.00  0.00    +0.000 C 
ATOM     12  C   UNL     1       0.054  12.270  18.697  0.00  0.00    +0.000 C 
ATOM     13  O   UNL     1      -0.261  11.033  18.045  0.00  0.00    +0.000 OA
ATOM     14  C   UNL     1      -1.564  10.807  17.777  0.00  0.00    +0.000 C 
ATOM     15  O   UNL     1      -1.927  10.025  16.907  0.00  0.00    +0.000 OA
ENDROOT
BRANCH   6  16
ATOM     16  O   UNL     1      -5.431  13.266  21.120  0.00  0.00    +0.000 OA
ATOM     17  C   UNL     1      -5.831  14.617  20.981  0.00  0.00    +0.000 C 
ENDBRANCH   6  16
BRANCH  10  18
ATOM     18  O   UNL     1       3.334  13.659  19.967  0.00  0.00    +0.000 OA
ATOM     19  H   UNL     1       3.826  13.776  19.135  0.00  0.00    +0.000 HD
ENDBRANCH  10  18
BRANCH  11  20
ATOM     20  O   UNL     1       2.233  12.374  17.604  0.00  0.00    +0.000 OA
ATOM     21  H   UNL     1       2.420  13.295  17.351  0.00  0.00    +0.000 HD
ENDBRANCH  11  20
BRANCH   1  22
ATOM     22  O   UNL     1      -6.198  11.965  18.663  0.00  0.00    +0.000 OA
BRANCH  22  24
ATOM     23  C   UNL     1      -7.226  10.247  19.990  0.00  0.00    +0.000 C 
ATOM     24  C   UNL     1      -6.796  10.667  18.602  0.00  0.00    +0.000 C 
ENDBRANCH  22  24
ENDBRANCH   1  22
BRANCH   5  25
ATOM     25  O   UNL     1      -2.663  13.324  21.802  0.00  0.00    +0.000 OA
BRANCH  25  26
ATOM     26  C   UNL     1      -2.916  12.699  23.059  0.00  0.00    +0.000 C 
ATOM     27  C   UNL     1      -1.910  11.581  23.275  0.00  0.00    +0.000 C 
ENDBRANCH  25  26
ENDBRANCH   5  25
BRANCH   9  28
ATOM     28  C   UNL     1       1.350  15.018  21.690  0.00  0.00    +0.000 C 
BRANCH  28  29
ATOM     29  O   UNL     1       2.515  14.907  22.508  0.00  0.00    +0.000 OA
ATOM     30  H   UNL     1       3.144  15.558  22.143  0.00  0.00    +0.000 HD
ENDBRANCH  28  29
ENDBRANCH   9  28
TORSDOF 9
ENDMDL
MODEL 9
REMARK VINA RESULT:      -5.3      2.140      4.917
REMARK  Name = 
REMARK  12 active torsions:
REMARK  status: ('A' for Active; 'I' for Inactive)
REMARK    1  A    between atoms: C_1  and  C_2
REMARK    2  A    between atoms: C_2  and  O_3
REMARK    3  A    between atoms: O_3  and  C_4
REMARK    4  A    between atoms: C_8  and  O_9
REMARK    5  A    between atoms: O_9  and  C_10
REMARK    6  A    between atoms: C_10  and  C_11
REMARK    7  A    between atoms: C_12  and  O_13
REMARK    8  A    between atoms: O_13  and  C_14
REMARK    9  A    between atoms: C_17  and  C_18
REMARK   10  A    between atoms: C_18  and  O_19
REMARK   11  A    between atoms: C_20  and  O_21
REMARK   12  A    between atoms: C_22  and  O_23
REMARK                            x       y       z     vdW  Elec       q    Type
REMARK                         _______ _______ _______ _____ _____    ______ ____
ROOT
ATOM      1  C   UNL     1       0.652  13.738  21.537  0.00  0.00    +0.000 A 
ATOM      2  C   UNL     1      -0.633  13.828  22.072  0.00  0.00    +0.000 A 
ATOM      3  C   UNL     1      -1.716  13.192  21.484  0.00  0.00    +0.000 A 
ATOM      4  C   UNL     1      -1.552  12.444  20.303  0.00  0.00    +0.000 A 
ATOM      5  C   UNL     1      -0.239  12.255  19.796  0.00  0.00    +0.000 A 
ATOM      6  C   UNL     1       0.868  12.923  20.404  0.00  0.00    +0.000 A 
ATOM      7  C   UNL     1      -2.806  11.846  19.690  0.00  0.00    +0.000 C 
ATOM      8  O   UNL     1      -2.756  11.803  18.262  0.00  0.00    +0.000 OA
ATOM      9  C   UNL     1      -3.921  11.185  17.683  0.00  0.00    +0.000 C 
ATOM     10  C   UNL     1      -5.176  12.000  18.009  0.00  0.00    +0.000 C 
ATOM     11  C   UNL     1      -5.297  12.201  19.526  0.00  0.00    +0.000 C 
ATOM     12  C   UNL     1      -3.984  12.744  20.096  0.00  0.00    +0.000 C 
ATOM     13  O   UNL     1      -4.094  12.817  21.524  0.00  0.00    +0.000 OA
ATOM     14  C   UNL     1      -3.027  13.311  22.187  0.00  0.00    +0.000 C 
ATOM     15  O   UNL     1      -3.119  13.790  23.310  0.00  0.00    +0.000 OA
ENDROOT
BRANCH   6  16
ATOM     16  O   UNL     1       2.087  12.719  19.806  0.00  0.00    +0.000 OA
ATOM     17  C   UNL     1       2.539  13.524  18.732  0.00  0.00    +0.000 C 
ENDBRANCH   6  16
BRANCH  10  18
ATOM     18  O   UNL     1      -6.343  11.375  17.477  0.00  0.00    +0.000 OA
ATOM     19  H   UNL     1      -6.535  10.572  17.994  0.00  0.00    +0.000 HD
ENDBRANCH  10  18
BRANCH  11  20
ATOM     20  O   UNL     1      -6.384  13.091  19.822  0.00  0.00    +0.000 OA
ATOM     21  H   UNL     1      -6.729  13.459  18.989  0.00  0.00    +0.000 HD
ENDBRANCH  11  20
BRANCH   1  22
ATOM     22  O   UNL     1       1.703  14.413  22.108  0.00  0.00    +0.000 OA
BRANCH  22  24
ATOM     23  C   UNL     1       3.171  16.156  21.347  0.00  0.00    +0.000 C 
ATOM     24  C   UNL     1       1.787  15.819  21.857  0.00  0.00    +0.000 C 
ENDBRANCH  22  24
ENDBRANCH   1  22
BRANCH   5  25
ATOM     25  O   UNL     1      -0.188  11.382  18.727  0.00  0.00    +0.000 OA
BRANCH  25  26
ATOM     26  C   UNL     1       0.217  10.029  18.920  0.00  0.00    +0.000 C 
ATOM     27  C   UNL     1       1.412   9.731  18.030  0.00  0.00    +0.000 C 
ENDBRANCH  25  26
ENDBRANCH   5  25
BRANCH   9  28
ATOM     28  C   UNL     1      -3.705  11.109  16.167  0.00  0.00    +0.000 C 
BRANCH  28  29
ATOM     29  O   UNL     1      -2.364  11.489  15.857  0.00  0.00    +0.000 OA
ATOM     30  H   UNL     1      -2.438  12.049  15.061  0.00  0.00    +0.000 HD
ENDBRANCH  28  29
ENDBRANCH   9  28
TORSDOF 9
ENDMDL
