MODEL 1
REMARK VINA RESULT:      -7.4      0.000      0.000
REMARK  Name = 
REMARK  5 active torsions:
REMARK  status: ('A' for Active; 'I' for Inactive)
REMARK    1  A    between atoms: C_1  and  C_2
REMARK    2  A    between atoms: C_5  and  N_6
REMARK    3  A    between atoms: C_10  and  N_11
REMARK    4  A    between atoms: C_14  and  C_15
REMARK    5  A    between atoms: C_15  and  O_16
REMARK                            x       y       z     vdW  Elec       q    Type
REMARK                         _______ _______ _______ _____ _____    ______ ____
ROOT
ATOM      1  N   UNL     1       1.916   7.190  19.921  0.00  0.00    +0.000 N 
ATOM      2  C   UNL     1       1.580   5.972  20.653  0.00  0.00    +0.000 C 
ATOM      3  C   UNL     1       2.480   4.794  20.331  0.00  0.00    +0.000 C 
ATOM      4  C   UNL     1       2.525   4.604  18.830  0.00  0.00    +0.000 C 
ATOM      5  C   UNL     1       3.083   5.849  18.118  0.00  0.00    +0.000 C 
ATOM      6  C   UNL     1       2.337   7.134  18.588  0.00  0.00    +0.000 C 
ATOM      7  O   UNL     1       2.193   8.070  17.793  0.00  0.00    +0.000 OA
ENDROOT
BRANCH   1  12
ATOM      8  C   UNL     1      -0.435  12.015  21.982  0.00  0.00    +0.000 C 
ATOM      9  C   UNL     1       0.216  10.776  21.449  0.00  0.00    +0.000 A 
ATOM     10  C   UNL     1       0.436  10.626  20.079  0.00  0.00    +0.000 A 
ATOM     11  C   UNL     1       1.003   9.452  19.577  0.00  0.00    +0.000 A 
ATOM     12  C   UNL     1       1.393   8.417  20.437  0.00  0.00    +0.000 A 
ATOM     13  C   UNL     1       1.206   8.584  21.813  0.00  0.00    +0.000 A 
ATOM     14  C   UNL     1       0.607   9.747  22.315  0.00  0.00    +0.000 A 
ENDBRANCH   1  12
BRANCH   5  15
ATOM     15  N   UNL     1       4.581   6.006  18.240  0.00  0.00    +0.000 NA
ATOM     16  C   UNL     1       5.223   4.672  18.273  0.00  0.00    +0.000 C 
ATOM     17  C   UNL     1       6.753   4.737  18.268  0.00  0.00    +0.000 C 
ATOM     18  C   UNL     1       7.290   5.505  17.059  0.00  0.00    +0.000 C 
ATOM     19  C   UNL     1       6.638   6.885  17.057  0.00  0.00    +0.000 C 
ATOM     20  C   UNL     1       5.109   6.807  17.110  0.00  0.00    +0.000 C 
BRANCH  18  21
ATOM     21  C   UNL     1       7.066   4.766  15.732  0.00  0.00    +0.000 C 
BRANCH  21  22
ATOM     22  O   UNL     1       7.738   5.429  14.670  0.00  0.00    +0.000 OA
ATOM     23  H   UNL     1       7.609   4.896  13.862  0.00  0.00    +0.000 HD
ENDBRANCH  21  22
ENDBRANCH  18  21
ENDBRANCH   5  15
TORSDOF 4
ENDMDL
MODEL 2
REMARK VINA RESULT:      -7.4      3.417      7.598
REMARK  Name = 
REMARK  5 active torsions:
REMARK  status: ('A' for Active; 'I' for Inactive)
REMARK    1  A    between atoms: C_1  and  C_2
REMARK    2  A    between atoms: C_5  and  N_6
REMARK    3  A    between atoms: C_10  and  N_11
REMARK    4  A    between atoms: C_14  and  C_15
REMARK    5  A    between atoms: C_15  and  O_16
REMARK                            x       y       z     vdW  Elec       q    Type
REMARK                         _______ _______ _______ _____ _____    ______ ____
ROOT
ATOM      1  N   UNL     1       5.586   4.963  16.696  0.00  0.00    +0.000 N 
ATOM      2  C   UNL     1       6.368   4.280  17.722  0.00  0.00    +0.000 C 
ATOM      3  C   UNL     1       5.700   4.248  19.084  0.00  0.00    +0.000 C 
ATOM      4  C   UNL     1       5.298   5.656  19.468  0.00  0.00    +0.000 C 
ATOM      5  C   UNL     1       4.307   6.258  18.456  0.00  0.00    +0.000 C 
ATOM      6  C   UNL     1       4.847   6.111  17.002  0.00  0.00    +0.000 C 
ATOM      7  O   UNL     1       4.561   6.975  16.164  0.00  0.00    +0.000 OA
ENDROOT
BRANCH   1  12
ATOM      8  C   UNL     1       7.132   3.684  11.308  0.00  0.00    +0.000 C 
ATOM      9  C   UNL     1       6.710   4.053  12.697  0.00  0.00    +0.000 A 
ATOM     10  C   UNL     1       7.538   4.836  13.503  0.00  0.00    +0.000 A 
ATOM     11  C   UNL     1       7.164   5.143  14.814  0.00  0.00    +0.000 A 
ATOM     12  C   UNL     1       5.941   4.703  15.335  0.00  0.00    +0.000 A 
ATOM     13  C   UNL     1       5.096   3.949  14.514  0.00  0.00    +0.000 A 
ATOM     14  C   UNL     1       5.483   3.612  13.211  0.00  0.00    +0.000 A 
ENDBRANCH   1  12
BRANCH   5  15
ATOM     15  N   UNL     1       2.901   5.720  18.579  0.00  0.00    +0.000 NA
ATOM     16  C   UNL     1       2.726   4.563  17.671  0.00  0.00    +0.000 C 
ATOM     17  C   UNL     1       1.367   3.874  17.824  0.00  0.00    +0.000 C 
ATOM     18  C   UNL     1       1.118   3.408  19.259  0.00  0.00    +0.000 C 
ATOM     19  C   UNL     1       1.277   4.617  20.176  0.00  0.00    +0.000 C 
ATOM     20  C   UNL     1       2.620   5.326  19.981  0.00  0.00    +0.000 C 
BRANCH  18  21
ATOM     21  C   UNL     1       2.035   2.249  19.679  0.00  0.00    +0.000 C 
BRANCH  21  22
ATOM     22  O   UNL     1       2.140   1.291  18.635  0.00  0.00    +0.000 OA
ATOM     23  H   UNL     1       2.454   1.758  17.838  0.00  0.00    +0.000 HD
ENDBRANCH  21  22
ENDBRANCH  18  21
ENDBRANCH   5  15
TORSDOF 4
ENDMDL
MODEL 3
REMARK VINA RESULT:      -7.3      2.873      4.160
REMARK  Name = 
REMARK  5 active torsions:
REMARK  status: ('A' for Active; 'I' for Inactive)
REMARK    1  A    between atoms: C_1  and  C_2
REMARK    2  A    between atoms: C_5  and  N_6
REMARK    3  A    between atoms: C_10  and  N_11
REMARK    4  A    between atoms: C_14  and  C_15
REMARK    5  A    between atoms: C_15  and  O_16
REMARK                            x       y       z     vdW  Elec       q    Type
REMARK                         _______ _______ _______ _____ _____    ______ ____
ROOT
ATOM      1  N   UNL     1       1.397   8.964  19.120  0.00  0.00    +0.000 N 
ATOM      2  C   UNL     1       2.215   9.155  17.925  0.00  0.00    +0.000 C 
ATOM      3  C   UNL     1       2.810   7.871  17.376  0.00  0.00    +0.000 C 
ATOM      4  C   UNL     1       3.530   7.146  18.493  0.00  0.00    +0.000 C 
ATOM      5  C   UNL     1       2.574   6.784  19.643  0.00  0.00    +0.000 C 
ATOM      6  C   UNL     1       1.762   8.034  20.099  0.00  0.00    +0.000 C 
ATOM      7  O   UNL     1       1.424   8.131  21.284  0.00  0.00    +0.000 OA
ENDROOT
BRANCH   1  12
ATOM      8  C   UNL     1      -2.320  13.061  20.687  0.00  0.00    +0.000 C 
ATOM      9  C   UNL     1      -1.334  12.021  20.250  0.00  0.00    +0.000 A 
ATOM     10  C   UNL     1      -1.641  11.150  19.203  0.00  0.00    +0.000 A 
ATOM     11  C   UNL     1      -0.740  10.152  18.825  0.00  0.00    +0.000 A 
ATOM     12  C   UNL     1       0.500  10.024  19.463  0.00  0.00    +0.000 A 
ATOM     13  C   UNL     1       0.822  10.920  20.488  0.00  0.00    +0.000 A 
ATOM     14  C   UNL     1      -0.094  11.900  20.891  0.00  0.00    +0.000 A 
ENDBRANCH   1  12
BRANCH   5  15
ATOM     15  N   UNL     1       1.665   5.616  19.340  0.00  0.00    +0.000 NA
ATOM     16  C   UNL     1       2.184   4.866  18.173  0.00  0.00    +0.000 C 
ATOM     17  C   UNL     1       1.393   3.590  17.874  0.00  0.00    +0.000 C 
ATOM     18  C   UNL     1       1.349   2.647  19.078  0.00  0.00    +0.000 C 
ATOM     19  C   UNL     1       0.788   3.428  20.261  0.00  0.00    +0.000 C 
ATOM     20  C   UNL     1       1.557   4.726  20.521  0.00  0.00    +0.000 C 
BRANCH  18  21
ATOM     21  C   UNL     1       2.715   2.024  19.400  0.00  0.00    +0.000 C 
BRANCH  21  22
ATOM     22  O   UNL     1       3.187   1.255  18.302  0.00  0.00    +0.000 OA
ATOM     23  H   UNL     1       3.822   0.602  18.652  0.00  0.00    +0.000 HD
ENDBRANCH  21  22
ENDBRANCH  18  21
ENDBRANCH   5  15
TORSDOF 4
ENDMDL
MODEL 4
REMARK VINA RESULT:      -7.3      3.054      4.232
REMARK  Name = 
REMARK  5 active torsions:
REMARK  status: ('A' for Active; 'I' for Inactive)
REMARK    1  A    between atoms: C_1  and  C_2
REMARK    2  A    between atoms: C_5  and  N_6
REMARK    3  A    between atoms: C_10  and  N_11
REMARK    4  A    between atoms: C_14  and  C_15
REMARK    5  A    between atoms: C_15  and  O_16
REMARK                            x       y       z     vdW  Elec       q    Type
REMARK                         _______ _______ _______ _____ _____    ______ ____
ROOT
ATOM      1  N   UNL     1       0.862   9.140  19.939  0.00  0.00    +0.000 N 
ATOM      2  C   UNL     1       1.174   9.680  18.619  0.00  0.00    +0.000 C 
ATOM      3  C   UNL     1       1.692   8.646  17.638  0.00  0.00    +0.000 C 
ATOM      4  C   UNL     1       2.846   7.899  18.273  0.00  0.00    +0.000 C 
ATOM      5  C   UNL     1       2.412   7.174  19.559  0.00  0.00    +0.000 C 
ATOM      6  C   UNL     1       1.663   8.149  20.517  0.00  0.00    +0.000 C 
ATOM      7  O   UNL     1       1.757   7.982  21.739  0.00  0.00    +0.000 OA
ENDROOT
BRANCH   1  12
ATOM      8  C   UNL     1      -2.309  12.488  23.374  0.00  0.00    +0.000 C 
ATOM      9  C   UNL     1      -1.518  11.592  22.469  0.00  0.00    +0.000 A 
ATOM     10  C   UNL     1      -0.916  10.436  22.968  0.00  0.00    +0.000 A 
ATOM     11  C   UNL     1      -0.143   9.625  22.135  0.00  0.00    +0.000 A 
ATOM     12  C   UNL     1       0.019   9.934  20.779  0.00  0.00    +0.000 A 
ATOM     13  C   UNL     1      -0.613  11.073  20.271  0.00  0.00    +0.000 A 
ATOM     14  C   UNL     1      -1.363  11.906  21.113  0.00  0.00    +0.000 A 
ENDBRANCH   1  12
BRANCH   5  15
ATOM     15  N   UNL     1       1.609   5.918  19.314  0.00  0.00    +0.000 NA
ATOM     16  C   UNL     1       2.105   5.236  18.095  0.00  0.00    +0.000 C 
ATOM     17  C   UNL     1       1.430   3.886  17.841  0.00  0.00    +0.000 C 
ATOM     18  C   UNL     1       1.587   2.934  19.029  0.00  0.00    +0.000 C 
ATOM     19  C   UNL     1       1.048   3.642  20.268  0.00  0.00    +0.000 C 
ATOM     20  C   UNL     1       1.696   5.013  20.485  0.00  0.00    +0.000 C 
BRANCH  18  21
ATOM     21  C   UNL     1       3.034   2.458  19.227  0.00  0.00    +0.000 C 
BRANCH  21  22
ATOM     22  O   UNL     1       3.258   1.236  18.537  0.00  0.00    +0.000 OA
ATOM     23  H   UNL     1       3.603   0.593  19.184  0.00  0.00    +0.000 HD
ENDBRANCH  21  22
ENDBRANCH  18  21
ENDBRANCH   5  15
TORSDOF 4
ENDMDL
MODEL 5
REMARK VINA RESULT:      -7.3      3.042      4.110
REMARK  Name = 
REMARK  5 active torsions:
REMARK  status: ('A' for Active; 'I' for Inactive)
REMARK    1  A    between atoms: C_1  and  C_2
REMARK    2  A    between atoms: C_5  and  N_6
REMARK    3  A    between atoms: C_10  and  N_11
REMARK    4  A    between atoms: C_14  and  C_15
REMARK    5  A    between atoms: C_15  and  O_16
REMARK                            x       y       z     vdW  Elec       q    Type
REMARK                         _______ _______ _______ _____ _____    ______ ____
ROOT
ATOM      1  N   UNL     1       0.988   9.081  19.940  0.00  0.00    +0.000 N 
ATOM      2  C   UNL     1       1.277   9.611  18.610  0.00  0.00    +0.000 C 
ATOM      3  C   UNL     1       1.737   8.562  17.616  0.00  0.00    +0.000 C 
ATOM      4  C   UNL     1       2.887   7.783  18.219  0.00  0.00    +0.000 C 
ATOM      5  C   UNL     1       2.470   7.072  19.518  0.00  0.00    +0.000 C 
ATOM      6  C   UNL     1       1.777   8.069  20.495  0.00  0.00    +0.000 C 
ATOM      7  O   UNL     1       1.902   7.900  21.714  0.00  0.00    +0.000 OA
ENDROOT
BRANCH   1  12
ATOM      8  C   UNL     1      -2.428  12.223  23.333  0.00  0.00    +0.000 C 
ATOM      9  C   UNL     1      -1.504  11.428  22.462  0.00  0.00    +0.000 A 
ATOM     10  C   UNL     1      -1.262  11.820  21.144  0.00  0.00    +0.000 A 
ATOM     11  C   UNL     1      -0.436  11.055  20.318  0.00  0.00    +0.000 A 
ATOM     12  C   UNL     1       0.193   9.900  20.802  0.00  0.00    +0.000 A 
ATOM     13  C   UNL     1      -0.021   9.528  22.133  0.00  0.00    +0.000 A 
ATOM     14  C   UNL     1      -0.876  10.276  22.953  0.00  0.00    +0.000 A 
ENDBRANCH   1  12
BRANCH   5  15
ATOM     15  N   UNL     1       1.625   5.839  19.298  0.00  0.00    +0.000 NA
ATOM     16  C   UNL     1       2.116   5.101  18.111  0.00  0.00    +0.000 C 
ATOM     17  C   UNL     1       1.396   3.768  17.887  0.00  0.00    +0.000 C 
ATOM     18  C   UNL     1       1.497   2.850  19.107  0.00  0.00    +0.000 C 
ATOM     19  C   UNL     1       0.964   3.617  20.313  0.00  0.00    +0.000 C 
ATOM     20  C   UNL     1       1.659   4.969  20.498  0.00  0.00    +0.000 C 
BRANCH  18  21
ATOM     21  C   UNL     1       2.922   2.328  19.346  0.00  0.00    +0.000 C 
BRANCH  21  22
ATOM     22  O   UNL     1       3.221   1.262  18.455  0.00  0.00    +0.000 OA
ATOM     23  H   UNL     1       2.373   0.898  18.138  0.00  0.00    +0.000 HD
ENDBRANCH  21  22
ENDBRANCH  18  21
ENDBRANCH   5  15
TORSDOF 4
ENDMDL
MODEL 6
REMARK VINA RESULT:      -7.3      3.737      6.585
REMARK  Name = 
REMARK  5 active torsions:
REMARK  status: ('A' for Active; 'I' for Inactive)
REMARK    1  A    between atoms: C_1  and  C_2
REMARK    2  A    between atoms: C_5  and  N_6
REMARK    3  A    between atoms: C_10  and  N_11
REMARK    4  A    between atoms: C_14  and  C_15
REMARK    5  A    between atoms: C_15  and  O_16
REMARK                            x       y       z     vdW  Elec       q    Type
REMARK                         _______ _______ _______ _____ _____    ______ ____
ROOT
ATOM      1  N   UNL     1       6.165   5.677  17.355  0.00  0.00    +0.000 N 
ATOM      2  C   UNL     1       6.082   5.356  15.933  0.00  0.00    +0.000 C 
ATOM      3  C   UNL     1       4.889   4.494  15.566  0.00  0.00    +0.000 C 
ATOM      4  C   UNL     1       4.868   3.275  16.463  0.00  0.00    +0.000 C 
ATOM      5  C   UNL     1       4.746   3.665  17.946  0.00  0.00    +0.000 C 
ATOM      6  C   UNL     1       5.817   4.732  18.325  0.00  0.00    +0.000 C 
ATOM      7  O   UNL     1       6.276   4.741  19.474  0.00  0.00    +0.000 OA
ENDROOT
BRANCH   1  12
ATOM      8  C   UNL     1       9.351  10.167  19.014  0.00  0.00    +0.000 C 
ATOM      9  C   UNL     1       8.551   8.987  18.552  0.00  0.00    +0.000 A 
ATOM     10  C   UNL     1       7.612   9.126  17.528  0.00  0.00    +0.000 A 
ATOM     11  C   UNL     1       6.836   8.036  17.128  0.00  0.00    +0.000 A 
ATOM     12  C   UNL     1       7.003   6.778  17.720  0.00  0.00    +0.000 A 
ATOM     13  C   UNL     1       7.968   6.631  18.720  0.00  0.00    +0.000 A 
ATOM     14  C   UNL     1       8.726   7.731  19.146  0.00  0.00    +0.000 A 
ENDBRANCH   1  12
BRANCH   5  15
ATOM     15  N   UNL     1       3.360   4.107  18.353  0.00  0.00    +0.000 NA
ATOM     16  C   UNL     1       2.422   2.965  18.256  0.00  0.00    +0.000 C 
ATOM     17  C   UNL     1       1.017   3.291  18.771  0.00  0.00    +0.000 C 
ATOM     18  C   UNL     1       1.038   3.782  20.220  0.00  0.00    +0.000 C 
ATOM     19  C   UNL     1       1.988   4.974  20.294  0.00  0.00    +0.000 C 
ATOM     20  C   UNL     1       3.375   4.649  19.732  0.00  0.00    +0.000 C 
BRANCH  18  21
ATOM     21  C   UNL     1       1.422   2.682  21.220  0.00  0.00    +0.000 C 
BRANCH  21  22
ATOM     22  O   UNL     1       2.134   3.231  22.320  0.00  0.00    +0.000 OA
ATOM     23  H   UNL     1       1.834   2.768  23.125  0.00  0.00    +0.000 HD
ENDBRANCH  21  22
ENDBRANCH  18  21
ENDBRANCH   5  15
TORSDOF 4
ENDMDL
MODEL 7
REMARK VINA RESULT:      -7.3      2.844      4.222
REMARK  Name = 
REMARK  5 active torsions:
REMARK  status: ('A' for Active; 'I' for Inactive)
REMARK    1  A    between atoms: C_1  and  C_2
REMARK    2  A    between atoms: C_5  and  N_6
REMARK    3  A    between atoms: C_10  and  N_11
REMARK    4  A    between atoms: C_14  and  C_15
REMARK    5  A    between atoms: C_15  and  O_16
REMARK                            x       y       z     vdW  Elec       q    Type
REMARK                         _______ _______ _______ _____ _____    ______ ____
ROOT
ATOM      1  N   UNL     1       1.404   8.831  19.100  0.00  0.00    +0.000 N 
ATOM      2  C   UNL     1       2.220   9.030  17.906  0.00  0.00    +0.000 C 
ATOM      3  C   UNL     1       2.825   7.752  17.355  0.00  0.00    +0.000 C 
ATOM      4  C   UNL     1       3.551   7.030  18.471  0.00  0.00    +0.000 C 
ATOM      5  C   UNL     1       2.598   6.660  19.620  0.00  0.00    +0.000 C 
ATOM      6  C   UNL     1       1.776   7.903  20.078  0.00  0.00    +0.000 C 
ATOM      7  O   UNL     1       1.438   7.996  21.264  0.00  0.00    +0.000 OA
ENDROOT
BRANCH   1  12
ATOM      8  C   UNL     1      -2.097  13.228  20.314  0.00  0.00    +0.000 C 
ATOM      9  C   UNL     1      -1.208  12.057  20.025  0.00  0.00    +0.000 A 
ATOM     10  C   UNL     1      -0.072  11.822  20.801  0.00  0.00    +0.000 A 
ATOM     11  C   UNL     1       0.781  10.757  20.504  0.00  0.00    +0.000 A 
ATOM     12  C   UNL     1       0.499   9.884  19.445  0.00  0.00    +0.000 A 
ATOM     13  C   UNL     1      -0.658  10.099  18.690  0.00  0.00    +0.000 A 
ATOM     14  C   UNL     1      -1.497  11.187  18.966  0.00  0.00    +0.000 A 
ENDBRANCH   1  12
BRANCH   5  15
ATOM     15  N   UNL     1       1.697   5.485  19.317  0.00  0.00    +0.000 NA
ATOM     16  C   UNL     1       2.233   4.729  18.161  0.00  0.00    +0.000 C 
ATOM     17  C   UNL     1       1.452   3.447  17.862  0.00  0.00    +0.000 C 
ATOM     18  C   UNL     1       1.398   2.512  19.073  0.00  0.00    +0.000 C 
ATOM     19  C   UNL     1       0.820   3.300  20.244  0.00  0.00    +0.000 C 
ATOM     20  C   UNL     1       1.581   4.604  20.503  0.00  0.00    +0.000 C 
BRANCH  18  21
ATOM     21  C   UNL     1       2.764   1.899  19.415  0.00  0.00    +0.000 C 
BRANCH  21  22
ATOM     22  O   UNL     1       3.305   1.222  18.289  0.00  0.00    +0.000 OA
ATOM     23  H   UNL     1       2.805   0.392  18.176  0.00  0.00    +0.000 HD
ENDBRANCH  21  22
ENDBRANCH  18  21
ENDBRANCH   5  15
TORSDOF 4
ENDMDL
MODEL 8
REMARK VINA RESULT:      -7.2      0.179      1.041
REMARK  Name = 
REMARK  5 active torsions:
REMARK  status: ('A' for Active; 'I' for Inactive)
REMARK    1  A    between atoms: C_1  and  C_2
REMARK    2  A    between atoms: C_5  and  N_6
REMARK    3  A    between atoms: C_10  and  N_11
REMARK    4  A    between atoms: C_14  and  C_15
REMARK    5  A    between atoms: C_15  and  O_16
REMARK                            x       y       z     vdW  Elec       q    Type
REMARK                         _______ _______ _______ _____ _____    ______ ____
ROOT
ATOM      1  N   UNL     1       1.881   7.218  19.934  0.00  0.00    +0.000 N 
ATOM      2  C   UNL     1       1.584   6.013  20.702  0.00  0.00    +0.000 C 
ATOM      3  C   UNL     1       2.536   4.863  20.433  0.00  0.00    +0.000 C 
ATOM      4  C   UNL     1       2.611   4.625  18.940  0.00  0.00    +0.000 C 
ATOM      5  C   UNL     1       3.128   5.867  18.194  0.00  0.00    +0.000 C 
ATOM      6  C   UNL     1       2.323   7.135  18.610  0.00  0.00    +0.000 C 
ATOM      7  O   UNL     1       2.153   8.037  17.781  0.00  0.00    +0.000 OA
ENDROOT
BRANCH   1  12
ATOM      8  C   UNL     1      -0.197  12.230  21.840  0.00  0.00    +0.000 C 
ATOM      9  C   UNL     1       0.304  10.909  21.338  0.00  0.00    +0.000 A 
ATOM     10  C   UNL     1       0.558   9.865  22.229  0.00  0.00    +0.000 A 
ATOM     11  C   UNL     1       1.066   8.649  21.766  0.00  0.00    +0.000 A 
ATOM     12  C   UNL     1       1.301   8.440  20.401  0.00  0.00    +0.000 A 
ATOM     13  C   UNL     1       1.013   9.475  19.506  0.00  0.00    +0.000 A 
ATOM     14  C   UNL     1       0.534  10.707  19.971  0.00  0.00    +0.000 A 
ENDBRANCH   1  12
BRANCH   5  15
ATOM     15  N   UNL     1       4.617   6.089  18.331  0.00  0.00    +0.000 NA
ATOM     16  C   UNL     1       5.303   4.788  18.506  0.00  0.00    +0.000 C 
ATOM     17  C   UNL     1       6.829   4.908  18.526  0.00  0.00    +0.000 C 
ATOM     18  C   UNL     1       7.369   5.576  17.259  0.00  0.00    +0.000 C 
ATOM     19  C   UNL     1       6.670   6.924  17.110  0.00  0.00    +0.000 C 
ATOM     20  C   UNL     1       5.144   6.797  17.139  0.00  0.00    +0.000 C 
BRANCH  18  21
ATOM     21  C   UNL     1       7.202   4.704  16.006  0.00  0.00    +0.000 C 
BRANCH  21  22
ATOM     22  O   UNL     1       7.616   5.412  14.845  0.00  0.00    +0.000 OA
ATOM     23  H   UNL     1       7.820   4.753  14.156  0.00  0.00    +0.000 HD
ENDBRANCH  21  22
ENDBRANCH  18  21
ENDBRANCH   5  15
TORSDOF 4
ENDMDL
MODEL 9
REMARK VINA RESULT:      -7.2      3.417      7.612
REMARK  Name = 
REMARK  5 active torsions:
REMARK  status: ('A' for Active; 'I' for Inactive)
REMARK    1  A    between atoms: C_1  and  C_2
REMARK    2  A    between atoms: C_5  and  N_6
REMARK    3  A    between atoms: C_10  and  N_11
REMARK    4  A    between atoms: C_14  and  C_15
REMARK    5  A    between atoms: C_15  and  O_16
REMARK                            x       y       z     vdW  Elec       q    Type
REMARK                         _______ _______ _______ _____ _____    ______ ____
ROOT
ATOM      1  N   UNL     1       5.726   4.953  16.677  0.00  0.00    +0.000 N 
ATOM      2  C   UNL     1       6.493   4.325  17.749  0.00  0.00    +0.000 C 
ATOM      3  C   UNL     1       5.789   4.330  19.093  0.00  0.00    +0.000 C 
ATOM      4  C   UNL     1       5.347   5.742  19.412  0.00  0.00    +0.000 C 
ATOM      5  C   UNL     1       4.373   6.284  18.352  0.00  0.00    +0.000 C 
ATOM      6  C   UNL     1       4.955   6.094  16.919  0.00  0.00    +0.000 C 
ATOM      7  O   UNL     1       4.675   6.920  16.042  0.00  0.00    +0.000 OA
ENDROOT
BRANCH   1  12
ATOM      8  C   UNL     1       7.196   3.959  11.207  0.00  0.00    +0.000 C 
ATOM      9  C   UNL     1       6.835   4.183  12.645  0.00  0.00    +0.000 A 
ATOM     10  C   UNL     1       5.670   3.626  13.176  0.00  0.00    +0.000 A 
ATOM     11  C   UNL     1       5.311   3.870  14.503  0.00  0.00    +0.000 A 
ATOM     12  C   UNL     1       6.124   4.649  15.336  0.00  0.00    +0.000 A 
ATOM     13  C   UNL     1       7.309   5.177  14.813  0.00  0.00    +0.000 A 
ATOM     14  C   UNL     1       7.654   4.960  13.473  0.00  0.00    +0.000 A 
ENDBRANCH   1  12
BRANCH   5  15
ATOM     15  N   UNL     1       2.975   5.720  18.457  0.00  0.00    +0.000 NA
ATOM     16  C   UNL     1       2.852   4.522  17.595  0.00  0.00    +0.000 C 
ATOM     17  C   UNL     1       1.504   3.810  17.737  0.00  0.00    +0.000 C 
ATOM     18  C   UNL     1       1.222   3.399  19.184  0.00  0.00    +0.000 C 
ATOM     19  C   UNL     1       1.328   4.650  20.052  0.00  0.00    +0.000 C 
ATOM     20  C   UNL     1       2.661   5.379  19.865  0.00  0.00    +0.000 C 
BRANCH  18  21
ATOM     21  C   UNL     1       2.150   2.280  19.679  0.00  0.00    +0.000 C 
BRANCH  21  22
ATOM     22  O   UNL     1       2.340   1.302  18.666  0.00  0.00    +0.000 OA
ATOM     23  H   UNL     1       1.510   1.241  18.157  0.00  0.00    +0.000 HD
ENDBRANCH  21  22
ENDBRANCH  18  21
ENDBRANCH   5  15
TORSDOF 4
ENDMDL
