MODEL 1
REMARK VINA RESULT:      -7.0      0.000      0.000
REMARK  Name = 
REMARK  11 active torsions:
REMARK  status: ('A' for Active; 'I' for Inactive)
REMARK    1  A    between atoms: C_1  and  C_2
REMARK    2  A    between atoms: C_2  and  N_3
REMARK    3  A    between atoms: N_3  and  C_4
REMARK    4  A    between atoms: N_3  and  S_5
REMARK    5  A    between atoms: S_5  and  N_8
REMARK    6  A    between atoms: N_8  and  C_9
REMARK    7  A    between atoms: C_9  and  C_10
REMARK    8  A    between atoms: C_9  and  C_11
REMARK    9  A    between atoms: N_15  and  C_16
REMARK   10  A    between atoms: N_15  and  C_17
REMARK   11  A    between atoms: C_24  and  C_25
REMARK                            x       y       z     vdW  Elec       q    Type
REMARK                         _______ _______ _______ _____ _____    ______ ____
ROOT
ATOM      1  C   UNL     1       0.823   9.691  19.156  0.00  0.00    +0.000 A 
ATOM      2  C   UNL     1       1.396   9.441  17.929  0.00  0.00    +0.000 A 
ATOM      3  N   UNL     1       2.243   8.427  17.676  0.00  0.00    +0.000 NA
ATOM      4  C   UNL     1       2.547   7.579  18.669  0.00  0.00    +0.000 A 
ATOM      5  N   UNL     1       3.484   6.586  18.420  0.00  0.00    +0.000 N 
ATOM      6  C   UNL     1       4.347   6.792  17.274  0.00  0.00    +0.000 C 
ATOM      7  N   UNL     1       2.013   7.718  19.894  0.00  0.00    +0.000 NA
ATOM      8  C   UNL     1       1.186   8.776  20.137  0.00  0.00    +0.000 A 
ATOM      9  C   UNL     1       0.721   8.916  21.560  0.00  0.00    +0.000 C 
ENDROOT
BRANCH   5  10
ATOM     10  C   UNL     1       3.442   5.316  19.164  0.00  0.00    +0.000 C 
ATOM     11  C   UNL     1       2.034   4.680  19.254  0.00  0.00    +0.000 C 
ATOM     12  C   UNL     1       1.544   3.973  17.988  0.00  0.00    +0.000 C 
ATOM     13  C   UNL     1       2.579   3.060  17.344  0.00  0.00    +0.000 C 
ATOM     14  C   UNL     1       4.001   3.614  17.320  0.00  0.00    +0.000 C 
ATOM     15  C   UNL     1       4.435   4.283  18.622  0.00  0.00    +0.000 C 
ENDBRANCH   5  10
BRANCH   1  16
ATOM     16  C   UNL     1      -0.129  10.860  19.340  0.00  0.00    +0.000 C 
ATOM     17  C   UNL     1      -1.334  10.685  18.407  0.00  0.00    +0.000 C 
BRANCH  16  18
ATOM     18  N   UNL     1       0.573  12.157  19.081  0.00  0.00    +0.000 NA
ATOM     19  H   UNL     1       1.511  11.964  18.715  0.00  0.00    +0.000 HD
BRANCH  18  20
ATOM     20  S   UNL     1       0.808  13.142  20.420  0.00  0.00    +0.000 S 
ATOM     21  O   UNL     1       1.086  14.458  19.912  0.00  0.00    +0.000 OA
ATOM     22  O   UNL     1       1.671  12.485  21.371  0.00  0.00    +0.000 OA
BRANCH  20  23
ATOM     23  N   UNL     1      -0.773  13.128  21.070  0.00  0.00    +0.000 NA
ATOM     24  C   UNL     1      -1.529  14.344  20.653  0.00  0.00    +0.000 C 
BRANCH  23  26
ATOM     25  C   UNL     1      -1.448  11.605  22.949  0.00  0.00    +0.000 C 
ATOM     26  C   UNL     1      -0.800  12.924  22.553  0.00  0.00    +0.000 C 
ENDBRANCH  23  26
ENDBRANCH  20  23
ENDBRANCH  18  20
ENDBRANCH  16  18
ENDBRANCH   1  16
TORSDOF 6
ENDMDL
MODEL 2
REMARK VINA RESULT:      -6.9      1.018      1.642
REMARK  Name = 
REMARK  11 active torsions:
REMARK  status: ('A' for Active; 'I' for Inactive)
REMARK    1  A    between atoms: C_1  and  C_2
REMARK    2  A    between atoms: C_2  and  N_3
REMARK    3  A    between atoms: N_3  and  C_4
REMARK    4  A    between atoms: N_3  and  S_5
REMARK    5  A    between atoms: S_5  and  N_8
REMARK    6  A    between atoms: N_8  and  C_9
REMARK    7  A    between atoms: C_9  and  C_10
REMARK    8  A    between atoms: C_9  and  C_11
REMARK    9  A    between atoms: N_15  and  C_16
REMARK   10  A    between atoms: N_15  and  C_17
REMARK   11  A    between atoms: C_24  and  C_25
REMARK                            x       y       z     vdW  Elec       q    Type
REMARK                         _______ _______ _______ _____ _____    ______ ____
ROOT
ATOM      1  C   UNL     1       0.976   9.543  19.296  0.00  0.00    +0.000 A 
ATOM      2  C   UNL     1       1.510   9.256  18.059  0.00  0.00    +0.000 A 
ATOM      3  N   UNL     1       2.297   8.197  17.796  0.00  0.00    +0.000 NA
ATOM      4  C   UNL     1       2.575   7.339  18.789  0.00  0.00    +0.000 A 
ATOM      5  N   UNL     1       3.452   6.296  18.528  0.00  0.00    +0.000 N 
ATOM      6  C   UNL     1       4.301   6.448  17.364  0.00  0.00    +0.000 C 
ATOM      7  N   UNL     1       2.073   7.513  20.023  0.00  0.00    +0.000 NA
ATOM      8  C   UNL     1       1.309   8.615  20.275  0.00  0.00    +0.000 A 
ATOM      9  C   UNL     1       0.880   8.788  21.705  0.00  0.00    +0.000 C 
ENDROOT
BRANCH   5  10
ATOM     10  C   UNL     1       3.356   5.034  19.281  0.00  0.00    +0.000 C 
ATOM     11  C   UNL     1       1.933   4.427  19.325  0.00  0.00    +0.000 C 
ATOM     12  C   UNL     1       1.474   3.719  18.048  0.00  0.00    +0.000 C 
ATOM     13  C   UNL     1       2.513   2.778  17.451  0.00  0.00    +0.000 C 
ATOM     14  C   UNL     1       3.946   3.303  17.474  0.00  0.00    +0.000 C 
ATOM     15  C   UNL     1       4.346   3.975  18.784  0.00  0.00    +0.000 C 
ENDBRANCH   5  10
BRANCH   1  16
ATOM     16  C   UNL     1       0.092  10.762  19.490  0.00  0.00    +0.000 C 
ATOM     17  C   UNL     1      -0.970  10.802  18.384  0.00  0.00    +0.000 C 
BRANCH  16  18
ATOM     18  N   UNL     1       0.914  12.014  19.497  0.00  0.00    +0.000 NA
ATOM     19  H   UNL     1       1.900  11.768  19.359  0.00  0.00    +0.000 HD
BRANCH  18  20
ATOM     20  S   UNL     1       0.870  12.912  20.914  0.00  0.00    +0.000 S 
ATOM     21  O   UNL     1       2.213  13.369  21.148  0.00  0.00    +0.000 OA
ATOM     22  O   UNL     1       0.109  12.211  21.919  0.00  0.00    +0.000 OA
BRANCH  20  23
ATOM     23  N   UNL     1      -0.076  14.235  20.388  0.00  0.00    +0.000 NA
ATOM     24  C   UNL     1      -1.526  13.981  20.630  0.00  0.00    +0.000 C 
BRANCH  23  26
ATOM     25  C   UNL     1      -0.289  16.039  18.654  0.00  0.00    +0.000 C 
ATOM     26  C   UNL     1       0.201  14.634  18.972  0.00  0.00    +0.000 C 
ENDBRANCH  23  26
ENDBRANCH  20  23
ENDBRANCH  18  20
ENDBRANCH  16  18
ENDBRANCH   1  16
TORSDOF 6
ENDMDL
MODEL 3
REMARK VINA RESULT:      -6.9      2.042      2.595
REMARK  Name = 
REMARK  11 active torsions:
REMARK  status: ('A' for Active; 'I' for Inactive)
REMARK    1  A    between atoms: C_1  and  C_2
REMARK    2  A    between atoms: C_2  and  N_3
REMARK    3  A    between atoms: N_3  and  C_4
REMARK    4  A    between atoms: N_3  and  S_5
REMARK    5  A    between atoms: S_5  and  N_8
REMARK    6  A    between atoms: N_8  and  C_9
REMARK    7  A    between atoms: C_9  and  C_10
REMARK    8  A    between atoms: C_9  and  C_11
REMARK    9  A    between atoms: N_15  and  C_16
REMARK   10  A    between atoms: N_15  and  C_17
REMARK   11  A    between atoms: C_24  and  C_25
REMARK                            x       y       z     vdW  Elec       q    Type
REMARK                         _______ _______ _______ _____ _____    ______ ____
ROOT
ATOM      1  C   UNL     1       1.197   9.403  19.055  0.00  0.00    +0.000 A 
ATOM      2  C   UNL     1       1.812   9.035  17.880  0.00  0.00    +0.000 A 
ATOM      3  N   UNL     1       2.566   7.930  17.728  0.00  0.00    +0.000 NA
ATOM      4  C   UNL     1       2.724   7.109  18.777  0.00  0.00    +0.000 A 
ATOM      5  N   UNL     1       3.568   6.017  18.633  0.00  0.00    +0.000 N 
ATOM      6  C   UNL     1       4.512   6.076  17.536  0.00  0.00    +0.000 C 
ATOM      7  N   UNL     1       2.136   7.364  19.958  0.00  0.00    +0.000 NA
ATOM      8  C   UNL     1       1.408   8.510  20.098  0.00  0.00    +0.000 A 
ATOM      9  C   UNL     1       0.877   8.770  21.481  0.00  0.00    +0.000 C 
ENDROOT
BRANCH   5  10
ATOM     10  C   UNL     1       3.353   4.798  19.431  0.00  0.00    +0.000 C 
ATOM     11  C   UNL     1       1.892   4.288  19.431  0.00  0.00    +0.000 C 
ATOM     12  C   UNL     1       1.445   3.556  18.163  0.00  0.00    +0.000 C 
ATOM     13  C   UNL     1       2.445   2.525  17.655  0.00  0.00    +0.000 C 
ATOM     14  C   UNL     1       3.907   2.956  17.726  0.00  0.00    +0.000 C 
ATOM     15  C   UNL     1       4.292   3.657  19.026  0.00  0.00    +0.000 C 
ENDBRANCH   5  10
BRANCH   1  16
ATOM     16  C   UNL     1       0.360  10.669  19.124  0.00  0.00    +0.000 C 
ATOM     17  C   UNL     1      -0.897  10.494  18.263  0.00  0.00    +0.000 C 
BRANCH  16  18
ATOM     18  N   UNL     1       1.160  11.855  18.680  0.00  0.00    +0.000 NA
ATOM     19  H   UNL     1       2.110  11.549  18.443  0.00  0.00    +0.000 HD
BRANCH  18  20
ATOM     20  S   UNL     1       1.351  13.075  19.816  0.00  0.00    +0.000 S 
ATOM     21  O   UNL     1       1.549  12.424  21.083  0.00  0.00    +0.000 OA
ATOM     22  O   UNL     1       0.348  14.093  19.622  0.00  0.00    +0.000 OA
BRANCH  20  23
ATOM     23  N   UNL     1       2.845  13.724  19.295  0.00  0.00    +0.000 NA
ATOM     24  C   UNL     1       3.585  14.337  20.435  0.00  0.00    +0.000 C 
BRANCH  23  26
ATOM     25  C   UNL     1       4.043  15.253  17.704  0.00  0.00    +0.000 C 
ATOM     26  C   UNL     1       2.709  14.663  18.136  0.00  0.00    +0.000 C 
ENDBRANCH  23  26
ENDBRANCH  20  23
ENDBRANCH  18  20
ENDBRANCH  16  18
ENDBRANCH   1  16
TORSDOF 6
ENDMDL
MODEL 4
REMARK VINA RESULT:      -6.9      1.989      3.387
REMARK  Name = 
REMARK  11 active torsions:
REMARK  status: ('A' for Active; 'I' for Inactive)
REMARK    1  A    between atoms: C_1  and  C_2
REMARK    2  A    between atoms: C_2  and  N_3
REMARK    3  A    between atoms: N_3  and  C_4
REMARK    4  A    between atoms: N_3  and  S_5
REMARK    5  A    between atoms: S_5  and  N_8
REMARK    6  A    between atoms: N_8  and  C_9
REMARK    7  A    between atoms: C_9  and  C_10
REMARK    8  A    between atoms: C_9  and  C_11
REMARK    9  A    between atoms: N_15  and  C_16
REMARK   10  A    between atoms: N_15  and  C_17
REMARK   11  A    between atoms: C_24  and  C_25
REMARK                            x       y       z     vdW  Elec       q    Type
REMARK                         _______ _______ _______ _____ _____    ______ ____
ROOT
ATOM      1  C   UNL     1       0.976   9.263  20.015  0.00  0.00    +0.000 A 
ATOM      2  C   UNL     1       0.945   8.369  21.062  0.00  0.00    +0.000 A 
ATOM      3  N   UNL     1       1.496   7.142  21.033  0.00  0.00    +0.000 NA
ATOM      4  C   UNL     1       2.143   6.753  19.924  0.00  0.00    +0.000 A 
ATOM      5  N   UNL     1       2.637   5.458  19.874  0.00  0.00    +0.000 N 
ATOM      6  C   UNL     1       2.072   4.518  20.822  0.00  0.00    +0.000 C 
ATOM      7  N   UNL     1       2.257   7.567  18.861  0.00  0.00    +0.000 NA
ATOM      8  C   UNL     1       1.657   8.791  18.900  0.00  0.00    +0.000 A 
ATOM      9  C   UNL     1       1.742   9.591  17.630  0.00  0.00    +0.000 C 
ENDROOT
BRANCH   5  10
ATOM     10  C   UNL     1       3.811   5.139  19.044  0.00  0.00    +0.000 C 
ATOM     11  C   UNL     1       4.655   3.952  19.566  0.00  0.00    +0.000 C 
ATOM     12  C   UNL     1       4.073   2.560  19.306  0.00  0.00    +0.000 C 
ATOM     13  C   UNL     1       3.557   2.356  17.887  0.00  0.00    +0.000 C 
ATOM     14  C   UNL     1       2.798   3.544  17.301  0.00  0.00    +0.000 C 
ATOM     15  C   UNL     1       3.446   4.898  17.576  0.00  0.00    +0.000 C 
ENDBRANCH   5  10
BRANCH   1  16
ATOM     16  C   UNL     1       0.327  10.630  20.148  0.00  0.00    +0.000 C 
ATOM     17  C   UNL     1       0.281  11.028  21.629  0.00  0.00    +0.000 C 
BRANCH  16  18
ATOM     18  N   UNL     1      -1.044  10.625  19.546  0.00  0.00    +0.000 NA
ATOM     19  H   UNL     1      -1.067   9.954  18.770  0.00  0.00    +0.000 HD
BRANCH  18  20
ATOM     20  S   UNL     1      -1.563  12.081  18.894  0.00  0.00    +0.000 S 
ATOM     21  O   UNL     1      -0.411  12.685  18.279  0.00  0.00    +0.000 OA
ATOM     22  O   UNL     1      -2.384  12.785  19.848  0.00  0.00    +0.000 OA
BRANCH  20  23
ATOM     23  N   UNL     1      -2.596  11.496  17.664  0.00  0.00    +0.000 NA
ATOM     24  C   UNL     1      -4.023  11.561  18.094  0.00  0.00    +0.000 C 
BRANCH  23  26
ATOM     25  C   UNL     1      -2.651   9.893  15.732  0.00  0.00    +0.000 C 
ATOM     26  C   UNL     1      -2.214  10.135  17.170  0.00  0.00    +0.000 C 
ENDBRANCH  23  26
ENDBRANCH  20  23
ENDBRANCH  18  20
ENDBRANCH  16  18
ENDBRANCH   1  16
TORSDOF 6
ENDMDL
MODEL 5
REMARK VINA RESULT:      -6.8      1.025      1.114
REMARK  Name = 
REMARK  11 active torsions:
REMARK  status: ('A' for Active; 'I' for Inactive)
REMARK    1  A    between atoms: C_1  and  C_2
REMARK    2  A    between atoms: C_2  and  N_3
REMARK    3  A    between atoms: N_3  and  C_4
REMARK    4  A    between atoms: N_3  and  S_5
REMARK    5  A    between atoms: S_5  and  N_8
REMARK    6  A    between atoms: N_8  and  C_9
REMARK    7  A    between atoms: C_9  and  C_10
REMARK    8  A    between atoms: C_9  and  C_11
REMARK    9  A    between atoms: N_15  and  C_16
REMARK   10  A    between atoms: N_15  and  C_17
REMARK   11  A    between atoms: C_24  and  C_25
REMARK                            x       y       z     vdW  Elec       q    Type
REMARK                         _______ _______ _______ _____ _____    ______ ____
ROOT
ATOM      1  C   UNL     1       1.242   9.312  19.023  0.00  0.00    +0.000 A 
ATOM      2  C   UNL     1       1.861   8.907  17.861  0.00  0.00    +0.000 A 
ATOM      3  N   UNL     1       2.601   7.789  17.742  0.00  0.00    +0.000 NA
ATOM      4  C   UNL     1       2.740   6.992  18.812  0.00  0.00    +0.000 A 
ATOM      5  N   UNL     1       3.570   5.886  18.703  0.00  0.00    +0.000 N 
ATOM      6  C   UNL     1       4.524   5.905  17.612  0.00  0.00    +0.000 C 
ATOM      7  N   UNL     1       2.145   7.283  19.982  0.00  0.00    +0.000 NA
ATOM      8  C   UNL     1       1.432   8.441  20.089  0.00  0.00    +0.000 A 
ATOM      9  C   UNL     1       0.894   8.741  21.460  0.00  0.00    +0.000 C 
ENDROOT
BRANCH   5  10
ATOM     10  C   UNL     1       3.332   4.689  19.527  0.00  0.00    +0.000 C 
ATOM     11  C   UNL     1       1.862   4.207  19.539  0.00  0.00    +0.000 C 
ATOM     12  C   UNL     1       1.401   3.456  18.288  0.00  0.00    +0.000 C 
ATOM     13  C   UNL     1       2.380   2.395  17.803  0.00  0.00    +0.000 C 
ATOM     14  C   UNL     1       3.851   2.799  17.864  0.00  0.00    +0.000 C 
ATOM     15  C   UNL     1       4.249   3.521  19.148  0.00  0.00    +0.000 C 
ENDBRANCH   5  10
BRANCH   1  16
ATOM     16  C   UNL     1       0.421  10.589  19.054  0.00  0.00    +0.000 C 
ATOM     17  C   UNL     1      -0.855  10.393  18.226  0.00  0.00    +0.000 C 
BRANCH  16  18
ATOM     18  N   UNL     1       1.225  11.746  18.544  0.00  0.00    +0.000 NA
ATOM     19  H   UNL     1       2.156  11.413  18.273  0.00  0.00    +0.000 HD
BRANCH  18  20
ATOM     20  S   UNL     1       1.494  12.989  19.638  0.00  0.00    +0.000 S 
ATOM     21  O   UNL     1       2.453  13.869  19.025  0.00  0.00    +0.000 OA
ATOM     22  O   UNL     1       1.679  12.450  20.963  0.00  0.00    +0.000 OA
BRANCH  20  23
ATOM     23  N   UNL     1      -0.041  13.742  19.602  0.00  0.00    +0.000 NA
ATOM     24  C   UNL     1       0.047  15.097  18.984  0.00  0.00    +0.000 C 
BRANCH  23  26
ATOM     25  C   UNL     1      -1.872  12.785  21.029  0.00  0.00    +0.000 C 
ATOM     26  C   UNL     1      -0.716  13.771  20.938  0.00  0.00    +0.000 C 
ENDBRANCH  23  26
ENDBRANCH  20  23
ENDBRANCH  18  20
ENDBRANCH  16  18
ENDBRANCH   1  16
TORSDOF 6
ENDMDL
MODEL 6
REMARK VINA RESULT:      -6.8      1.447      1.858
REMARK  Name = 
REMARK  11 active torsions:
REMARK  status: ('A' for Active; 'I' for Inactive)
REMARK    1  A    between atoms: C_1  and  C_2
REMARK    2  A    between atoms: C_2  and  N_3
REMARK    3  A    between atoms: N_3  and  C_4
REMARK    4  A    between atoms: N_3  and  S_5
REMARK    5  A    between atoms: S_5  and  N_8
REMARK    6  A    between atoms: N_8  and  C_9
REMARK    7  A    between atoms: C_9  and  C_10
REMARK    8  A    between atoms: C_9  and  C_11
REMARK    9  A    between atoms: N_15  and  C_16
REMARK   10  A    between atoms: N_15  and  C_17
REMARK   11  A    between atoms: C_24  and  C_25
REMARK                            x       y       z     vdW  Elec       q    Type
REMARK                         _______ _______ _______ _____ _____    ______ ____
ROOT
ATOM      1  C   UNL     1       0.978   9.660  19.093  0.00  0.00    +0.000 A 
ATOM      2  C   UNL     1       1.546   9.336  17.882  0.00  0.00    +0.000 A 
ATOM      3  N   UNL     1       2.338   8.268  17.673  0.00  0.00    +0.000 NA
ATOM      4  C   UNL     1       2.586   7.440  18.699  0.00  0.00    +0.000 A 
ATOM      5  N   UNL     1       3.468   6.389  18.495  0.00  0.00    +0.000 N 
ATOM      6  C   UNL     1       4.351   6.505  17.352  0.00  0.00    +0.000 C 
ATOM      7  N   UNL     1       2.050   7.652  19.913  0.00  0.00    +0.000 NA
ATOM      8  C   UNL     1       1.281   8.763  20.109  0.00  0.00    +0.000 A 
ATOM      9  C   UNL     1       0.812   8.979  21.521  0.00  0.00    +0.000 C 
ENDROOT
BRANCH   5  10
ATOM     10  C   UNL     1       3.348   5.151  19.283  0.00  0.00    +0.000 C 
ATOM     11  C   UNL     1       1.924   4.546  19.303  0.00  0.00    +0.000 C 
ATOM     12  C   UNL     1       1.503   3.799  18.035  0.00  0.00    +0.000 C 
ATOM     13  C   UNL     1       2.558   2.841  17.498  0.00  0.00    +0.000 C 
ATOM     14  C   UNL     1       3.991   3.366  17.548  0.00  0.00    +0.000 C 
ATOM     15  C   UNL     1       4.352   4.078  18.849  0.00  0.00    +0.000 C 
ENDBRANCH   5  10
BRANCH   1  16
ATOM     16  C   UNL     1       0.091  10.886  19.225  0.00  0.00    +0.000 C 
ATOM     17  C   UNL     1      -1.352  10.510  18.868  0.00  0.00    +0.000 C 
BRANCH  16  18
ATOM     18  N   UNL     1       0.592  11.997  18.354  0.00  0.00    +0.000 NA
ATOM     19  H   UNL     1       0.960  11.600  17.483  0.00  0.00    +0.000 HD
BRANCH  18  20
ATOM     20  S   UNL     1       1.842  12.918  18.990  0.00  0.00    +0.000 S 
ATOM     21  O   UNL     1       2.988  12.683  18.153  0.00  0.00    +0.000 OA
ATOM     22  O   UNL     1       1.891  12.763  20.424  0.00  0.00    +0.000 OA
BRANCH  20  23
ATOM     23  N   UNL     1       1.240  14.485  18.666  0.00  0.00    +0.000 NA
ATOM     24  C   UNL     1       2.006  15.516  19.426  0.00  0.00    +0.000 C 
BRANCH  23  26
ATOM     25  C   UNL     1      -0.597  15.702  19.870  0.00  0.00    +0.000 C 
ATOM     26  C   UNL     1      -0.237  14.606  18.878  0.00  0.00    +0.000 C 
ENDBRANCH  23  26
ENDBRANCH  20  23
ENDBRANCH  18  20
ENDBRANCH  16  18
ENDBRANCH   1  16
TORSDOF 6
ENDMDL
MODEL 7
REMARK VINA RESULT:      -6.7      2.050      3.107
REMARK  Name = 
REMARK  11 active torsions:
REMARK  status: ('A' for Active; 'I' for Inactive)
REMARK    1  A    between atoms: C_1  and  C_2
REMARK    2  A    between atoms: C_2  and  N_3
REMARK    3  A    between atoms: N_3  and  C_4
REMARK    4  A    between atoms: N_3  and  S_5
REMARK    5  A    between atoms: S_5  and  N_8
REMARK    6  A    between atoms: N_8  and  C_9
REMARK    7  A    between atoms: C_9  and  C_10
REMARK    8  A    between atoms: C_9  and  C_11
REMARK    9  A    between atoms: N_15  and  C_16
REMARK   10  A    between atoms: N_15  and  C_17
REMARK   11  A    between atoms: C_24  and  C_25
REMARK                            x       y       z     vdW  Elec       q    Type
REMARK                         _______ _______ _______ _____ _____    ______ ____
ROOT
ATOM      1  C   UNL     1       1.219   9.507  19.078  0.00  0.00    +0.000 A 
ATOM      2  C   UNL     1       1.903   9.146  17.939  0.00  0.00    +0.000 A 
ATOM      3  N   UNL     1       2.639   8.027  17.814  0.00  0.00    +0.000 NA
ATOM      4  C   UNL     1       2.706   7.182  18.854  0.00  0.00    +0.000 A 
ATOM      5  N   UNL     1       3.533   6.072  18.744  0.00  0.00    +0.000 N 
ATOM      6  C   UNL     1       4.550   6.129  17.714  0.00  0.00    +0.000 C 
ATOM      7  N   UNL     1       2.046   7.428  19.998  0.00  0.00    +0.000 NA
ATOM      8  C   UNL     1       1.337   8.588  20.114  0.00  0.00    +0.000 A 
ATOM      9  C   UNL     1       0.721   8.833  21.462  0.00  0.00    +0.000 C 
ENDROOT
BRANCH   5  10
ATOM     10  C   UNL     1       3.235   4.843  19.499  0.00  0.00    +0.000 C 
ATOM     11  C   UNL     1       1.776   4.350  19.361  0.00  0.00    +0.000 C 
ATOM     12  C   UNL     1       1.437   3.643  18.047  0.00  0.00    +0.000 C 
ATOM     13  C   UNL     1       2.467   2.608  17.612  0.00  0.00    +0.000 C 
ATOM     14  C   UNL     1       3.922   3.022  17.820  0.00  0.00    +0.000 C 
ATOM     15  C   UNL     1       4.196   3.698  19.161  0.00  0.00    +0.000 C 
ENDBRANCH   5  10
BRANCH   1  16
ATOM     16  C   UNL     1       0.409  10.791  19.118  0.00  0.00    +0.000 C 
ATOM     17  C   UNL     1       0.712  11.543  20.420  0.00  0.00    +0.000 C 
BRANCH  16  18
ATOM     18  N   UNL     1      -1.054  10.496  18.991  0.00  0.00    +0.000 NA
ATOM     19  H   UNL     1      -1.191   9.780  18.270  0.00  0.00    +0.000 HD
BRANCH  18  20
ATOM     20  S   UNL     1      -2.023  11.787  18.531  0.00  0.00    +0.000 S 
ATOM     21  O   UNL     1      -1.178  12.687  17.794  0.00  0.00    +0.000 OA
ATOM     22  O   UNL     1      -2.827  12.223  19.646  0.00  0.00    +0.000 OA
BRANCH  20  23
ATOM     23  N   UNL     1      -3.063  10.989  17.433  0.00  0.00    +0.000 NA
ATOM     24  C   UNL     1      -3.198   9.545  17.782  0.00  0.00    +0.000 C 
BRANCH  23  26
ATOM     25  C   UNL     1      -2.965   9.971  15.140  0.00  0.00    +0.000 C 
ATOM     26  C   UNL     1      -2.677  11.193  16.000  0.00  0.00    +0.000 C 
ENDBRANCH  23  26
ENDBRANCH  20  23
ENDBRANCH  18  20
ENDBRANCH  16  18
ENDBRANCH   1  16
TORSDOF 6
ENDMDL
MODEL 8
REMARK VINA RESULT:      -6.7      4.109      8.223
REMARK  Name = 
REMARK  11 active torsions:
REMARK  status: ('A' for Active; 'I' for Inactive)
REMARK    1  A    between atoms: C_1  and  C_2
REMARK    2  A    between atoms: C_2  and  N_3
REMARK    3  A    between atoms: N_3  and  C_4
REMARK    4  A    between atoms: N_3  and  S_5
REMARK    5  A    between atoms: S_5  and  N_8
REMARK    6  A    between atoms: N_8  and  C_9
REMARK    7  A    between atoms: C_9  and  C_10
REMARK    8  A    between atoms: C_9  and  C_11
REMARK    9  A    between atoms: N_15  and  C_16
REMARK   10  A    between atoms: N_15  and  C_17
REMARK   11  A    between atoms: C_24  and  C_25
REMARK                            x       y       z     vdW  Elec       q    Type
REMARK                         _______ _______ _______ _____ _____    ______ ____
ROOT
ATOM      1  C   UNL     1       2.202   6.521  19.826  0.00  0.00    +0.000 A 
ATOM      2  C   UNL     1       1.477   7.018  20.886  0.00  0.00    +0.000 A 
ATOM      3  N   UNL     1       0.988   8.270  20.954  0.00  0.00    +0.000 NA
ATOM      4  C   UNL     1       1.193   9.098  19.919  0.00  0.00    +0.000 A 
ATOM      5  N   UNL     1       0.755  10.410  20.033  0.00  0.00    +0.000 N 
ATOM      6  C   UNL     1       0.495  10.885  21.377  0.00  0.00    +0.000 C 
ATOM      7  N   UNL     1       1.859   8.696  18.824  0.00  0.00    +0.000 NA
ATOM      8  C   UNL     1       2.378   7.435  18.794  0.00  0.00    +0.000 A 
ATOM      9  C   UNL     1       3.200   7.105  17.579  0.00  0.00    +0.000 C 
ENDROOT
BRANCH   5  10
ATOM     10  C   UNL     1       0.385  11.180  18.834  0.00  0.00    +0.000 C 
ATOM     11  C   UNL     1      -0.582  10.441  17.878  0.00  0.00    +0.000 C 
ATOM     12  C   UNL     1      -2.046  10.397  18.321  0.00  0.00    +0.000 C 
ATOM     13  C   UNL     1      -2.588  11.733  18.814  0.00  0.00    +0.000 C 
ATOM     14  C   UNL     1      -1.626  12.536  19.685  0.00  0.00    +0.000 C 
ATOM     15  C   UNL     1      -0.188  12.560  19.174  0.00  0.00    +0.000 C 
ENDBRANCH   5  10
BRANCH   1  16
ATOM     16  C   UNL     1       2.707   5.089  19.841  0.00  0.00    +0.000 C 
ATOM     17  C   UNL     1       2.210   4.389  21.112  0.00  0.00    +0.000 C 
BRANCH  16  18
ATOM     18  N   UNL     1       4.202   5.055  19.753  0.00  0.00    +0.000 NA
ATOM     19  H   UNL     1       4.525   5.874  19.228  0.00  0.00    +0.000 HD
BRANCH  18  20
ATOM     20  S   UNL     1       4.859   3.728  18.964  0.00  0.00    +0.000 S 
ATOM     21  O   UNL     1       4.084   3.542  17.767  0.00  0.00    +0.000 OA
ATOM     22  O   UNL     1       5.092   2.659  19.905  0.00  0.00    +0.000 OA
BRANCH  20  23
ATOM     23  N   UNL     1       6.383   4.372  18.536  0.00  0.00    +0.000 NA
ATOM     24  C   UNL     1       6.731   5.535  19.403  0.00  0.00    +0.000 C 
BRANCH  23  26
ATOM     25  C   UNL     1       7.074   6.084  16.833  0.00  0.00    +0.000 C 
ATOM     26  C   UNL     1       6.499   4.696  17.078  0.00  0.00    +0.000 C 
ENDBRANCH  23  26
ENDBRANCH  20  23
ENDBRANCH  18  20
ENDBRANCH  16  18
ENDBRANCH   1  16
TORSDOF 6
ENDMDL
MODEL 9
REMARK VINA RESULT:      -6.7      2.130      3.636
REMARK  Name = 
REMARK  11 active torsions:
REMARK  status: ('A' for Active; 'I' for Inactive)
REMARK    1  A    between atoms: C_1  and  C_2
REMARK    2  A    between atoms: C_2  and  N_3
REMARK    3  A    between atoms: N_3  and  C_4
REMARK    4  A    between atoms: N_3  and  S_5
REMARK    5  A    between atoms: S_5  and  N_8
REMARK    6  A    between atoms: N_8  and  C_9
REMARK    7  A    between atoms: C_9  and  C_10
REMARK    8  A    between atoms: C_9  and  C_11
REMARK    9  A    between atoms: N_15  and  C_16
REMARK   10  A    between atoms: N_15  and  C_17
REMARK   11  A    between atoms: C_24  and  C_25
REMARK                            x       y       z     vdW  Elec       q    Type
REMARK                         _______ _______ _______ _____ _____    ______ ____
ROOT
ATOM      1  C   UNL     1       1.650   8.670  19.676  0.00  0.00    +0.000 A 
ATOM      2  C   UNL     1       1.906   7.382  20.089  0.00  0.00    +0.000 A 
ATOM      3  N   UNL     1       2.623   6.485  19.388  0.00  0.00    +0.000 NA
ATOM      4  C   UNL     1       3.150   6.859  18.213  0.00  0.00    +0.000 A 
ATOM      5  N   UNL     1       3.819   5.904  17.460  0.00  0.00    +0.000 N 
ATOM      6  C   UNL     1       3.544   4.520  17.790  0.00  0.00    +0.000 C 
ATOM      7  N   UNL     1       2.986   8.106  17.739  0.00  0.00    +0.000 NA
ATOM      8  C   UNL     1       2.223   8.986  18.449  0.00  0.00    +0.000 A 
ATOM      9  C   UNL     1       2.002  10.321  17.794  0.00  0.00    +0.000 C 
ENDROOT
BRANCH   5  10
ATOM     10  C   UNL     1       4.892   6.301  16.533  0.00  0.00    +0.000 C 
ATOM     11  C   UNL     1       6.154   6.867  17.228  0.00  0.00    +0.000 C 
ATOM     12  C   UNL     1       7.075   5.830  17.875  0.00  0.00    +0.000 C 
ATOM     13  C   UNL     1       7.361   4.618  16.999  0.00  0.00    +0.000 C 
ATOM     14  C   UNL     1       6.158   4.086  16.223  0.00  0.00    +0.000 C 
ATOM     15  C   UNL     1       5.297   5.170  15.582  0.00  0.00    +0.000 C 
ENDBRANCH   5  10
BRANCH   1  16
ATOM     16  C   UNL     1       0.833   9.611  20.544  0.00  0.00    +0.000 C 
ATOM     17  C   UNL     1       0.732   9.035  21.961  0.00  0.00    +0.000 C 
BRANCH  16  18
ATOM     18  N   UNL     1      -0.524   9.831  19.951  0.00  0.00    +0.000 NA
ATOM     19  H   UNL     1      -0.526   9.492  18.983  0.00  0.00    +0.000 HD
BRANCH  18  20
ATOM     20  S   UNL     1      -1.037  11.427  19.868  0.00  0.00    +0.000 S 
ATOM     21  O   UNL     1       0.148  12.226  19.707  0.00  0.00    +0.000 OA
ATOM     22  O   UNL     1      -2.008  11.689  20.901  0.00  0.00    +0.000 OA
BRANCH  20  23
ATOM     23  N   UNL     1      -1.875  11.384  18.378  0.00  0.00    +0.000 NA
ATOM     24  C   UNL     1      -3.322  11.688  18.574  0.00  0.00    +0.000 C 
BRANCH  23  26
ATOM     25  C   UNL     1      -2.490  10.050  16.342  0.00  0.00    +0.000 C 
ATOM     26  C   UNL     1      -1.660  10.113  17.616  0.00  0.00    +0.000 C 
ENDBRANCH  23  26
ENDBRANCH  20  23
ENDBRANCH  18  20
ENDBRANCH  16  18
ENDBRANCH   1  16
TORSDOF 6
ENDMDL
