MODEL 1
REMARK VINA RESULT:      -7.5      0.000      0.000
REMARK  Name = 
REMARK  5 active torsions:
REMARK  status: ('A' for Active; 'I' for Inactive)
REMARK    1  A    between atoms: C_1  and  S_2
REMARK    2  A    between atoms: S_2  and  C_5
REMARK    3  A    between atoms: C_9  and  C_10
REMARK    4  A    between atoms: N_12  and  C_13
REMARK    5  A    between atoms: C_13  and  C_14
REMARK                            x       y       z     vdW  Elec       q    Type
REMARK                         _______ _______ _______ _____ _____    ______ ____
ROOT
ATOM      1  C   UNL     1       2.261   5.801  19.922  0.00  0.00    +0.000 C 
ATOM      2  O   UNL     1       1.445   5.076  20.479  0.00  0.00    +0.000 OA
ATOM      3  N   UNL     1       2.340   7.162  20.118  0.00  0.00    +0.000 N 
ATOM      4  H   UNL     1       2.813   7.726  19.424  0.00  0.00    +0.000 HD
ENDROOT
BRANCH   1   9
ATOM      5  C   UNL     1       5.513   4.903  18.181  0.00  0.00    +0.000 A 
ATOM      6  C   UNL     1       5.059   4.065  17.158  0.00  0.00    +0.000 A 
ATOM      7  C   UNL     1       3.695   3.789  17.052  0.00  0.00    +0.000 A 
ATOM      8  C   UNL     1       2.791   4.359  17.956  0.00  0.00    +0.000 A 
ATOM      9  C   UNL     1       3.246   5.221  18.963  0.00  0.00    +0.000 A 
ATOM     10  C   UNL     1       4.615   5.491  19.079  0.00  0.00    +0.000 A 
BRANCH   5  12
ATOM     11  C   UNL     1       7.352   6.939  17.606  0.00  0.00    +0.000 C 
ATOM     12  S   UNL     1       7.242   5.309  18.290  0.00  0.00    +0.000 S 
ATOM     13  O   UNL     1       7.949   4.398  17.413  0.00  0.00    +0.000 OA
ATOM     14  O   UNL     1       7.575   5.385  19.703  0.00  0.00    +0.000 OA
ENDBRANCH   5  12
ENDBRANCH   1   9
BRANCH   3  15
ATOM     15  C   UNL     1       1.448   7.854  21.023  0.00  0.00    +0.000 C 
BRANCH  15  16
ATOM     16  C   UNL     1       0.852   9.076  20.365  0.00  0.00    +0.000 A 
ATOM     17  C   UNL     1      -0.054   9.890  21.062  0.00  0.00    +0.000 A 
ATOM     18  C   UNL     1      -0.624  11.008  20.446  0.00  0.00    +0.000 A 
ATOM     19  C   UNL     1      -0.286  11.316  19.135  0.00  0.00    +0.000 A 
ATOM     20  F   UNL     1      -0.848  12.377  18.540  0.00  0.00    +0.000 F 
ATOM     21  C   UNL     1       0.625  10.537  18.432  0.00  0.00    +0.000 A 
ATOM     22  C   UNL     1       1.200   9.422  19.047  0.00  0.00    +0.000 A 
ENDBRANCH  15  16
ENDBRANCH   3  15
TORSDOF 4
ENDMDL
MODEL 2
REMARK VINA RESULT:      -7.5      4.638      8.165
REMARK  Name = 
REMARK  5 active torsions:
REMARK  status: ('A' for Active; 'I' for Inactive)
REMARK    1  A    between atoms: C_1  and  S_2
REMARK    2  A    between atoms: S_2  and  C_5
REMARK    3  A    between atoms: C_9  and  C_10
REMARK    4  A    between atoms: N_12  and  C_13
REMARK    5  A    between atoms: C_13  and  C_14
REMARK                            x       y       z     vdW  Elec       q    Type
REMARK                         _______ _______ _______ _____ _____    ______ ____
ROOT
ATOM      1  C   UNL     1       1.807   8.951  18.241  0.00  0.00    +0.000 C 
ATOM      2  O   UNL     1       2.510   8.842  17.244  0.00  0.00    +0.000 OA
ATOM      3  N   UNL     1       1.906   8.132  19.345  0.00  0.00    +0.000 N 
ATOM      4  H   UNL     1       1.122   8.079  19.982  0.00  0.00    +0.000 HD
ENDROOT
BRANCH   1   9
ATOM      5  C   UNL     1      -1.490  10.808  17.932  0.00  0.00    +0.000 A 
ATOM      6  C   UNL     1      -1.172  12.039  18.511  0.00  0.00    +0.000 A 
ATOM      7  C   UNL     1       0.115  12.250  19.010  0.00  0.00    +0.000 A 
ATOM      8  C   UNL     1       1.078  11.240  18.917  0.00  0.00    +0.000 A 
ATOM      9  C   UNL     1       0.764  10.016  18.310  0.00  0.00    +0.000 A 
ATOM     10  C   UNL     1      -0.529   9.797  17.819  0.00  0.00    +0.000 A 
BRANCH   5  12
ATOM     11  C   UNL     1      -2.825  10.437  15.495  0.00  0.00    +0.000 C 
ATOM     12  S   UNL     1      -3.109  10.548  17.239  0.00  0.00    +0.000 S 
ATOM     13  O   UNL     1      -3.880  11.747  17.501  0.00  0.00    +0.000 OA
ATOM     14  O   UNL     1      -3.572   9.252  17.708  0.00  0.00    +0.000 OA
ENDBRANCH   5  12
ENDBRANCH   1   9
BRANCH   3  15
ATOM     15  C   UNL     1       2.877   7.061  19.412  0.00  0.00    +0.000 C 
BRANCH  15  16
ATOM     16  C   UNL     1       2.208   5.716  19.250  0.00  0.00    +0.000 A 
ATOM     17  C   UNL     1       2.149   5.096  17.992  0.00  0.00    +0.000 A 
ATOM     18  C   UNL     1       1.511   3.864  17.836  0.00  0.00    +0.000 A 
ATOM     19  C   UNL     1       0.934   3.245  18.937  0.00  0.00    +0.000 A 
ATOM     20  F   UNL     1       0.305   2.072  18.782  0.00  0.00    +0.000 F 
ATOM     21  C   UNL     1       0.998   3.828  20.197  0.00  0.00    +0.000 A 
ATOM     22  C   UNL     1       1.640   5.059  20.356  0.00  0.00    +0.000 A 
ENDBRANCH  15  16
ENDBRANCH   3  15
TORSDOF 4
ENDMDL
MODEL 3
REMARK VINA RESULT:      -7.5      0.481      1.149
REMARK  Name = 
REMARK  5 active torsions:
REMARK  status: ('A' for Active; 'I' for Inactive)
REMARK    1  A    between atoms: C_1  and  S_2
REMARK    2  A    between atoms: S_2  and  C_5
REMARK    3  A    between atoms: C_9  and  C_10
REMARK    4  A    between atoms: N_12  and  C_13
REMARK    5  A    between atoms: C_13  and  C_14
REMARK                            x       y       z     vdW  Elec       q    Type
REMARK                         _______ _______ _______ _____ _____    ______ ____
ROOT
ATOM      1  C   UNL     1       2.233   5.654  20.011  0.00  0.00    +0.000 C 
ATOM      2  O   UNL     1       1.487   4.873  20.589  0.00  0.00    +0.000 OA
ATOM      3  N   UNL     1       2.191   7.022  20.175  0.00  0.00    +0.000 N 
ATOM      4  H   UNL     1       2.608   7.609  19.465  0.00  0.00    +0.000 HD
ENDROOT
BRANCH   1   9
ATOM      5  C   UNL     1       5.561   4.898  18.348  0.00  0.00    +0.000 A 
ATOM      6  C   UNL     1       5.158   4.113  17.264  0.00  0.00    +0.000 A 
ATOM      7  C   UNL     1       3.803   3.827  17.090  0.00  0.00    +0.000 A 
ATOM      8  C   UNL     1       2.858   4.333  17.989  0.00  0.00    +0.000 A 
ATOM      9  C   UNL     1       3.261   5.143  19.059  0.00  0.00    +0.000 A 
ATOM     10  C   UNL     1       4.621   5.423  19.242  0.00  0.00    +0.000 A 
BRANCH   5  12
ATOM     11  C   UNL     1       7.429   6.909  17.781  0.00  0.00    +0.000 C 
ATOM     12  S   UNL     1       7.279   5.319  18.546  0.00  0.00    +0.000 S 
ATOM     13  O   UNL     1       8.043   4.365  17.768  0.00  0.00    +0.000 OA
ATOM     14  O   UNL     1       7.519   5.475  19.971  0.00  0.00    +0.000 OA
ENDBRANCH   5  12
ENDBRANCH   1   9
BRANCH   3  15
ATOM     15  C   UNL     1       1.244   7.652  21.069  0.00  0.00    +0.000 C 
BRANCH  15  16
ATOM     16  C   UNL     1       0.907   9.048  20.601  0.00  0.00    +0.000 A 
ATOM     17  C   UNL     1       1.142   9.432  19.272  0.00  0.00    +0.000 A 
ATOM     18  C   UNL     1       0.852  10.730  18.844  0.00  0.00    +0.000 A 
ATOM     19  C   UNL     1       0.321  11.646  19.743  0.00  0.00    +0.000 A 
ATOM     20  F   UNL     1       0.061  12.896  19.335  0.00  0.00    +0.000 F 
ATOM     21  C   UNL     1       0.058  11.284  21.058  0.00  0.00    +0.000 A 
ATOM     22  C   UNL     1       0.343   9.985  21.486  0.00  0.00    +0.000 A 
ENDBRANCH  15  16
ENDBRANCH   3  15
TORSDOF 4
ENDMDL
MODEL 4
REMARK VINA RESULT:      -7.5      4.632      8.123
REMARK  Name = 
REMARK  5 active torsions:
REMARK  status: ('A' for Active; 'I' for Inactive)
REMARK    1  A    between atoms: C_1  and  S_2
REMARK    2  A    between atoms: S_2  and  C_5
REMARK    3  A    between atoms: C_9  and  C_10
REMARK    4  A    between atoms: N_12  and  C_13
REMARK    5  A    between atoms: C_13  and  C_14
REMARK                            x       y       z     vdW  Elec       q    Type
REMARK                         _______ _______ _______ _____ _____    ______ ____
ROOT
ATOM      1  C   UNL     1       1.753   8.926  18.296  0.00  0.00    +0.000 C 
ATOM      2  O   UNL     1       2.385   8.769  17.258  0.00  0.00    +0.000 OA
ATOM      3  N   UNL     1       1.912   8.144  19.419  0.00  0.00    +0.000 N 
ATOM      4  H   UNL     1       1.173   8.128  20.108  0.00  0.00    +0.000 HD
ENDROOT
BRANCH   1   9
ATOM      5  C   UNL     1      -1.501  10.867  18.051  0.00  0.00    +0.000 A 
ATOM      6  C   UNL     1      -1.150  12.076  18.657  0.00  0.00    +0.000 A 
ATOM      7  C   UNL     1       0.144  12.245  19.153  0.00  0.00    +0.000 A 
ATOM      8  C   UNL     1       1.082  11.214  19.030  0.00  0.00    +0.000 A 
ATOM      9  C   UNL     1       0.736  10.013  18.397  0.00  0.00    +0.000 A 
ATOM     10  C   UNL     1      -0.564   9.836  17.909  0.00  0.00    +0.000 A 
BRANCH   5  12
ATOM     11  C   UNL     1      -2.891  10.839  15.617  0.00  0.00    +0.000 C 
ATOM     12  S   UNL     1      -3.130  10.661  17.363  0.00  0.00    +0.000 S 
ATOM     13  O   UNL     1      -3.932  11.774  17.829  0.00  0.00    +0.000 OA
ATOM     14  O   UNL     1      -3.537   9.292  17.629  0.00  0.00    +0.000 OA
ENDBRANCH   5  12
ENDBRANCH   1   9
BRANCH   3  15
ATOM     15  C   UNL     1       2.866   7.057  19.459  0.00  0.00    +0.000 C 
BRANCH  15  16
ATOM     16  C   UNL     1       2.180   5.728  19.245  0.00  0.00    +0.000 A 
ATOM     17  C   UNL     1       1.572   5.058  20.317  0.00  0.00    +0.000 A 
ATOM     18  C   UNL     1       0.957   3.818  20.124  0.00  0.00    +0.000 A 
ATOM     19  C   UNL     1       0.944   3.248  18.858  0.00  0.00    +0.000 A 
ATOM     20  F   UNL     1       0.371   2.050  18.679  0.00  0.00    +0.000 F 
ATOM     21  C   UNL     1       1.520   3.902  17.776  0.00  0.00    +0.000 A 
ATOM     22  C   UNL     1       2.131   5.144  17.966  0.00  0.00    +0.000 A 
ENDBRANCH  15  16
ENDBRANCH   3  15
TORSDOF 4
ENDMDL
MODEL 5
REMARK VINA RESULT:      -7.4      4.507      8.001
REMARK  Name = 
REMARK  5 active torsions:
REMARK  status: ('A' for Active; 'I' for Inactive)
REMARK    1  A    between atoms: C_1  and  S_2
REMARK    2  A    between atoms: S_2  and  C_5
REMARK    3  A    between atoms: C_9  and  C_10
REMARK    4  A    between atoms: N_12  and  C_13
REMARK    5  A    between atoms: C_13  and  C_14
REMARK                            x       y       z     vdW  Elec       q    Type
REMARK                         _______ _______ _______ _____ _____    ______ ____
ROOT
ATOM      1  C   UNL     1       1.574   8.815  18.584  0.00  0.00    +0.000 C 
ATOM      2  O   UNL     1       2.127   8.885  17.493  0.00  0.00    +0.000 OA
ATOM      3  N   UNL     1       1.874   7.870  19.540  0.00  0.00    +0.000 N 
ATOM      4  H   UNL     1       1.196   7.680  20.266  0.00  0.00    +0.000 HD
ENDROOT
BRANCH   1   9
ATOM      5  C   UNL     1      -0.517  11.355  20.479  0.00  0.00    +0.000 A 
ATOM      6  C   UNL     1      -1.517  11.644  19.547  0.00  0.00    +0.000 A 
ATOM      7  C   UNL     1      -1.495  11.017  18.301  0.00  0.00    +0.000 A 
ATOM      8  C   UNL     1      -0.485  10.097  17.996  0.00  0.00    +0.000 A 
ATOM      9  C   UNL     1       0.501   9.787  18.943  0.00  0.00    +0.000 A 
ATOM     10  C   UNL     1       0.487  10.424  20.190  0.00  0.00    +0.000 A 
BRANCH   5  12
ATOM     11  C   UNL     1      -2.220  12.725  22.234  0.00  0.00    +0.000 C 
ATOM     12  S   UNL     1      -0.568  12.104  22.093  0.00  0.00    +0.000 S 
ATOM     13  O   UNL     1       0.343  13.232  22.067  0.00  0.00    +0.000 OA
ATOM     14  O   UNL     1      -0.398  11.037  23.065  0.00  0.00    +0.000 OA
ENDBRANCH   5  12
ENDBRANCH   1   9
BRANCH   3  15
ATOM     15  C   UNL     1       2.896   6.868  19.324  0.00  0.00    +0.000 C 
BRANCH  15  16
ATOM     16  C   UNL     1       2.282   5.498  19.154  0.00  0.00    +0.000 A 
ATOM     17  C   UNL     1       2.335   4.842  17.915  0.00  0.00    +0.000 A 
ATOM     18  C   UNL     1       1.747   3.585  17.750  0.00  0.00    +0.000 A 
ATOM     19  C   UNL     1       1.110   2.980  18.825  0.00  0.00    +0.000 A 
ATOM     20  F   UNL     1       0.530   1.783  18.660  0.00  0.00    +0.000 F 
ATOM     21  C   UNL     1       1.063   3.599  20.068  0.00  0.00    +0.000 A 
ATOM     22  C   UNL     1       1.654   4.854  20.235  0.00  0.00    +0.000 A 
ENDBRANCH  15  16
ENDBRANCH   3  15
TORSDOF 4
ENDMDL
MODEL 6
REMARK VINA RESULT:      -7.3      4.601      8.139
REMARK  Name = 
REMARK  5 active torsions:
REMARK  status: ('A' for Active; 'I' for Inactive)
REMARK    1  A    between atoms: C_1  and  S_2
REMARK    2  A    between atoms: S_2  and  C_5
REMARK    3  A    between atoms: C_9  and  C_10
REMARK    4  A    between atoms: N_12  and  C_13
REMARK    5  A    between atoms: C_13  and  C_14
REMARK                            x       y       z     vdW  Elec       q    Type
REMARK                         _______ _______ _______ _____ _____    ______ ____
ROOT
ATOM      1  C   UNL     1       1.800   8.887  18.293  0.00  0.00    +0.000 C 
ATOM      2  O   UNL     1       2.455   8.764  17.266  0.00  0.00    +0.000 OA
ATOM      3  N   UNL     1       1.939   8.073  19.396  0.00  0.00    +0.000 N 
ATOM      4  H   UNL     1       1.184   8.032  20.068  0.00  0.00    +0.000 HD
ENDROOT
BRANCH   1   9
ATOM      5  C   UNL     1      -1.466  10.809  18.051  0.00  0.00    +0.000 A 
ATOM      6  C   UNL     1      -1.130  12.009  18.682  0.00  0.00    +0.000 A 
ATOM      7  C   UNL     1       0.158  12.178  19.194  0.00  0.00    +0.000 A 
ATOM      8  C   UNL     1       1.105  11.157  19.062  0.00  0.00    +0.000 A 
ATOM      9  C   UNL     1       0.774   9.964  18.404  0.00  0.00    +0.000 A 
ATOM     10  C   UNL     1      -0.520   9.788  17.899  0.00  0.00    +0.000 A 
BRANCH   5  12
ATOM     11  C   UNL     1      -4.095  11.767  18.219  0.00  0.00    +0.000 C 
ATOM     12  S   UNL     1      -3.086  10.604  17.343  0.00  0.00    +0.000 S 
ATOM     13  O   UNL     1      -3.531   9.267  17.681  0.00  0.00    +0.000 OA
ATOM     14  O   UNL     1      -3.002  11.029  15.955  0.00  0.00    +0.000 OA
ENDBRANCH   5  12
ENDBRANCH   1   9
BRANCH   3  15
ATOM     15  C   UNL     1       2.899   6.990  19.426  0.00  0.00    +0.000 C 
BRANCH  15  16
ATOM     16  C   UNL     1       2.216   5.658  19.222  0.00  0.00    +0.000 A 
ATOM     17  C   UNL     1       1.599   5.001  20.297  0.00  0.00    +0.000 A 
ATOM     18  C   UNL     1       0.988   3.757  20.114  0.00  0.00    +0.000 A 
ATOM     19  C   UNL     1       0.987   3.171  18.855  0.00  0.00    +0.000 A 
ATOM     20  F   UNL     1       0.417   1.971  18.686  0.00  0.00    +0.000 F 
ATOM     21  C   UNL     1       1.572   3.812  17.770  0.00  0.00    +0.000 A 
ATOM     22  C   UNL     1       2.180   5.058  17.950  0.00  0.00    +0.000 A 
ENDBRANCH  15  16
ENDBRANCH   3  15
TORSDOF 4
ENDMDL
MODEL 7
REMARK VINA RESULT:      -7.3      4.797      8.289
REMARK  Name = 
REMARK  5 active torsions:
REMARK  status: ('A' for Active; 'I' for Inactive)
REMARK    1  A    between atoms: C_1  and  S_2
REMARK    2  A    between atoms: S_2  and  C_5
REMARK    3  A    between atoms: C_9  and  C_10
REMARK    4  A    between atoms: N_12  and  C_13
REMARK    5  A    between atoms: C_13  and  C_14
REMARK                            x       y       z     vdW  Elec       q    Type
REMARK                         _______ _______ _______ _____ _____    ______ ____
ROOT
ATOM      1  C   UNL     1       1.385   8.671  19.969  0.00  0.00    +0.000 C 
ATOM      2  O   UNL     1       1.431   9.057  18.807  0.00  0.00    +0.000 OA
ATOM      3  N   UNL     1       2.031   7.545  20.431  0.00  0.00    +0.000 N 
ATOM      4  H   UNL     1       1.715   7.125  21.295  0.00  0.00    +0.000 HD
ENDROOT
BRANCH   1   9
ATOM      5  C   UNL     1      -0.924  11.216  21.584  0.00  0.00    +0.000 A 
ATOM      6  C   UNL     1      -0.918  10.791  22.915  0.00  0.00    +0.000 A 
ATOM      7  C   UNL     1      -0.170   9.669  23.274  0.00  0.00    +0.000 A 
ATOM      8  C   UNL     1       0.578   8.986  22.308  0.00  0.00    +0.000 A 
ATOM      9  C   UNL     1       0.593   9.430  20.979  0.00  0.00    +0.000 A 
ATOM     10  C   UNL     1      -0.166  10.549  20.614  0.00  0.00    +0.000 A 
BRANCH   5  12
ATOM     11  C   UNL     1      -2.612  12.247  19.598  0.00  0.00    +0.000 C 
ATOM     12  S   UNL     1      -1.827  12.679  21.125  0.00  0.00    +0.000 S 
ATOM     13  O   UNL     1      -0.850  13.715  20.859  0.00  0.00    +0.000 OA
ATOM     14  O   UNL     1      -2.861  12.876  22.128  0.00  0.00    +0.000 OA
ENDBRANCH   5  12
ENDBRANCH   1   9
BRANCH   3  15
ATOM     15  C   UNL     1       2.837   6.719  19.559  0.00  0.00    +0.000 C 
BRANCH  15  16
ATOM     16  C   UNL     1       2.166   5.389  19.305  0.00  0.00    +0.000 A 
ATOM     17  C   UNL     1       1.526   4.702  20.348  0.00  0.00    +0.000 A 
ATOM     18  C   UNL     1       0.926   3.461  20.119  0.00  0.00    +0.000 A 
ATOM     19  C   UNL     1       0.960   2.906  18.846  0.00  0.00    +0.000 A 
ATOM     20  F   UNL     1       0.401   1.708  18.633  0.00  0.00    +0.000 F 
ATOM     21  C   UNL     1       1.569   3.577  17.793  0.00  0.00    +0.000 A 
ATOM     22  C   UNL     1       2.166   4.820  18.019  0.00  0.00    +0.000 A 
ENDBRANCH  15  16
ENDBRANCH   3  15
TORSDOF 4
ENDMDL
MODEL 8
REMARK VINA RESULT:      -7.3      0.845      1.479
REMARK  Name = 
REMARK  5 active torsions:
REMARK  status: ('A' for Active; 'I' for Inactive)
REMARK    1  A    between atoms: C_1  and  S_2
REMARK    2  A    between atoms: S_2  and  C_5
REMARK    3  A    between atoms: C_9  and  C_10
REMARK    4  A    between atoms: N_12  and  C_13
REMARK    5  A    between atoms: C_13  and  C_14
REMARK                            x       y       z     vdW  Elec       q    Type
REMARK                         _______ _______ _______ _____ _____    ______ ____
ROOT
ATOM      1  C   UNL     1       2.308   5.832  19.931  0.00  0.00    +0.000 C 
ATOM      2  O   UNL     1       1.637   5.105  20.653  0.00  0.00    +0.000 OA
ATOM      3  N   UNL     1       2.323   7.207  20.024  0.00  0.00    +0.000 N 
ATOM      4  H   UNL     1       2.645   7.744  19.230  0.00  0.00    +0.000 HD
ENDROOT
BRANCH   1   9
ATOM      5  C   UNL     1       5.295   5.058  17.718  0.00  0.00    +0.000 A 
ATOM      6  C   UNL     1       4.775   4.061  16.888  0.00  0.00    +0.000 A 
ATOM      7  C   UNL     1       3.456   3.640  17.065  0.00  0.00    +0.000 A 
ATOM      8  C   UNL     1       2.660   4.222  18.057  0.00  0.00    +0.000 A 
ATOM      9  C   UNL     1       3.175   5.242  18.870  0.00  0.00    +0.000 A 
ATOM     10  C   UNL     1       4.501   5.659  18.702  0.00  0.00    +0.000 A 
BRANCH   5  12
ATOM     11  C   UNL     1       7.608   5.830  19.099  0.00  0.00    +0.000 C 
ATOM     12  S   UNL     1       6.956   5.645  17.463  0.00  0.00    +0.000 S 
ATOM     13  O   UNL     1       6.854   6.959  16.861  0.00  0.00    +0.000 OA
ATOM     14  O   UNL     1       7.688   4.580  16.799  0.00  0.00    +0.000 OA
ENDBRANCH   5  12
ENDBRANCH   1   9
BRANCH   3  15
ATOM     15  C   UNL     1       1.531   7.911  21.010  0.00  0.00    +0.000 C 
BRANCH  15  16
ATOM     16  C   UNL     1       0.850   9.112  20.398  0.00  0.00    +0.000 A 
ATOM     17  C   UNL     1       1.134   9.498  19.079  0.00  0.00    +0.000 A 
ATOM     18  C   UNL     1       0.522  10.623  18.520  0.00  0.00    +0.000 A 
ATOM     19  C   UNL     1      -0.380  11.361  19.276  0.00  0.00    +0.000 A 
ATOM     20  F   UNL     1      -0.951  12.450  18.745  0.00  0.00    +0.000 F 
ATOM     21  C   UNL     1      -0.694  10.986  20.576  0.00  0.00    +0.000 A 
ATOM     22  C   UNL     1      -0.086   9.859  21.136  0.00  0.00    +0.000 A 
ENDBRANCH  15  16
ENDBRANCH   3  15
TORSDOF 4
ENDMDL
MODEL 9
REMARK VINA RESULT:      -7.3      3.968      7.588
REMARK  Name = 
REMARK  5 active torsions:
REMARK  status: ('A' for Active; 'I' for Inactive)
REMARK    1  A    between atoms: C_1  and  S_2
REMARK    2  A    between atoms: S_2  and  C_5
REMARK    3  A    between atoms: C_9  and  C_10
REMARK    4  A    between atoms: N_12  and  C_13
REMARK    5  A    between atoms: C_13  and  C_14
REMARK                            x       y       z     vdW  Elec       q    Type
REMARK                         _______ _______ _______ _____ _____    ______ ____
ROOT
ATOM      1  C   UNL     1       2.869   5.994  18.695  0.00  0.00    +0.000 C 
ATOM      2  O   UNL     1       2.181   5.016  18.426  0.00  0.00    +0.000 OA
ATOM      3  N   UNL     1       4.242   5.963  18.802  0.00  0.00    +0.000 N 
ATOM      4  H   UNL     1       4.706   6.703  19.311  0.00  0.00    +0.000 HD
ENDROOT
BRANCH   1   9
ATOM      5  C   UNL     1       1.129   8.915  20.384  0.00  0.00    +0.000 A 
ATOM      6  C   UNL     1       1.070   9.844  19.343  0.00  0.00    +0.000 A 
ATOM      7  C   UNL     1       1.610   9.515  18.098  0.00  0.00    +0.000 A 
ATOM      8  C   UNL     1       2.193   8.259  17.897  0.00  0.00    +0.000 A 
ATOM      9  C   UNL     1       2.226   7.318  18.935  0.00  0.00    +0.000 A 
ATOM     10  C   UNL     1       1.694   7.650  20.187  0.00  0.00    +0.000 A 
BRANCH   5  12
ATOM     11  C   UNL     1      -0.309  10.912  21.728  0.00  0.00    +0.000 C 
ATOM     12  S   UNL     1       0.391   9.301  21.957  0.00  0.00    +0.000 S 
ATOM     13  O   UNL     1       1.470   9.404  22.919  0.00  0.00    +0.000 OA
ATOM     14  O   UNL     1      -0.697   8.358  22.162  0.00  0.00    +0.000 OA
ENDBRANCH   5  12
ENDBRANCH   1   9
BRANCH   3  15
ATOM     15  C   UNL     1       4.994   4.744  18.592  0.00  0.00    +0.000 C 
BRANCH  15  16
ATOM     16  C   UNL     1       5.573   4.702  17.197  0.00  0.00    +0.000 A 
ATOM     17  C   UNL     1       4.801   4.248  16.117  0.00  0.00    +0.000 A 
ATOM     18  C   UNL     1       5.344   4.186  14.831  0.00  0.00    +0.000 A 
ATOM     19  C   UNL     1       6.658   4.583  14.621  0.00  0.00    +0.000 A 
ATOM     20  F   UNL     1       7.183   4.505  13.391  0.00  0.00    +0.000 F 
ATOM     21  C   UNL     1       7.436   5.056  15.670  0.00  0.00    +0.000 A 
ATOM     22  C   UNL     1       6.893   5.123  16.956  0.00  0.00    +0.000 A 
ENDBRANCH  15  16
ENDBRANCH   3  15
TORSDOF 4
ENDMDL
