MODEL 1
REMARK VINA RESULT:      -8.3      0.000      0.000
REMARK  Name = 
REMARK  7 active torsions:
REMARK  status: ('A' for Active; 'I' for Inactive)
REMARK    1  A    between atoms: C_1  and  O_2
REMARK    2  A    between atoms: O_2  and  C_3
REMARK    3  A    between atoms: C_6  and  C_7
REMARK    4  A    between atoms: C_10  and  C_11
REMARK    5  A    between atoms: N_18  and  C_19
REMARK    6  A    between atoms: C_28  and  O_29
REMARK    7  A    between atoms: O_29  and  C_30
REMARK                            x       y       z     vdW  Elec       q    Type
REMARK                         _______ _______ _______ _____ _____    ______ ____
ROOT
ATOM      1  C   UNL     1       2.907   7.585  17.451  0.00  0.00    +0.000 C 
ATOM      2  C   UNL     1       2.333   8.544  18.189  0.00  0.00    +0.000 C 
ATOM      3  N   UNL     1       1.983   9.788  17.699  0.00  0.00    +0.000 NA
ATOM      4  C   UNL     1       1.367  10.376  18.690  0.00  0.00    +0.000 C 
ATOM      5  N   UNL     1       1.254   9.622  19.829  0.00  0.00    +0.000 N 
ATOM      6  C   UNL     1       1.924   8.438  19.630  0.00  0.00    +0.000 C 
ATOM      7  O   UNL     1       2.130   7.522  20.407  0.00  0.00    +0.000 OA
ENDROOT
BRANCH   4   8
ATOM      8  C   UNL     1       0.911  11.789  18.604  0.00  0.00    +0.000 A 
ATOM      9  C   UNL     1       1.839  12.823  18.785  0.00  0.00    +0.000 A 
ATOM     10  C   UNL     1       1.421  14.160  18.753  0.00  0.00    +0.000 A 
ATOM     11  C   UNL     1       0.077  14.465  18.540  0.00  0.00    +0.000 A 
ATOM     12 CL   UNL     1      -0.439  16.105  18.494  0.00  0.00    +0.000 Cl
ATOM     13  C   UNL     1      -0.856  13.449  18.382  0.00  0.00    +0.000 A 
ATOM     14  C   UNL     1      -0.443  12.116  18.440  0.00  0.00    +0.000 A 
ENDBRANCH   4   8
BRANCH   1  18
ATOM     15  C   UNL     1       3.750   3.539  18.519  0.00  0.00    +0.000 A 
ATOM     16  C   UNL     1       2.433   3.933  18.216  0.00  0.00    +0.000 A 
ATOM     17  C   UNL     1       2.130   5.258  17.900  0.00  0.00    +0.000 A 
ATOM     18  C   UNL     1       3.137   6.219  17.925  0.00  0.00    +0.000 A 
ATOM     19  C   UNL     1       4.421   5.851  18.341  0.00  0.00    +0.000 A 
ATOM     20  C   UNL     1       4.744   4.519  18.643  0.00  0.00    +0.000 A 
BRANCH  15  22
ATOM     21  C   UNL     1       4.224   1.823  20.069  0.00  0.00    +0.000 C 
ATOM     22  O   UNL     1       4.058   2.217  18.705  0.00  0.00    +0.000 OA
ENDBRANCH  15  22
BRANCH  20  23
ATOM     23  O   UNL     1       6.058   4.387  18.999  0.00  0.00    +0.000 OA
ATOM     24  C   UNL     1       6.887   5.535  19.049  0.00  0.00    +0.000 C 
ENDBRANCH  20  23
ENDBRANCH   1  18
BRANCH   5  25
ATOM     25  C   UNL     1       0.516   9.882  20.997  0.00  0.00    +0.000 A 
ATOM     26  C   UNL     1       0.308  11.204  21.398  0.00  0.00    +0.000 A 
ATOM     27  C   UNL     1      -0.503  11.480  22.499  0.00  0.00    +0.000 A 
ATOM     28  C   UNL     1      -1.057  10.435  23.236  0.00  0.00    +0.000 A 
ATOM     29  C   UNL     1      -0.819   9.112  22.863  0.00  0.00    +0.000 A 
ATOM     30  C   UNL     1      -0.049   8.833  21.732  0.00  0.00    +0.000 A 
ENDBRANCH   5  25
TORSDOF 5
ENDMDL
MODEL 2
REMARK VINA RESULT:      -8.2      0.411      1.198
REMARK  Name = 
REMARK  7 active torsions:
REMARK  status: ('A' for Active; 'I' for Inactive)
REMARK    1  A    between atoms: C_1  and  O_2
REMARK    2  A    between atoms: O_2  and  C_3
REMARK    3  A    between atoms: C_6  and  C_7
REMARK    4  A    between atoms: C_10  and  C_11
REMARK    5  A    between atoms: N_18  and  C_19
REMARK    6  A    between atoms: C_28  and  O_29
REMARK    7  A    between atoms: O_29  and  C_30
REMARK                            x       y       z     vdW  Elec       q    Type
REMARK                         _______ _______ _______ _____ _____    ______ ____
ROOT
ATOM      1  C   UNL     1       2.902   7.660  17.463  0.00  0.00    +0.000 C 
ATOM      2  C   UNL     1       2.329   8.599  18.229  0.00  0.00    +0.000 C 
ATOM      3  N   UNL     1       2.027   9.873  17.787  0.00  0.00    +0.000 NA
ATOM      4  C   UNL     1       1.395  10.431  18.786  0.00  0.00    +0.000 C 
ATOM      5  N   UNL     1       1.226   9.627  19.884  0.00  0.00    +0.000 N 
ATOM      6  C   UNL     1       1.871   8.436  19.649  0.00  0.00    +0.000 C 
ATOM      7  O   UNL     1       2.029   7.480  20.388  0.00  0.00    +0.000 OA
ENDROOT
BRANCH   4   8
ATOM      8  C   UNL     1       0.979  11.859  18.753  0.00  0.00    +0.000 A 
ATOM      9  C   UNL     1      -0.292  12.193  18.268  0.00  0.00    +0.000 A 
ATOM     10  C   UNL     1      -0.685  13.535  18.185  0.00  0.00    +0.000 A 
ATOM     11  C   UNL     1       0.190  14.544  18.589  0.00  0.00    +0.000 A 
ATOM     12 CL   UNL     1      -0.291  16.192  18.495  0.00  0.00    +0.000 Cl
ATOM     13  C   UNL     1       1.461  14.227  19.050  0.00  0.00    +0.000 A 
ATOM     14  C   UNL     1       1.862  12.890  19.107  0.00  0.00    +0.000 A 
ENDBRANCH   4   8
BRANCH   1  18
ATOM     15  C   UNL     1       3.602   3.546  18.361  0.00  0.00    +0.000 A 
ATOM     16  C   UNL     1       2.305   3.993  18.047  0.00  0.00    +0.000 A 
ATOM     17  C   UNL     1       2.048   5.340  17.786  0.00  0.00    +0.000 A 
ATOM     18  C   UNL     1       3.081   6.267  17.878  0.00  0.00    +0.000 A 
ATOM     19  C   UNL     1       4.344   5.843  18.306  0.00  0.00    +0.000 A 
ATOM     20  C   UNL     1       4.621   4.490  18.554  0.00  0.00    +0.000 A 
BRANCH  15  22
ATOM     21  C   UNL     1       4.155   1.779  19.825  0.00  0.00    +0.000 C 
ATOM     22  O   UNL     1       3.868   2.208  18.493  0.00  0.00    +0.000 OA
ENDBRANCH  15  22
BRANCH  20  23
ATOM     23  O   UNL     1       5.922   4.302  18.933  0.00  0.00    +0.000 OA
ATOM     24  C   UNL     1       6.747   5.428  19.177  0.00  0.00    +0.000 C 
ENDBRANCH  20  23
ENDBRANCH   1  18
BRANCH   5  25
ATOM     25  C   UNL     1       0.458   9.852  21.039  0.00  0.00    +0.000 A 
ATOM     26  C   UNL     1       0.761   9.157  22.213  0.00  0.00    +0.000 A 
ATOM     27  C   UNL     1       0.071   9.441  23.391  0.00  0.00    +0.000 A 
ATOM     28  C   UNL     1      -0.964  10.376  23.385  0.00  0.00    +0.000 A 
ATOM     29  C   UNL     1      -1.297  11.043  22.206  0.00  0.00    +0.000 A 
ATOM     30  C   UNL     1      -0.575  10.798  21.036  0.00  0.00    +0.000 A 
ENDBRANCH   5  25
TORSDOF 5
ENDMDL
MODEL 3
REMARK VINA RESULT:      -8.2      1.238      2.256
REMARK  Name = 
REMARK  7 active torsions:
REMARK  status: ('A' for Active; 'I' for Inactive)
REMARK    1  A    between atoms: C_1  and  O_2
REMARK    2  A    between atoms: O_2  and  C_3
REMARK    3  A    between atoms: C_6  and  C_7
REMARK    4  A    between atoms: C_10  and  C_11
REMARK    5  A    between atoms: N_18  and  C_19
REMARK    6  A    between atoms: C_28  and  O_29
REMARK    7  A    between atoms: O_29  and  C_30
REMARK                            x       y       z     vdW  Elec       q    Type
REMARK                         _______ _______ _______ _____ _____    ______ ____
ROOT
ATOM      1  C   UNL     1       3.225   6.898  17.167  0.00  0.00    +0.000 C 
ATOM      2  C   UNL     1       2.663   7.790  17.993  0.00  0.00    +0.000 C 
ATOM      3  N   UNL     1       2.229   9.041  17.596  0.00  0.00    +0.000 NA
ATOM      4  C   UNL     1       1.658   9.548  18.657  0.00  0.00    +0.000 C 
ATOM      5  N   UNL     1       1.653   8.730  19.757  0.00  0.00    +0.000 N 
ATOM      6  C   UNL     1       2.357   7.590  19.449  0.00  0.00    +0.000 C 
ATOM      7  O   UNL     1       2.653   6.645  20.160  0.00  0.00    +0.000 OA
ENDROOT
BRANCH   4   8
ATOM      8  C   UNL     1       1.139  10.941  18.679  0.00  0.00    +0.000 A 
ATOM      9  C   UNL     1      -0.232  11.168  18.502  0.00  0.00    +0.000 A 
ATOM     10  C   UNL     1      -0.734  12.475  18.473  0.00  0.00    +0.000 A 
ATOM     11  C   UNL     1       0.132  13.557  18.622  0.00  0.00    +0.000 A 
ATOM     12 CL   UNL     1      -0.481  15.164  18.593  0.00  0.00    +0.000 Cl
ATOM     13  C   UNL     1       1.496  13.348  18.774  0.00  0.00    +0.000 A 
ATOM     14  C   UNL     1       2.000  12.045  18.777  0.00  0.00    +0.000 A 
ENDBRANCH   4   8
BRANCH   1  18
ATOM     15  C   UNL     1       3.968   2.941  18.586  0.00  0.00    +0.000 A 
ATOM     16  C   UNL     1       5.016   3.879  18.516  0.00  0.00    +0.000 A 
ATOM     17  C   UNL     1       4.802   5.166  18.022  0.00  0.00    +0.000 A 
ATOM     18  C   UNL     1       3.543   5.520  17.548  0.00  0.00    +0.000 A 
ATOM     19  C   UNL     1       2.532   4.554  17.506  0.00  0.00    +0.000 A 
ATOM     20  C   UNL     1       2.728   3.261  18.018  0.00  0.00    +0.000 A 
BRANCH  15  22
ATOM     21  C   UNL     1       4.558   1.785  20.558  0.00  0.00    +0.000 C 
ATOM     22  O   UNL     1       4.158   1.725  19.187  0.00  0.00    +0.000 OA
ENDBRANCH  15  22
BRANCH  20  23
ATOM     23  O   UNL     1       1.601   2.496  17.898  0.00  0.00    +0.000 OA
ATOM     24  C   UNL     1       0.708   2.391  18.993  0.00  0.00    +0.000 C 
ENDBRANCH  20  23
ENDBRANCH   1  18
BRANCH   5  25
ATOM     25  C   UNL     1       0.986   8.895  20.983  0.00  0.00    +0.000 A 
ATOM     26  C   UNL     1       1.716   9.244  22.122  0.00  0.00    +0.000 A 
ATOM     27  C   UNL     1       1.055   9.506  23.323  0.00  0.00    +0.000 A 
ATOM     28  C   UNL     1      -0.329   9.360  23.402  0.00  0.00    +0.000 A 
ATOM     29  C   UNL     1      -1.058   8.973  22.278  0.00  0.00    +0.000 A 
ATOM     30  C   UNL     1      -0.406   8.759  21.062  0.00  0.00    +0.000 A 
ENDBRANCH   5  25
TORSDOF 5
ENDMDL
MODEL 4
REMARK VINA RESULT:      -8.2      1.223      2.121
REMARK  Name = 
REMARK  7 active torsions:
REMARK  status: ('A' for Active; 'I' for Inactive)
REMARK    1  A    between atoms: C_1  and  O_2
REMARK    2  A    between atoms: O_2  and  C_3
REMARK    3  A    between atoms: C_6  and  C_7
REMARK    4  A    between atoms: C_10  and  C_11
REMARK    5  A    between atoms: N_18  and  C_19
REMARK    6  A    between atoms: C_28  and  O_29
REMARK    7  A    between atoms: O_29  and  C_30
REMARK                            x       y       z     vdW  Elec       q    Type
REMARK                         _______ _______ _______ _____ _____    ______ ____
ROOT
ATOM      1  C   UNL     1       3.264   6.907  17.161  0.00  0.00    +0.000 C 
ATOM      2  C   UNL     1       2.686   7.815  17.958  0.00  0.00    +0.000 C 
ATOM      3  N   UNL     1       2.250   9.053  17.525  0.00  0.00    +0.000 NA
ATOM      4  C   UNL     1       1.662   9.583  18.565  0.00  0.00    +0.000 C 
ATOM      5  N   UNL     1       1.649   8.793  19.685  0.00  0.00    +0.000 N 
ATOM      6  C   UNL     1       2.363   7.650  19.415  0.00  0.00    +0.000 C 
ATOM      7  O   UNL     1       2.656   6.724  20.152  0.00  0.00    +0.000 OA
ENDROOT
BRANCH   4   8
ATOM      8  C   UNL     1       1.135  10.973  18.546  0.00  0.00    +0.000 A 
ATOM      9  C   UNL     1       2.028  12.049  18.630  0.00  0.00    +0.000 A 
ATOM     10  C   UNL     1       1.549  13.364  18.660  0.00  0.00    +0.000 A 
ATOM     11  C   UNL     1       0.176  13.607  18.605  0.00  0.00    +0.000 A 
ATOM     12 CL   UNL     1      -0.416  15.221  18.636  0.00  0.00    +0.000 Cl
ATOM     13  C   UNL     1      -0.721  12.549  18.546  0.00  0.00    +0.000 A 
ATOM     14  C   UNL     1      -0.243  11.236  18.542  0.00  0.00    +0.000 A 
ENDBRANCH   4   8
BRANCH   1  18
ATOM     15  C   UNL     1       4.002   2.987  18.682  0.00  0.00    +0.000 A 
ATOM     16  C   UNL     1       5.038   3.940  18.644  0.00  0.00    +0.000 A 
ATOM     17  C   UNL     1       4.827   5.215  18.117  0.00  0.00    +0.000 A 
ATOM     18  C   UNL     1       3.585   5.541  17.580  0.00  0.00    +0.000 A 
ATOM     19  C   UNL     1       2.593   4.557  17.509  0.00  0.00    +0.000 A 
ATOM     20  C   UNL     1       2.785   3.277  18.051  0.00  0.00    +0.000 A 
BRANCH  15  22
ATOM     21  C   UNL     1       4.506   1.874  20.701  0.00  0.00    +0.000 C 
ATOM     22  O   UNL     1       4.183   1.784  19.312  0.00  0.00    +0.000 OA
ENDBRANCH  15  22
BRANCH  20  23
ATOM     23  O   UNL     1       1.676   2.491  17.893  0.00  0.00    +0.000 OA
ATOM     24  C   UNL     1       0.720   2.414  18.935  0.00  0.00    +0.000 C 
ENDBRANCH  20  23
ENDBRANCH   1  18
BRANCH   5  25
ATOM     25  C   UNL     1       0.965   8.983  20.899  0.00  0.00    +0.000 A 
ATOM     26  C   UNL     1      -0.399   8.691  20.972  0.00  0.00    +0.000 A 
ATOM     27  C   UNL     1      -1.069   8.783  22.193  0.00  0.00    +0.000 A 
ATOM     28  C   UNL     1      -0.390   9.224  23.328  0.00  0.00    +0.000 A 
ATOM     29  C   UNL     1       0.962   9.556  23.250  0.00  0.00    +0.000 A 
ATOM     30  C   UNL     1       1.648   9.417  22.042  0.00  0.00    +0.000 A 
ENDBRANCH   5  25
TORSDOF 5
ENDMDL
MODEL 5
REMARK VINA RESULT:      -7.9      4.864      9.719
REMARK  Name = 
REMARK  7 active torsions:
REMARK  status: ('A' for Active; 'I' for Inactive)
REMARK    1  A    between atoms: C_1  and  O_2
REMARK    2  A    between atoms: O_2  and  C_3
REMARK    3  A    between atoms: C_6  and  C_7
REMARK    4  A    between atoms: C_10  and  C_11
REMARK    5  A    between atoms: N_18  and  C_19
REMARK    6  A    between atoms: C_28  and  O_29
REMARK    7  A    between atoms: O_29  and  C_30
REMARK                            x       y       z     vdW  Elec       q    Type
REMARK                         _______ _______ _______ _____ _____    ______ ____
ROOT
ATOM      1  C   UNL     1      -1.252  12.536  23.063  0.00  0.00    +0.000 C 
ATOM      2  C   UNL     1      -1.054  11.953  21.873  0.00  0.00    +0.000 C 
ATOM      3  N   UNL     1      -0.060  11.024  21.627  0.00  0.00    +0.000 NA
ATOM      4  C   UNL     1      -0.269  10.630  20.399  0.00  0.00    +0.000 C 
ATOM      5  N   UNL     1      -1.346  11.212  19.781  0.00  0.00    +0.000 N 
ATOM      6  C   UNL     1      -1.876  12.150  20.633  0.00  0.00    +0.000 C 
ATOM      7  O   UNL     1      -2.788  12.938  20.451  0.00  0.00    +0.000 OA
ENDROOT
BRANCH   4   8
ATOM      8  C   UNL     1       0.654   9.691  19.707  0.00  0.00    +0.000 A 
ATOM      9  C   UNL     1       1.120   8.559  20.388  0.00  0.00    +0.000 A 
ATOM     10  C   UNL     1       2.026   7.687  19.771  0.00  0.00    +0.000 A 
ATOM     11  C   UNL     1       2.467   7.944  18.473  0.00  0.00    +0.000 A 
ATOM     12 CL   UNL     1       3.575   6.874  17.709  0.00  0.00    +0.000 Cl
ATOM     13  C   UNL     1       2.031   9.076  17.796  0.00  0.00    +0.000 A 
ATOM     14  C   UNL     1       1.148   9.959  18.422  0.00  0.00    +0.000 A 
ENDBRANCH   4   8
BRANCH   1  18
ATOM     15  C   UNL     1      -4.723  14.954  23.633  0.00  0.00    +0.000 A 
ATOM     16  C   UNL     1      -3.476  15.553  23.372  0.00  0.00    +0.000 A 
ATOM     17  C   UNL     1      -2.323  14.783  23.219  0.00  0.00    +0.000 A 
ATOM     18  C   UNL     1      -2.393  13.401  23.367  0.00  0.00    +0.000 A 
ATOM     19  C   UNL     1      -3.607  12.816  23.744  0.00  0.00    +0.000 A 
ATOM     20  C   UNL     1      -4.779  13.576  23.882  0.00  0.00    +0.000 A 
BRANCH  15  22
ATOM     21  C   UNL     1      -6.336  16.134  22.377  0.00  0.00    +0.000 C 
ATOM     22  O   UNL     1      -5.868  15.706  23.657  0.00  0.00    +0.000 OA
ENDBRANCH  15  22
BRANCH  20  23
ATOM     23  O   UNL     1      -5.849  12.795  24.227  0.00  0.00    +0.000 OA
ATOM     24  C   UNL     1      -6.857  12.529  23.269  0.00  0.00    +0.000 C 
ENDBRANCH  20  23
ENDBRANCH   1  18
BRANCH   5  25
ATOM     25  C   UNL     1      -1.939  10.896  18.546  0.00  0.00    +0.000 A 
ATOM     26  C   UNL     1      -2.695   9.727  18.426  0.00  0.00    +0.000 A 
ATOM     27  C   UNL     1      -3.369   9.449  17.237  0.00  0.00    +0.000 A 
ATOM     28  C   UNL     1      -3.240  10.309  16.146  0.00  0.00    +0.000 A 
ATOM     29  C   UNL     1      -2.454  11.456  16.249  0.00  0.00    +0.000 A 
ATOM     30  C   UNL     1      -1.819  11.763  17.454  0.00  0.00    +0.000 A 
ENDBRANCH   5  25
TORSDOF 5
ENDMDL
MODEL 6
REMARK VINA RESULT:      -7.8      0.944      2.101
REMARK  Name = 
REMARK  7 active torsions:
REMARK  status: ('A' for Active; 'I' for Inactive)
REMARK    1  A    between atoms: C_1  and  O_2
REMARK    2  A    between atoms: O_2  and  C_3
REMARK    3  A    between atoms: C_6  and  C_7
REMARK    4  A    between atoms: C_10  and  C_11
REMARK    5  A    between atoms: N_18  and  C_19
REMARK    6  A    between atoms: C_28  and  O_29
REMARK    7  A    between atoms: O_29  and  C_30
REMARK                            x       y       z     vdW  Elec       q    Type
REMARK                         _______ _______ _______ _____ _____    ______ ____
ROOT
ATOM      1  C   UNL     1       2.955   7.612  17.375  0.00  0.00    +0.000 C 
ATOM      2  C   UNL     1       2.402   8.547  18.160  0.00  0.00    +0.000 C 
ATOM      3  N   UNL     1       2.055   9.811  17.723  0.00  0.00    +0.000 NA
ATOM      4  C   UNL     1       1.463  10.367  18.748  0.00  0.00    +0.000 C 
ATOM      5  N   UNL     1       1.363   9.570  19.859  0.00  0.00    +0.000 N 
ATOM      6  C   UNL     1       2.018   8.389  19.602  0.00  0.00    +0.000 C 
ATOM      7  O   UNL     1       2.230   7.443  20.340  0.00  0.00    +0.000 OA
ENDROOT
BRANCH   4   8
ATOM      8  C   UNL     1       1.018  11.786  18.723  0.00  0.00    +0.000 A 
ATOM      9  C   UNL     1      -0.278  12.093  18.291  0.00  0.00    +0.000 A 
ATOM     10  C   UNL     1      -0.700  13.427  18.217  0.00  0.00    +0.000 A 
ATOM     11  C   UNL     1       0.172  14.454  18.576  0.00  0.00    +0.000 A 
ATOM     12 CL   UNL     1      -0.344  16.093  18.492  0.00  0.00    +0.000 Cl
ATOM     13  C   UNL     1       1.467  14.165  18.983  0.00  0.00    +0.000 A 
ATOM     14  C   UNL     1       1.896  12.836  19.032  0.00  0.00    +0.000 A 
ENDBRANCH   4   8
BRANCH   1  18
ATOM     15  C   UNL     1       3.414   3.646  18.885  0.00  0.00    +0.000 A 
ATOM     16  C   UNL     1       4.510   4.530  18.869  0.00  0.00    +0.000 A 
ATOM     17  C   UNL     1       4.390   5.819  18.346  0.00  0.00    +0.000 A 
ATOM     18  C   UNL     1       3.181   6.227  17.792  0.00  0.00    +0.000 A 
ATOM     19  C   UNL     1       2.128   5.310  17.700  0.00  0.00    +0.000 A 
ATOM     20  C   UNL     1       2.228   4.018  18.238  0.00  0.00    +0.000 A 
BRANCH  15  22
ATOM     21  C   UNL     1       3.775   1.326  18.648  0.00  0.00    +0.000 C 
ATOM     22  O   UNL     1       3.507   2.431  19.512  0.00  0.00    +0.000 OA
ENDBRANCH  15  22
BRANCH  20  23
ATOM     23  O   UNL     1       1.074   3.306  18.059  0.00  0.00    +0.000 OA
ATOM     24  C   UNL     1       0.399   2.774  19.185  0.00  0.00    +0.000 C 
ENDBRANCH  20  23
ENDBRANCH   1  18
BRANCH   5  25
ATOM     25  C   UNL     1       0.648   9.791  21.049  0.00  0.00    +0.000 A 
ATOM     26  C   UNL     1      -0.465  10.635  21.035  0.00  0.00    +0.000 A 
ATOM     27  C   UNL     1      -1.241  10.788  22.185  0.00  0.00    +0.000 A 
ATOM     28  C   UNL     1      -0.870  10.144  23.365  0.00  0.00    +0.000 A 
ATOM     29  C   UNL     1       0.263   9.332  23.394  0.00  0.00    +0.000 A 
ATOM     30  C   UNL     1       1.013   9.137  22.232  0.00  0.00    +0.000 A 
ENDBRANCH   5  25
TORSDOF 5
ENDMDL
MODEL 7
REMARK VINA RESULT:      -7.6      4.908      9.744
REMARK  Name = 
REMARK  7 active torsions:
REMARK  status: ('A' for Active; 'I' for Inactive)
REMARK    1  A    between atoms: C_1  and  O_2
REMARK    2  A    between atoms: O_2  and  C_3
REMARK    3  A    between atoms: C_6  and  C_7
REMARK    4  A    between atoms: C_10  and  C_11
REMARK    5  A    between atoms: N_18  and  C_19
REMARK    6  A    between atoms: C_28  and  O_29
REMARK    7  A    between atoms: O_29  and  C_30
REMARK                            x       y       z     vdW  Elec       q    Type
REMARK                         _______ _______ _______ _____ _____    ______ ____
ROOT
ATOM      1  C   UNL     1      -1.096  12.675  22.938  0.00  0.00    +0.000 C 
ATOM      2  C   UNL     1      -0.927  12.042  21.770  0.00  0.00    +0.000 C 
ATOM      3  N   UNL     1       0.044  11.084  21.547  0.00  0.00    +0.000 NA
ATOM      4  C   UNL     1      -0.191  10.646  20.338  0.00  0.00    +0.000 C 
ATOM      5  N   UNL     1      -1.265  11.225  19.713  0.00  0.00    +0.000 N 
ATOM      6  C   UNL     1      -1.765  12.206  20.535  0.00  0.00    +0.000 C 
ATOM      7  O   UNL     1      -2.664  13.004  20.334  0.00  0.00    +0.000 OA
ENDROOT
BRANCH   4   8
ATOM      8  C   UNL     1       0.704   9.663  19.671  0.00  0.00    +0.000 A 
ATOM      9  C   UNL     1       1.149   8.543  20.385  0.00  0.00    +0.000 A 
ATOM     10  C   UNL     1       2.028   7.630  19.791  0.00  0.00    +0.000 A 
ATOM     11  C   UNL     1       2.463   7.833  18.481  0.00  0.00    +0.000 A 
ATOM     12 CL   UNL     1       3.538   6.711  17.745  0.00  0.00    +0.000 Cl
ATOM     13  C   UNL     1       2.049   8.951  17.770  0.00  0.00    +0.000 A 
ATOM     14  C   UNL     1       1.192   9.876  18.373  0.00  0.00    +0.000 A 
ENDBRANCH   4   8
BRANCH   1  18
ATOM     15  C   UNL     1      -4.192  15.383  24.080  0.00  0.00    +0.000 A 
ATOM     16  C   UNL     1      -4.422  13.994  24.097  0.00  0.00    +0.000 A 
ATOM     17  C   UNL     1      -3.436  13.094  23.693  0.00  0.00    +0.000 A 
ATOM     18  C   UNL     1      -2.216  13.573  23.224  0.00  0.00    +0.000 A 
ATOM     19  C   UNL     1      -2.030  14.954  23.095  0.00  0.00    +0.000 A 
ATOM     20  C   UNL     1      -3.006  15.871  23.515  0.00  0.00    +0.000 A 
BRANCH  15  22
ATOM     21  C   UNL     1      -6.307  16.397  23.814  0.00  0.00    +0.000 C 
ATOM     22  O   UNL     1      -5.119  16.251  24.595  0.00  0.00    +0.000 OA
ENDBRANCH  15  22
BRANCH  20  23
ATOM     23  O   UNL     1      -2.600  17.163  23.321  0.00  0.00    +0.000 OA
ATOM     24  C   UNL     1      -1.854  17.494  22.163  0.00  0.00    +0.000 C 
ENDBRANCH  20  23
ENDBRANCH   1  18
BRANCH   5  25
ATOM     25  C   UNL     1      -1.883  10.872  18.500  0.00  0.00    +0.000 A 
ATOM     26  C   UNL     1      -2.657   9.710  18.436  0.00  0.00    +0.000 A 
ATOM     27  C   UNL     1      -3.354   9.399  17.268  0.00  0.00    +0.000 A 
ATOM     28  C   UNL     1      -3.232  10.216  16.145  0.00  0.00    +0.000 A 
ATOM     29  C   UNL     1      -2.429  11.355  16.192  0.00  0.00    +0.000 A 
ATOM     30  C   UNL     1      -1.769  11.697  17.375  0.00  0.00    +0.000 A 
ENDBRANCH   5  25
TORSDOF 5
ENDMDL
MODEL 8
REMARK VINA RESULT:      -7.5      5.052      7.861
REMARK  Name = 
REMARK  7 active torsions:
REMARK  status: ('A' for Active; 'I' for Inactive)
REMARK    1  A    between atoms: C_1  and  O_2
REMARK    2  A    between atoms: O_2  and  C_3
REMARK    3  A    between atoms: C_6  and  C_7
REMARK    4  A    between atoms: C_10  and  C_11
REMARK    5  A    between atoms: N_18  and  C_19
REMARK    6  A    between atoms: C_28  and  O_29
REMARK    7  A    between atoms: O_29  and  C_30
REMARK                            x       y       z     vdW  Elec       q    Type
REMARK                         _______ _______ _______ _____ _____    ______ ____
ROOT
ATOM      1  C   UNL     1       1.743  14.958  18.490  0.00  0.00    +0.000 C 
ATOM      2  C   UNL     1       0.889  14.069  19.013  0.00  0.00    +0.000 C 
ATOM      3  N   UNL     1      -0.364  13.805  18.490  0.00  0.00    +0.000 NA
ATOM      4  C   UNL     1      -0.827  12.820  19.215  0.00  0.00    +0.000 C 
ATOM      5  N   UNL     1       0.023  12.375  20.194  0.00  0.00    +0.000 N 
ATOM      6  C   UNL     1       1.137  13.179  20.196  0.00  0.00    +0.000 C 
ATOM      7  O   UNL     1       2.096  13.176  20.949  0.00  0.00    +0.000 OA
ENDROOT
BRANCH   4   8
ATOM      8  C   UNL     1      -2.207  12.296  19.037  0.00  0.00    +0.000 A 
ATOM      9  C   UNL     1      -2.485  11.440  17.963  0.00  0.00    +0.000 A 
ATOM     10  C   UNL     1      -3.788  10.973  17.752  0.00  0.00    +0.000 A 
ATOM     11  C   UNL     1      -4.815  11.359  18.613  0.00  0.00    +0.000 A 
ATOM     12 CL   UNL     1      -6.416  10.783  18.361  0.00  0.00    +0.000 Cl
ATOM     13  C   UNL     1      -4.558  12.226  19.667  0.00  0.00    +0.000 A 
ATOM     14  C   UNL     1      -3.263  12.712  19.862  0.00  0.00    +0.000 A 
ENDBRANCH   4   8
BRANCH   1  18
ATOM     15  C   UNL     1       5.767  15.776  19.655  0.00  0.00    +0.000 A 
ATOM     16  C   UNL     1       5.495  14.786  18.692  0.00  0.00    +0.000 A 
ATOM     17  C   UNL     1       4.185  14.478  18.323  0.00  0.00    +0.000 A 
ATOM     18  C   UNL     1       3.124  15.128  18.947  0.00  0.00    +0.000 A 
ATOM     19  C   UNL     1       3.389  16.025  19.987  0.00  0.00    +0.000 A 
ATOM     20  C   UNL     1       4.702  16.358  20.355  0.00  0.00    +0.000 A 
BRANCH  15  22
ATOM     21  C   UNL     1       7.739  15.353  20.881  0.00  0.00    +0.000 C 
ATOM     22  O   UNL     1       7.057  16.158  19.918  0.00  0.00    +0.000 OA
ENDBRANCH  15  22
BRANCH  20  23
ATOM     23  O   UNL     1       4.724  17.272  21.374  0.00  0.00    +0.000 OA
ATOM     24  C   UNL     1       5.001  18.631  21.086  0.00  0.00    +0.000 C 
ENDBRANCH  20  23
ENDBRANCH   1  18
BRANCH   5  25
ATOM     25  C   UNL     1      -0.091  11.245  21.022  0.00  0.00    +0.000 A 
ATOM     26  C   UNL     1      -0.633  11.382  22.303  0.00  0.00    +0.000 A 
ATOM     27  C   UNL     1      -0.842  10.255  23.098  0.00  0.00    +0.000 A 
ATOM     28  C   UNL     1      -0.455   8.997  22.638  0.00  0.00    +0.000 A 
ATOM     29  C   UNL     1       0.123   8.860  21.376  0.00  0.00    +0.000 A 
ATOM     30  C   UNL     1       0.287   9.979  20.557  0.00  0.00    +0.000 A 
ENDBRANCH   5  25
TORSDOF 5
ENDMDL
MODEL 9
REMARK VINA RESULT:      -7.3      5.190      7.945
REMARK  Name = 
REMARK  7 active torsions:
REMARK  status: ('A' for Active; 'I' for Inactive)
REMARK    1  A    between atoms: C_1  and  O_2
REMARK    2  A    between atoms: O_2  and  C_3
REMARK    3  A    between atoms: C_6  and  C_7
REMARK    4  A    between atoms: C_10  and  C_11
REMARK    5  A    between atoms: N_18  and  C_19
REMARK    6  A    between atoms: C_28  and  O_29
REMARK    7  A    between atoms: O_29  and  C_30
REMARK                            x       y       z     vdW  Elec       q    Type
REMARK                         _______ _______ _______ _____ _____    ______ ____
ROOT
ATOM      1  C   UNL     1       1.016  15.481  19.299  0.00  0.00    +0.000 C 
ATOM      2  C   UNL     1       0.263  14.549  19.897  0.00  0.00    +0.000 C 
ATOM      3  N   UNL     1      -1.120  14.556  19.892  0.00  0.00    +0.000 NA
ATOM      4  C   UNL     1      -1.461  13.441  20.482  0.00  0.00    +0.000 C 
ATOM      5  N   UNL     1      -0.412  12.655  20.884  0.00  0.00    +0.000 N 
ATOM      6  C   UNL     1       0.757  13.329  20.619  0.00  0.00    +0.000 C 
ATOM      7  O   UNL     1       1.906  13.023  20.883  0.00  0.00    +0.000 OA
ENDROOT
BRANCH   4   8
ATOM      8  C   UNL     1      -2.882  13.108  20.769  0.00  0.00    +0.000 A 
ATOM      9  C   UNL     1      -3.677  12.554  19.758  0.00  0.00    +0.000 A 
ATOM     10  C   UNL     1      -5.029  12.276  19.995  0.00  0.00    +0.000 A 
ATOM     11  C   UNL     1      -5.588  12.550  21.243  0.00  0.00    +0.000 A 
ATOM     12 CL   UNL     1      -7.246  12.205  21.540  0.00  0.00    +0.000 Cl
ATOM     13  C   UNL     1      -4.817  13.121  22.247  0.00  0.00    +0.000 A 
ATOM     14  C   UNL     1      -3.475  13.422  22.001  0.00  0.00    +0.000 A 
ENDBRANCH   4   8
BRANCH   1  18
ATOM     15  C   UNL     1       5.256  15.572  18.813  0.00  0.00    +0.000 A 
ATOM     16  C   UNL     1       4.457  14.815  17.936  0.00  0.00    +0.000 A 
ATOM     17  C   UNL     1       3.073  14.742  18.099  0.00  0.00    +0.000 A 
ATOM     18  C   UNL     1       2.472  15.394  19.172  0.00  0.00    +0.000 A 
ATOM     19  C   UNL     1       3.276  16.048  20.111  0.00  0.00    +0.000 A 
ATOM     20  C   UNL     1       4.667  16.145  19.948  0.00  0.00    +0.000 A 
BRANCH  15  22
ATOM     21  C   UNL     1       7.208  14.683  17.830  0.00  0.00    +0.000 C 
ATOM     22  O   UNL     1       6.594  15.738  18.571  0.00  0.00    +0.000 OA
ENDBRANCH  15  22
BRANCH  20  23
ATOM     23  O   UNL     1       5.246  16.849  20.969  0.00  0.00    +0.000 OA
ATOM     24  C   UNL     1       4.726  16.732  22.281  0.00  0.00    +0.000 C 
ENDBRANCH  20  23
ENDBRANCH   1  18
BRANCH   5  25
ATOM     25  C   UNL     1      -0.427  11.342  21.385  0.00  0.00    +0.000 A 
ATOM     26  C   UNL     1      -0.183  10.273  20.518  0.00  0.00    +0.000 A 
ATOM     27  C   UNL     1      -0.099   8.973  21.019  0.00  0.00    +0.000 A 
ATOM     28  C   UNL     1      -0.317   8.733  22.375  0.00  0.00    +0.000 A 
ATOM     29  C   UNL     1      -0.600   9.793  23.236  0.00  0.00    +0.000 A 
ATOM     30  C   UNL     1      -0.636  11.101  22.748  0.00  0.00    +0.000 A 
ENDBRANCH   5  25
TORSDOF 5
ENDMDL
