MODEL 1
REMARK VINA RESULT:      -7.2      0.000      0.000
REMARK  Name = 
REMARK  3 active torsions:
REMARK  status: ('A' for Active; 'I' for Inactive)
REMARK    1  A    between atoms: C_2  and  C_3
REMARK    2  A    between atoms: C_8  and  C_9
REMARK    3  A    between atoms: N_18  and  C_19
REMARK                            x       y       z     vdW  Elec       q    Type
REMARK                         _______ _______ _______ _____ _____    ______ ____
ROOT
ATOM      1  O   UNL     1       2.234  10.131  17.452  0.00  0.00    +0.000 OA
ATOM      2  C   UNL     1       1.929   9.273  18.278  0.00  0.00    +0.000 C 
ATOM      3  N   UNL     1       2.437   7.967  18.204  0.00  0.00    +0.000 N 
ATOM      4  C   UNL     1       3.290   7.557  17.099  0.00  0.00    +0.000 C 
ATOM      5  C   UNL     1       4.582   6.949  17.654  0.00  0.00    +0.000 C 
ATOM      6  N   UNL     1       4.335   5.829  18.575  0.00  0.00    +0.000 N 
ATOM      7  C   UNL     1       3.210   5.824  19.393  0.00  0.00    +0.000 C 
ATOM      8  O   UNL     1       3.027   4.968  20.262  0.00  0.00    +0.000 OA
ATOM      9  C   UNL     1       2.156   6.915  19.182  0.00  0.00    +0.000 C 
ENDROOT
BRANCH   2  10
ATOM     10  C   UNL     1       1.054   9.585  19.423  0.00  0.00    +0.000 A 
ATOM     11  N   UNL     1       1.053   8.834  20.598  0.00  0.00    +0.000 NA
ATOM     12  C   UNL     1       0.344   9.549  21.422  0.00  0.00    +0.000 A 
ATOM     13  S   UNL     1       0.035   9.416  23.117  0.00  0.00    +0.000 S 
ATOM     14  C   UNL     1      -0.897  10.903  23.013  0.00  0.00    +0.000 A 
ATOM     15  C   UNL     1      -0.950  11.448  21.776  0.00  0.00    +0.000 A 
ATOM     16  N   UNL     1      -0.216  10.669  20.874  0.00  0.00    +0.000 N 
ATOM     17  C   UNL     1       0.191  10.666  19.562  0.00  0.00    +0.000 A 
ATOM     18 CL   UNL     1      -0.242  11.917  18.498  0.00  0.00    +0.000 Cl
BRANCH  15  19
ATOM     19  C   UNL     1      -1.693  12.642  21.372  0.00  0.00    +0.000 C 
ATOM     20  C   UNL     1      -3.054  12.499  20.720  0.00  0.00    +0.000 C 
ATOM     21  C   UNL     1      -2.942  13.057  22.107  0.00  0.00    +0.000 C 
ENDBRANCH  15  19
ENDBRANCH   2  10
BRANCH   6  22
ATOM     22  C   UNL     1       5.435   4.901  18.927  0.00  0.00    +0.000 C 
ATOM     23  C   UNL     1       5.901   4.042  17.738  0.00  0.00    +0.000 C 
ATOM     24  C   UNL     1       7.228   4.632  17.384  0.00  0.00    +0.000 C 
ATOM     25  C   UNL     1       7.660   5.494  18.310  0.00  0.00    +0.000 C 
ATOM     26  C   UNL     1       6.696   5.623  19.447  0.00  0.00    +0.000 C 
ENDBRANCH   6  22
TORSDOF 3
ENDMDL
MODEL 2
REMARK VINA RESULT:      -7.0      2.967      8.657
REMARK  Name = 
REMARK  3 active torsions:
REMARK  status: ('A' for Active; 'I' for Inactive)
REMARK    1  A    between atoms: C_2  and  C_3
REMARK    2  A    between atoms: C_8  and  C_9
REMARK    3  A    between atoms: N_18  and  C_19
REMARK                            x       y       z     vdW  Elec       q    Type
REMARK                         _______ _______ _______ _____ _____    ______ ____
ROOT
ATOM      1  O   UNL     1       2.655   4.927  21.030  0.00  0.00    +0.000 OA
ATOM      2  C   UNL     1       2.857   5.706  20.100  0.00  0.00    +0.000 C 
ATOM      3  N   UNL     1       2.019   6.806  19.866  0.00  0.00    +0.000 N 
ATOM      4  C   UNL     1       0.830   7.027  20.674  0.00  0.00    +0.000 C 
ATOM      5  C   UNL     1       0.858   8.450  21.242  0.00  0.00    +0.000 C 
ATOM      6  N   UNL     1       0.985   9.477  20.197  0.00  0.00    +0.000 N 
ATOM      7  C   UNL     1       1.718   9.222  19.042  0.00  0.00    +0.000 C 
ATOM      8  O   UNL     1       1.949  10.092  18.199  0.00  0.00    +0.000 OA
ATOM      9  C   UNL     1       2.233   7.798  18.812  0.00  0.00    +0.000 C 
ENDROOT
BRANCH   2  10
ATOM     10  C   UNL     1       4.024   5.555  19.212  0.00  0.00    +0.000 A 
ATOM     11  N   UNL     1       5.311   5.943  19.584  0.00  0.00    +0.000 NA
ATOM     12  C   UNL     1       6.068   5.442  18.652  0.00  0.00    +0.000 A 
ATOM     13  S   UNL     1       7.783   5.307  18.485  0.00  0.00    +0.000 S 
ATOM     14  C   UNL     1       7.518   4.441  16.978  0.00  0.00    +0.000 A 
ATOM     15  C   UNL     1       6.217   4.270  16.649  0.00  0.00    +0.000 A 
ATOM     16  N   UNL     1       5.393   4.834  17.630  0.00  0.00    +0.000 N 
ATOM     17  C   UNL     1       4.065   4.957  17.957  0.00  0.00    +0.000 A 
ATOM     18 CL   UNL     1       2.847   4.297  16.974  0.00  0.00    +0.000 Cl
BRANCH  15  19
ATOM     19  C   UNL     1       5.692   3.645  15.435  0.00  0.00    +0.000 C 
ATOM     20  C   UNL     1       5.167   4.511  14.307  0.00  0.00    +0.000 C 
ATOM     21  C   UNL     1       6.443   3.744  14.132  0.00  0.00    +0.000 C 
ENDBRANCH  15  19
ENDBRANCH   2  10
BRANCH   6  22
ATOM     22  C   UNL     1       0.675  10.893  20.506  0.00  0.00    +0.000 C 
ATOM     23  C   UNL     1      -0.415  11.482  19.594  0.00  0.00    +0.000 C 
ATOM     24  C   UNL     1      -1.604  11.582  20.495  0.00  0.00    +0.000 C 
ATOM     25  C   UNL     1      -1.284  11.372  21.776  0.00  0.00    +0.000 C 
ATOM     26  C   UNL     1       0.177  11.103  21.951  0.00  0.00    +0.000 C 
ENDBRANCH   6  22
TORSDOF 3
ENDMDL
MODEL 3
REMARK VINA RESULT:      -6.8      6.717      7.651
REMARK  Name = 
REMARK  3 active torsions:
REMARK  status: ('A' for Active; 'I' for Inactive)
REMARK    1  A    between atoms: C_2  and  C_3
REMARK    2  A    between atoms: C_8  and  C_9
REMARK    3  A    between atoms: N_18  and  C_19
REMARK                            x       y       z     vdW  Elec       q    Type
REMARK                         _______ _______ _______ _____ _____    ______ ____
ROOT
ATOM      1  O   UNL     1       4.501  14.304  22.728  0.00  0.00    +0.000 OA
ATOM      2  C   UNL     1       4.640  14.590  21.540  0.00  0.00    +0.000 C 
ATOM      3  N   UNL     1       5.908  14.804  20.979  0.00  0.00    +0.000 N 
ATOM      4  C   UNL     1       7.107  14.766  21.801  0.00  0.00    +0.000 C 
ATOM      5  C   UNL     1       8.113  13.786  21.190  0.00  0.00    +0.000 C 
ATOM      6  N   UNL     1       8.440  14.104  19.792  0.00  0.00    +0.000 N 
ATOM      7  C   UNL     1       7.482  14.662  18.952  0.00  0.00    +0.000 C 
ATOM      8  O   UNL     1       7.676  14.833  17.746  0.00  0.00    +0.000 OA
ATOM      9  C   UNL     1       6.147  15.095  19.565  0.00  0.00    +0.000 C 
ENDROOT
BRANCH   2  10
ATOM     10  C   UNL     1       3.484  14.672  20.628  0.00  0.00    +0.000 A 
ATOM     11  N   UNL     1       2.766  13.550  20.217  0.00  0.00    +0.000 NA
ATOM     12  C   UNL     1       1.717  14.050  19.633  0.00  0.00    +0.000 A 
ATOM     13  S   UNL     1       0.261  13.336  19.034  0.00  0.00    +0.000 S 
ATOM     14  C   UNL     1      -0.299  14.950  18.618  0.00  0.00    +0.000 A 
ATOM     15  C   UNL     1       0.566  15.943  18.926  0.00  0.00    +0.000 A 
ATOM     16  N   UNL     1       1.713  15.413  19.527  0.00  0.00    +0.000 N 
ATOM     17  C   UNL     1       2.886  15.819  20.117  0.00  0.00    +0.000 A 
ATOM     18 CL   UNL     1       3.285  17.464  20.251  0.00  0.00    +0.000 Cl
BRANCH  15  19
ATOM     19  C   UNL     1       0.403  17.370  18.648  0.00  0.00    +0.000 C 
ATOM     20  C   UNL     1       1.040  17.975  17.413  0.00  0.00    +0.000 C 
ATOM     21  C   UNL     1      -0.451  17.836  17.496  0.00  0.00    +0.000 C 
ENDBRANCH  15  19
ENDBRANCH   2  10
BRANCH   6  22
ATOM     22  C   UNL     1       9.636  13.504  19.154  0.00  0.00    +0.000 C 
ATOM     23  C   UNL     1      10.828  13.368  20.117  0.00  0.00    +0.000 C 
ATOM     24  C   UNL     1      10.892  11.899  20.385  0.00  0.00    +0.000 C 
ATOM     25  C   UNL     1      10.102  11.202  19.562  0.00  0.00    +0.000 C 
ATOM     26  C   UNL     1       9.379  12.088  18.597  0.00  0.00    +0.000 C 
ENDBRANCH   6  22
TORSDOF 3
ENDMDL
MODEL 4
REMARK VINA RESULT:      -6.7      3.035      8.416
REMARK  Name = 
REMARK  3 active torsions:
REMARK  status: ('A' for Active; 'I' for Inactive)
REMARK    1  A    between atoms: C_2  and  C_3
REMARK    2  A    between atoms: C_8  and  C_9
REMARK    3  A    between atoms: N_18  and  C_19
REMARK                            x       y       z     vdW  Elec       q    Type
REMARK                         _______ _______ _______ _____ _____    ______ ____
ROOT
ATOM      1  O   UNL     1       1.842   8.457  22.128  0.00  0.00    +0.000 OA
ATOM      2  C   UNL     1       1.373   8.460  20.991  0.00  0.00    +0.000 C 
ATOM      3  N   UNL     1       0.316   9.310  20.634  0.00  0.00    +0.000 N 
ATOM      4  C   UNL     1      -0.318  10.172  21.620  0.00  0.00    +0.000 C 
ATOM      5  C   UNL     1      -0.318  11.616  21.108  0.00  0.00    +0.000 C 
ATOM      6  N   UNL     1      -0.961  11.754  19.792  0.00  0.00    +0.000 N 
ATOM      7  C   UNL     1      -0.876  10.730  18.854  0.00  0.00    +0.000 C 
ATOM      8  O   UNL     1      -1.296  10.852  17.701  0.00  0.00    +0.000 OA
ATOM      9  C   UNL     1      -0.252   9.400  19.289  0.00  0.00    +0.000 C 
ENDROOT
BRANCH   2  10
ATOM     10  C   UNL     1       1.933   7.608  19.927  0.00  0.00    +0.000 A 
ATOM     11  N   UNL     1       2.608   8.126  18.821  0.00  0.00    +0.000 NA
ATOM     12  C   UNL     1       3.135   7.077  18.260  0.00  0.00    +0.000 A 
ATOM     13  S   UNL     1       4.270   6.888  16.971  0.00  0.00    +0.000 S 
ATOM     14  C   UNL     1       4.211   5.152  17.241  0.00  0.00    +0.000 A 
ATOM     15  C   UNL     1       3.391   4.766  18.245  0.00  0.00    +0.000 A 
ATOM     16  N   UNL     1       2.793   5.885  18.836  0.00  0.00    +0.000 N 
ATOM     17  C   UNL     1       1.965   6.218  19.880  0.00  0.00    +0.000 A 
ATOM     18 CL   UNL     1       1.325   5.032  20.914  0.00  0.00    +0.000 Cl
BRANCH  15  19
ATOM     19  C   UNL     1       3.093   3.395  18.661  0.00  0.00    +0.000 C 
ATOM     20  C   UNL     1       1.835   2.713  18.163  0.00  0.00    +0.000 C 
ATOM     21  C   UNL     1       3.178   2.257  17.676  0.00  0.00    +0.000 C 
ENDBRANCH  15  19
ENDBRANCH   2  10
BRANCH   6  22
ATOM     22  C   UNL     1      -1.372  13.091  19.303  0.00  0.00    +0.000 C 
ATOM     23  C   UNL     1      -1.853  14.022  20.430  0.00  0.00    +0.000 C 
ATOM     24  C   UNL     1      -0.736  15.005  20.569  0.00  0.00    +0.000 C 
ATOM     25  C   UNL     1       0.146  14.910  19.569  0.00  0.00    +0.000 C 
ATOM     26  C   UNL     1      -0.236  13.849  18.585  0.00  0.00    +0.000 C 
ENDBRANCH   6  22
TORSDOF 3
ENDMDL
MODEL 5
REMARK VINA RESULT:      -6.7      2.525      8.387
REMARK  Name = 
REMARK  3 active torsions:
REMARK  status: ('A' for Active; 'I' for Inactive)
REMARK    1  A    between atoms: C_2  and  C_3
REMARK    2  A    between atoms: C_8  and  C_9
REMARK    3  A    between atoms: N_18  and  C_19
REMARK                            x       y       z     vdW  Elec       q    Type
REMARK                         _______ _______ _______ _____ _____    ______ ____
ROOT
ATOM      1  O   UNL     1       1.440   9.465  17.690  0.00  0.00    +0.000 OA
ATOM      2  C   UNL     1       1.523   9.159  18.878  0.00  0.00    +0.000 C 
ATOM      3  N   UNL     1       1.116  10.035  19.894  0.00  0.00    +0.000 N 
ATOM      4  C   UNL     1       0.647  11.377  19.582  0.00  0.00    +0.000 C 
ATOM      5  C   UNL     1      -0.724  11.598  20.229  0.00  0.00    +0.000 C 
ATOM      6  N   UNL     1      -0.714  11.366  21.681  0.00  0.00    +0.000 N 
ATOM      7  C   UNL     1       0.118  10.398  22.235  0.00  0.00    +0.000 C 
ATOM      8  O   UNL     1       0.072  10.088  23.428  0.00  0.00    +0.000 OA
ATOM      9  C   UNL     1       1.140   9.713  21.321  0.00  0.00    +0.000 C 
ENDROOT
BRANCH   2  10
ATOM     10  C   UNL     1       2.006   7.830  19.296  0.00  0.00    +0.000 A 
ATOM     11  N   UNL     1       1.464   7.136  20.378  0.00  0.00    +0.000 NA
ATOM     12  C   UNL     1       1.981   5.947  20.275  0.00  0.00    +0.000 A 
ATOM     13  S   UNL     1       1.670   4.461  21.101  0.00  0.00    +0.000 S 
ATOM     14  C   UNL     1       2.856   3.691  20.057  0.00  0.00    +0.000 A 
ATOM     15  C   UNL     1       3.428   4.516  19.151  0.00  0.00    +0.000 A 
ATOM     16  N   UNL     1       2.902   5.806  19.274  0.00  0.00    +0.000 N 
ATOM     17  C   UNL     1       2.967   7.041  18.674  0.00  0.00    +0.000 A 
ATOM     18 CL   UNL     1       3.970   7.320  17.332  0.00  0.00    +0.000 Cl
BRANCH  15  19
ATOM     19  C   UNL     1       4.484   4.177  18.195  0.00  0.00    +0.000 C 
ATOM     20  C   UNL     1       4.455   2.839  17.485  0.00  0.00    +0.000 C 
ATOM     21  C   UNL     1       4.190   4.101  16.719  0.00  0.00    +0.000 C 
ENDBRANCH  15  19
ENDBRANCH   2  10
BRANCH   6  22
ATOM     22  C   UNL     1      -1.828  11.865  22.521  0.00  0.00    +0.000 C 
ATOM     23  C   UNL     1      -1.429  13.066  23.397  0.00  0.00    +0.000 C 
ATOM     24  C   UNL     1      -2.117  14.218  22.738  0.00  0.00    +0.000 C 
ATOM     25  C   UNL     1      -2.994  13.819  21.811  0.00  0.00    +0.000 C 
ATOM     26  C   UNL     1      -3.048  12.328  21.698  0.00  0.00    +0.000 C 
ENDBRANCH   6  22
TORSDOF 3
ENDMDL
MODEL 6
REMARK VINA RESULT:      -6.7      3.362      8.216
REMARK  Name = 
REMARK  3 active torsions:
REMARK  status: ('A' for Active; 'I' for Inactive)
REMARK    1  A    between atoms: C_2  and  C_3
REMARK    2  A    between atoms: C_8  and  C_9
REMARK    3  A    between atoms: N_18  and  C_19
REMARK                            x       y       z     vdW  Elec       q    Type
REMARK                         _______ _______ _______ _____ _____    ______ ____
ROOT
ATOM      1  O   UNL     1       1.031   7.776  21.552  0.00  0.00    +0.000 OA
ATOM      2  C   UNL     1       1.394   8.071  20.415  0.00  0.00    +0.000 C 
ATOM      3  N   UNL     1       1.167   9.347  19.878  0.00  0.00    +0.000 N 
ATOM      4  C   UNL     1       0.424  10.351  20.623  0.00  0.00    +0.000 C 
ATOM      5  C   UNL     1       1.251  11.638  20.706  0.00  0.00    +0.000 C 
ATOM      6  N   UNL     1       1.648  12.146  19.384  0.00  0.00    +0.000 N 
ATOM      7  C   UNL     1       1.917  11.265  18.341  0.00  0.00    +0.000 C 
ATOM      8  O   UNL     1       2.367  11.641  17.255  0.00  0.00    +0.000 OA
ATOM      9  C   UNL     1       1.618   9.778  18.555  0.00  0.00    +0.000 C 
ENDROOT
BRANCH   2  10
ATOM     10  C   UNL     1       2.136   7.115  19.573  0.00  0.00    +0.000 A 
ATOM     11  N   UNL     1       3.025   7.518  18.577  0.00  0.00    +0.000 NA
ATOM     12  C   UNL     1       3.632   6.418  18.239  0.00  0.00    +0.000 A 
ATOM     13  S   UNL     1       4.995   6.099  17.226  0.00  0.00    +0.000 S 
ATOM     14  C   UNL     1       4.850   4.399  17.651  0.00  0.00    +0.000 A 
ATOM     15  C   UNL     1       3.840   4.118  18.506  0.00  0.00    +0.000 A 
ATOM     16  N   UNL     1       3.160   5.290  18.852  0.00  0.00    +0.000 N 
ATOM     17  C   UNL     1       2.149   5.728  19.673  0.00  0.00    +0.000 A 
ATOM     18 CL   UNL     1       1.294   4.653  20.673  0.00  0.00    +0.000 Cl
BRANCH  15  19
ATOM     19  C   UNL     1       3.440   2.796  18.989  0.00  0.00    +0.000 C 
ATOM     20  C   UNL     1       2.218   2.118  18.404  0.00  0.00    +0.000 C 
ATOM     21  C   UNL     1       3.586   1.579  18.112  0.00  0.00    +0.000 C 
ENDBRANCH  15  19
ENDBRANCH   2  10
BRANCH   6  22
ATOM     22  C   UNL     1       2.133  13.539  19.238  0.00  0.00    +0.000 C 
ATOM     23  C   UNL     1       1.002  14.543  18.955  0.00  0.00    +0.000 C 
ATOM     24  C   UNL     1       0.871  15.289  20.243  0.00  0.00    +0.000 C 
ATOM     25  C   UNL     1       1.878  15.026  21.083  0.00  0.00    +0.000 C 
ATOM     26  C   UNL     1       2.859  14.063  20.495  0.00  0.00    +0.000 C 
ENDBRANCH   6  22
TORSDOF 3
ENDMDL
MODEL 7
REMARK VINA RESULT:      -6.6      6.438      7.899
REMARK  Name = 
REMARK  3 active torsions:
REMARK  status: ('A' for Active; 'I' for Inactive)
REMARK    1  A    between atoms: C_2  and  C_3
REMARK    2  A    between atoms: C_8  and  C_9
REMARK    3  A    between atoms: N_18  and  C_19
REMARK                            x       y       z     vdW  Elec       q    Type
REMARK                         _______ _______ _______ _____ _____    ______ ____
ROOT
ATOM      1  O   UNL     1       0.263  11.768  21.947  0.00  0.00    +0.000 OA
ATOM      2  C   UNL     1      -0.267  12.544  21.154  0.00  0.00    +0.000 C 
ATOM      3  N   UNL     1       0.309  13.784  20.842  0.00  0.00    +0.000 N 
ATOM      4  C   UNL     1       1.525  14.233  21.502  0.00  0.00    +0.000 C 
ATOM      5  C   UNL     1       2.565  14.619  20.446  0.00  0.00    +0.000 C 
ATOM      6  N   UNL     1       2.070  15.634  19.504  0.00  0.00    +0.000 N 
ATOM      7  C   UNL     1       0.728  15.662  19.137  0.00  0.00    +0.000 C 
ATOM      8  O   UNL     1       0.296  16.417  18.263  0.00  0.00    +0.000 OA
ATOM      9  C   UNL     1      -0.242  14.730  19.870  0.00  0.00    +0.000 C 
ENDROOT
BRANCH   2  10
ATOM     10  C   UNL     1      -1.512  12.190  20.448  0.00  0.00    +0.000 A 
ATOM     11  N   UNL     1      -2.756  12.711  20.804  0.00  0.00    +0.000 NA
ATOM     12  C   UNL     1      -3.534  12.353  19.825  0.00  0.00    +0.000 A 
ATOM     13  S   UNL     1      -5.161  12.766  19.414  0.00  0.00    +0.000 S 
ATOM     14  C   UNL     1      -4.992  11.782  17.967  0.00  0.00    +0.000 A 
ATOM     15  C   UNL     1      -3.781  11.199  17.822  0.00  0.00    +0.000 A 
ATOM     16  N   UNL     1      -2.945  11.552  18.887  0.00  0.00    +0.000 N 
ATOM     17  C   UNL     1      -1.650  11.392  19.318  0.00  0.00    +0.000 A 
ATOM     18 CL   UNL     1      -0.525  10.490  18.421  0.00  0.00    +0.000 Cl
BRANCH  15  19
ATOM     19  C   UNL     1      -3.367  10.284  16.757  0.00  0.00    +0.000 C 
ATOM     20  C   UNL     1      -4.014  10.377  15.390  0.00  0.00    +0.000 C 
ATOM     21  C   UNL     1      -2.583  10.787  15.572  0.00  0.00    +0.000 C 
ENDBRANCH  15  19
ENDBRANCH   2  10
BRANCH   6  22
ATOM     22  C   UNL     1       3.023  16.384  18.651  0.00  0.00    +0.000 C 
ATOM     23  C   UNL     1       4.281  16.837  19.411  0.00  0.00    +0.000 C 
ATOM     24  C   UNL     1       5.349  15.933  18.884  0.00  0.00    +0.000 C 
ATOM     25  C   UNL     1       4.939  15.238  17.817  0.00  0.00    +0.000 C 
ATOM     26  C   UNL     1       3.528  15.567  17.444  0.00  0.00    +0.000 C 
ENDBRANCH   6  22
TORSDOF 3
ENDMDL
MODEL 8
REMARK VINA RESULT:      -6.5      6.015      7.596
REMARK  Name = 
REMARK  3 active torsions:
REMARK  status: ('A' for Active; 'I' for Inactive)
REMARK    1  A    between atoms: C_2  and  C_3
REMARK    2  A    between atoms: C_8  and  C_9
REMARK    3  A    between atoms: N_18  and  C_19
REMARK                            x       y       z     vdW  Elec       q    Type
REMARK                         _______ _______ _______ _____ _____    ______ ____
ROOT
ATOM      1  O   UNL     1       0.314  10.764  20.100  0.00  0.00    +0.000 OA
ATOM      2  C   UNL     1      -0.161  11.838  19.734  0.00  0.00    +0.000 C 
ATOM      3  N   UNL     1       0.561  13.035  19.837  0.00  0.00    +0.000 N 
ATOM      4  C   UNL     1       1.879  13.065  20.452  0.00  0.00    +0.000 C 
ATOM      5  C   UNL     1       2.874  13.723  19.491  0.00  0.00    +0.000 C 
ATOM      6  N   UNL     1       2.456  15.070  19.073  0.00  0.00    +0.000 N 
ATOM      7  C   UNL     1       1.107  15.375  18.922  0.00  0.00    +0.000 C 
ATOM      8  O   UNL     1       0.718  16.450  18.460  0.00  0.00    +0.000 OA
ATOM      9  C   UNL     1       0.075  14.335  19.372  0.00  0.00    +0.000 C 
ENDROOT
BRANCH   2  10
ATOM     10  C   UNL     1      -1.498  11.915  19.116  0.00  0.00    +0.000 A 
ATOM     11  N   UNL     1      -1.726  11.622  17.772  0.00  0.00    +0.000 NA
ATOM     12  C   UNL     1      -3.023  11.578  17.680  0.00  0.00    +0.000 A 
ATOM     13  S   UNL     1      -4.089  11.086  16.411  0.00  0.00    +0.000 S 
ATOM     14  C   UNL     1      -5.439  11.394  17.494  0.00  0.00    +0.000 A 
ATOM     15  C   UNL     1      -5.085  11.830  18.725  0.00  0.00    +0.000 A 
ATOM     16  N   UNL     1      -3.692  11.912  18.825  0.00  0.00    +0.000 N 
ATOM     17  C   UNL     1      -2.708  12.191  19.743  0.00  0.00    +0.000 A 
ATOM     18 CL   UNL     1      -3.087  12.617  21.343  0.00  0.00    +0.000 Cl
BRANCH  15  19
ATOM     19  C   UNL     1      -5.983  12.222  19.811  0.00  0.00    +0.000 C 
ATOM     20  C   UNL     1      -6.441  13.662  19.928  0.00  0.00    +0.000 C 
ATOM     21  C   UNL     1      -7.416  12.595  19.528  0.00  0.00    +0.000 C 
ENDBRANCH  15  19
ENDBRANCH   2  10
BRANCH   6  22
ATOM     22  C   UNL     1       3.434  15.990  18.446  0.00  0.00    +0.000 C 
ATOM     23  C   UNL     1       4.105  16.934  19.459  0.00  0.00    +0.000 C 
ATOM     24  C   UNL     1       5.493  16.392  19.572  0.00  0.00    +0.000 C 
ATOM     25  C   UNL     1       5.754  15.476  18.634  0.00  0.00    +0.000 C 
ATOM     26  C   UNL     1       4.585  15.255  17.727  0.00  0.00    +0.000 C 
ENDBRANCH   6  22
TORSDOF 3
ENDMDL
MODEL 9
REMARK VINA RESULT:      -6.4      2.660      3.588
REMARK  Name = 
REMARK  3 active torsions:
REMARK  status: ('A' for Active; 'I' for Inactive)
REMARK    1  A    between atoms: C_2  and  C_3
REMARK    2  A    between atoms: C_8  and  C_9
REMARK    3  A    between atoms: N_18  and  C_19
REMARK                            x       y       z     vdW  Elec       q    Type
REMARK                         _______ _______ _______ _____ _____    ______ ____
ROOT
ATOM      1  O   UNL     1       2.151  11.949  17.509  0.00  0.00    +0.000 OA
ATOM      2  C   UNL     1       1.745  11.542  18.595  0.00  0.00    +0.000 C 
ATOM      3  N   UNL     1       1.499  10.180  18.825  0.00  0.00    +0.000 N 
ATOM      4  C   UNL     1       1.646   9.202  17.758  0.00  0.00    +0.000 C 
ATOM      5  C   UNL     1       2.577   8.078  18.224  0.00  0.00    +0.000 C 
ATOM      6  N   UNL     1       2.120   7.439  19.467  0.00  0.00    +0.000 N 
ATOM      7  C   UNL     1       1.458   8.181  20.440  0.00  0.00    +0.000 C 
ATOM      8  O   UNL     1       1.166   7.716  21.544  0.00  0.00    +0.000 OA
ATOM      9  C   UNL     1       1.065   9.624  20.107  0.00  0.00    +0.000 C 
ENDROOT
BRANCH   2  10
ATOM     10  C   UNL     1       1.545  12.457  19.733  0.00  0.00    +0.000 A 
ATOM     11  N   UNL     1       2.572  13.236  20.266  0.00  0.00    +0.000 NA
ATOM     12  C   UNL     1       1.958  14.053  21.070  0.00  0.00    +0.000 A 
ATOM     13  S   UNL     1       2.484  15.444  21.950  0.00  0.00    +0.000 S 
ATOM     14  C   UNL     1       0.831  15.655  22.508  0.00  0.00    +0.000 A 
ATOM     15  C   UNL     1      -0.042  14.733  22.042  0.00  0.00    +0.000 A 
ATOM     16  N   UNL     1       0.615  13.829  21.201  0.00  0.00    +0.000 N 
ATOM     17  C   UNL     1       0.352  12.756  20.383  0.00  0.00    +0.000 A 
ATOM     18 CL   UNL     1      -1.224  12.150  20.199  0.00  0.00    +0.000 Cl
BRANCH  15  19
ATOM     19  C   UNL     1      -1.462  14.617  22.378  0.00  0.00    +0.000 C 
ATOM     20  C   UNL     1      -1.906  13.643  23.450  0.00  0.00    +0.000 C 
ATOM     21  C   UNL     1      -1.984  15.120  23.700  0.00  0.00    +0.000 C 
ENDBRANCH  15  19
ENDBRANCH   2  10
BRANCH   6  22
ATOM     22  C   UNL     1       2.674   6.126  19.875  0.00  0.00    +0.000 C 
ATOM     23  C   UNL     1       1.631   4.996  19.839  0.00  0.00    +0.000 C 
ATOM     24  C   UNL     1       2.030   4.193  18.643  0.00  0.00    +0.000 C 
ATOM     25  C   UNL     1       3.228   4.553  18.172  0.00  0.00    +0.000 C 
ATOM     26  C   UNL     1       3.839   5.655  18.979  0.00  0.00    +0.000 C 
ENDBRANCH   6  22
TORSDOF 3
ENDMDL
