MODEL 1
REMARK VINA RESULT:      -8.0      0.000      0.000
REMARK  Name = 
REMARK  4 active torsions:
REMARK  status: ('A' for Active; 'I' for Inactive)
REMARK    1  A    between atoms: C_1  and  C_2
REMARK    2  A    between atoms: C_6  and  C_7
REMARK    3  A    between atoms: C_11  and  C_12
REMARK    4  A    between atoms: C_16  and  N_17
REMARK                            x       y       z     vdW  Elec       q    Type
REMARK                         _______ _______ _______ _____ _____    ______ ____
ROOT
ATOM      1  C   UNL     1       3.978   3.158  17.921  0.00  0.00    +0.000 C 
ATOM      2  O   UNL     1       3.810   2.138  17.255  0.00  0.00    +0.000 OA
ATOM      3  N   UNL     1       5.014   4.028  17.512  0.00  0.00    +0.000 N 
ATOM      4  N   UNL     1       5.634   4.820  18.433  0.00  0.00    +0.000 NA
ATOM      5  C   UNL     1       6.654   5.374  17.767  0.00  0.00    +0.000 A 
ATOM      6  C   UNL     1       6.651   5.040  16.391  0.00  0.00    +0.000 A 
ATOM      7  C   UNL     1       7.435   5.371  15.265  0.00  0.00    +0.000 A 
ATOM      8  C   UNL     1       7.076   4.835  14.014  0.00  0.00    +0.000 A 
ATOM      9  C   UNL     1       5.971   3.988  13.876  0.00  0.00    +0.000 A 
ATOM     10  C   UNL     1       5.195   3.648  14.989  0.00  0.00    +0.000 A 
ATOM     11  C   UNL     1       5.566   4.175  16.239  0.00  0.00    +0.000 A 
ENDROOT
BRANCH   1  17
ATOM     12  C   UNL     1       1.401   6.355  20.813  0.00  0.00    +0.000 C 
ATOM     13  C   UNL     1       1.787   4.945  20.474  0.00  0.00    +0.000 A 
ATOM     14  C   UNL     1       1.296   3.858  21.202  0.00  0.00    +0.000 A 
ATOM     15  C   UNL     1       1.689   2.558  20.875  0.00  0.00    +0.000 A 
ATOM     16  C   UNL     1       2.588   2.334  19.827  0.00  0.00    +0.000 A 
ATOM     17  C   UNL     1       3.092   3.413  19.094  0.00  0.00    +0.000 A 
ATOM     18  C   UNL     1       2.668   4.713  19.406  0.00  0.00    +0.000 A 
ENDBRANCH   1  17
BRANCH   8  19
ATOM     19  N   UNL     1       7.867   5.183  12.826  0.00  0.00    +0.000 N 
ATOM     20  O   UNL     1       8.818   5.962  12.977  0.00  0.00    +0.000 OA
ATOM     21  O   UNL     1       7.534   4.679  11.744  0.00  0.00    +0.000 OA
ENDBRANCH   8  19
BRANCH   5  22
ATOM     22  C   UNL     1       7.588   6.215  18.461  0.00  0.00    +0.000 C 
ATOM     23  N   UNL     1       8.331   6.934  19.002  0.00  0.00    +0.000 NA
ENDBRANCH   5  22
TORSDOF 3
ENDMDL
MODEL 2
REMARK VINA RESULT:      -7.8      3.552      5.390
REMARK  Name = 
REMARK  4 active torsions:
REMARK  status: ('A' for Active; 'I' for Inactive)
REMARK    1  A    between atoms: C_1  and  C_2
REMARK    2  A    between atoms: C_6  and  C_7
REMARK    3  A    between atoms: C_11  and  C_12
REMARK    4  A    between atoms: C_16  and  N_17
REMARK                            x       y       z     vdW  Elec       q    Type
REMARK                         _______ _______ _______ _____ _____    ______ ____
ROOT
ATOM      1  C   UNL     1       2.022   8.422  18.338  0.00  0.00    +0.000 C 
ATOM      2  O   UNL     1       2.225   8.846  17.202  0.00  0.00    +0.000 OA
ATOM      3  N   UNL     1       2.734   7.265  18.728  0.00  0.00    +0.000 N 
ATOM      4  N   UNL     1       2.201   6.426  19.662  0.00  0.00    +0.000 NA
ATOM      5  C   UNL     1       3.022   5.370  19.672  0.00  0.00    +0.000 A 
ATOM      6  C   UNL     1       4.147   5.547  18.832  0.00  0.00    +0.000 A 
ATOM      7  C   UNL     1       5.302   4.801  18.513  0.00  0.00    +0.000 A 
ATOM      8  C   UNL     1       6.237   5.358  17.620  0.00  0.00    +0.000 A 
ATOM      9  C   UNL     1       6.037   6.620  17.051  0.00  0.00    +0.000 A 
ATOM     10  C   UNL     1       4.890   7.360  17.355  0.00  0.00    +0.000 A 
ATOM     11  C   UNL     1       3.952   6.795  18.237  0.00  0.00    +0.000 A 
ENDROOT
BRANCH   1  17
ATOM     12  C   UNL     1       0.253   9.444  22.927  0.00  0.00    +0.000 C 
ATOM     13  C   UNL     1       0.229   9.697  21.448  0.00  0.00    +0.000 A 
ATOM     14  C   UNL     1      -0.643  10.631  20.881  0.00  0.00    +0.000 A 
ATOM     15  C   UNL     1      -0.658  10.830  19.499  0.00  0.00    +0.000 A 
ATOM     16  C   UNL     1       0.189  10.087  18.669  0.00  0.00    +0.000 A 
ATOM     17  C   UNL     1       1.061   9.144  19.221  0.00  0.00    +0.000 A 
ATOM     18  C   UNL     1       1.094   8.972  20.614  0.00  0.00    +0.000 A 
ENDBRANCH   1  17
BRANCH   8  19
ATOM     19  N   UNL     1       7.456   4.607  17.289  0.00  0.00    +0.000 N 
ATOM     20  O   UNL     1       8.172   4.231  18.228  0.00  0.00    +0.000 OA
ATOM     21  O   UNL     1       7.697   4.397  16.092  0.00  0.00    +0.000 OA
ENDBRANCH   8  19
BRANCH   5  22
ATOM     22  C   UNL     1       2.712   4.233  20.491  0.00  0.00    +0.000 C 
ATOM     23  N   UNL     1       2.478   3.330  21.194  0.00  0.00    +0.000 NA
ENDBRANCH   5  22
TORSDOF 3
ENDMDL
MODEL 3
REMARK VINA RESULT:      -7.8      3.489      5.112
REMARK  Name = 
REMARK  4 active torsions:
REMARK  status: ('A' for Active; 'I' for Inactive)
REMARK    1  A    between atoms: C_1  and  C_2
REMARK    2  A    between atoms: C_6  and  C_7
REMARK    3  A    between atoms: C_11  and  C_12
REMARK    4  A    between atoms: C_16  and  N_17
REMARK                            x       y       z     vdW  Elec       q    Type
REMARK                         _______ _______ _______ _____ _____    ______ ____
ROOT
ATOM      1  C   UNL     1       1.971   8.314  18.583  0.00  0.00    +0.000 C 
ATOM      2  O   UNL     1       2.008   8.869  17.485  0.00  0.00    +0.000 OA
ATOM      3  N   UNL     1       2.632   7.070  18.695  0.00  0.00    +0.000 N 
ATOM      4  N   UNL     1       2.199   6.155  19.608  0.00  0.00    +0.000 NA
ATOM      5  C   UNL     1       2.907   5.052  19.341  0.00  0.00    +0.000 A 
ATOM      6  C   UNL     1       3.878   5.260  18.332  0.00  0.00    +0.000 A 
ATOM      7  C   UNL     1       4.885   4.485  17.718  0.00  0.00    +0.000 A 
ATOM      8  C   UNL     1       5.694   5.089  16.736  0.00  0.00    +0.000 A 
ATOM      9  C   UNL     1       5.513   6.425  16.366  0.00  0.00    +0.000 A 
ATOM     10  C   UNL     1       4.511   7.196  16.963  0.00  0.00    +0.000 A 
ATOM     11  C   UNL     1       3.696   6.585  17.934  0.00  0.00    +0.000 A 
ENDROOT
BRANCH   1  17
ATOM     12  C   UNL     1      -1.367  11.689  20.223  0.00  0.00    +0.000 C 
ATOM     13  C   UNL     1      -0.410  10.573  20.517  0.00  0.00    +0.000 A 
ATOM     14  C   UNL     1      -0.211  10.105  21.820  0.00  0.00    +0.000 A 
ATOM     15  C   UNL     1       0.703   9.078  22.066  0.00  0.00    +0.000 A 
ATOM     16  C   UNL     1       1.436   8.517  21.015  0.00  0.00    +0.000 A 
ATOM     17  C   UNL     1       1.252   8.979  19.708  0.00  0.00    +0.000 A 
ATOM     18  C   UNL     1       0.310   9.989  19.463  0.00  0.00    +0.000 A 
ENDBRANCH   1  17
BRANCH   8  19
ATOM     19  N   UNL     1       6.761   4.305  16.098  0.00  0.00    +0.000 N 
ATOM     20  O   UNL     1       7.895   4.371  16.592  0.00  0.00    +0.000 OA
ATOM     21  O   UNL     1       6.464   3.629  15.104  0.00  0.00    +0.000 OA
ENDBRANCH   8  19
BRANCH   5  22
ATOM     22  C   UNL     1       2.645   3.841  20.066  0.00  0.00    +0.000 C 
ATOM     23  N   UNL     1       2.476   2.853  20.664  0.00  0.00    +0.000 NA
ENDBRANCH   5  22
TORSDOF 3
ENDMDL
MODEL 4
REMARK VINA RESULT:      -7.7      3.931      6.706
REMARK  Name = 
REMARK  4 active torsions:
REMARK  status: ('A' for Active; 'I' for Inactive)
REMARK    1  A    between atoms: C_1  and  C_2
REMARK    2  A    between atoms: C_6  and  C_7
REMARK    3  A    between atoms: C_11  and  C_12
REMARK    4  A    between atoms: C_16  and  N_17
REMARK                            x       y       z     vdW  Elec       q    Type
REMARK                         _______ _______ _______ _____ _____    ______ ____
ROOT
ATOM      1  C   UNL     1       1.520   8.376  20.055  0.00  0.00    +0.000 C 
ATOM      2  O   UNL     1       1.451   8.166  21.266  0.00  0.00    +0.000 OA
ATOM      3  N   UNL     1       2.284   7.467  19.289  0.00  0.00    +0.000 N 
ATOM      4  N   UNL     1       2.876   7.887  18.135  0.00  0.00    +0.000 NA
ATOM      5  C   UNL     1       3.645   6.859  17.759  0.00  0.00    +0.000 A 
ATOM      6  C   UNL     1       3.487   5.727  18.593  0.00  0.00    +0.000 A 
ATOM      7  C   UNL     1       3.998   4.412  18.625  0.00  0.00    +0.000 A 
ATOM      8  C   UNL     1       3.554   3.543  19.641  0.00  0.00    +0.000 A 
ATOM      9  C   UNL     1       2.630   3.961  20.604  0.00  0.00    +0.000 A 
ATOM     10  C   UNL     1       2.127   5.266  20.583  0.00  0.00    +0.000 A 
ATOM     11  C   UNL     1       2.583   6.135  19.575  0.00  0.00    +0.000 A 
ENDROOT
BRANCH   1  17
ATOM     12  C   UNL     1      -2.022  10.257  17.032  0.00  0.00    +0.000 C 
ATOM     13  C   UNL     1      -0.954  10.478  18.061  0.00  0.00    +0.000 A 
ATOM     14  C   UNL     1      -0.647  11.758  18.533  0.00  0.00    +0.000 A 
ATOM     15  C   UNL     1       0.367  11.935  19.477  0.00  0.00    +0.000 A 
ATOM     16  C   UNL     1       1.093  10.836  19.948  0.00  0.00    +0.000 A 
ATOM     17  C   UNL     1       0.802   9.551  19.481  0.00  0.00    +0.000 A 
ATOM     18  C   UNL     1      -0.239   9.376  18.556  0.00  0.00    +0.000 A 
ENDBRANCH   1  17
BRANCH   8  19
ATOM     19  N   UNL     1       4.059   2.163  19.682  0.00  0.00    +0.000 N 
ATOM     20  O   UNL     1       3.604   1.361  18.854  0.00  0.00    +0.000 OA
ATOM     21  O   UNL     1       4.905   1.884  20.542  0.00  0.00    +0.000 OA
ENDBRANCH   8  19
BRANCH   5  22
ATOM     22  C   UNL     1       4.495   6.987  16.608  0.00  0.00    +0.000 C 
ATOM     23  N   UNL     1       5.179   7.046  15.665  0.00  0.00    +0.000 NA
ENDBRANCH   5  22
TORSDOF 3
ENDMDL
MODEL 5
REMARK VINA RESULT:      -7.4      3.013      7.368
REMARK  Name = 
REMARK  4 active torsions:
REMARK  status: ('A' for Active; 'I' for Inactive)
REMARK    1  A    between atoms: C_1  and  C_2
REMARK    2  A    between atoms: C_6  and  C_7
REMARK    3  A    between atoms: C_11  and  C_12
REMARK    4  A    between atoms: C_16  and  N_17
REMARK                            x       y       z     vdW  Elec       q    Type
REMARK                         _______ _______ _______ _____ _____    ______ ____
ROOT
ATOM      1  C   UNL     1       5.720   5.555  15.451  0.00  0.00    +0.000 C 
ATOM      2  O   UNL     1       6.214   6.663  15.655  0.00  0.00    +0.000 OA
ATOM      3  N   UNL     1       4.841   5.054  16.437  0.00  0.00    +0.000 N 
ATOM      4  N   UNL     1       4.706   3.706  16.601  0.00  0.00    +0.000 NA
ATOM      5  C   UNL     1       3.957   3.574  17.700  0.00  0.00    +0.000 A 
ATOM      6  C   UNL     1       3.507   4.818  18.205  0.00  0.00    +0.000 A 
ATOM      7  C   UNL     1       2.683   5.242  19.270  0.00  0.00    +0.000 A 
ATOM      8  C   UNL     1       2.445   6.621  19.426  0.00  0.00    +0.000 A 
ATOM      9  C   UNL     1       3.007   7.560  18.556  0.00  0.00    +0.000 A 
ATOM     10  C   UNL     1       3.831   7.147  17.505  0.00  0.00    +0.000 A 
ATOM     11  C   UNL     1       4.078   5.770  17.360  0.00  0.00    +0.000 A 
ENDROOT
BRANCH   1  17
ATOM     12  C   UNL     1       4.313   2.834  11.471  0.00  0.00    +0.000 C 
ATOM     13  C   UNL     1       5.391   3.554  12.226  0.00  0.00    +0.000 A 
ATOM     14  C   UNL     1       6.707   3.598  11.757  0.00  0.00    +0.000 A 
ATOM     15  C   UNL     1       7.694   4.258  12.493  0.00  0.00    +0.000 A 
ATOM     16  C   UNL     1       7.377   4.868  13.712  0.00  0.00    +0.000 A 
ATOM     17  C   UNL     1       6.066   4.826  14.197  0.00  0.00    +0.000 A 
ATOM     18  C   UNL     1       5.073   4.189  13.437  0.00  0.00    +0.000 A 
ENDBRANCH   1  17
BRANCH   8  19
ATOM     19  N   UNL     1       1.574   7.083  20.517  0.00  0.00    +0.000 N 
ATOM     20  O   UNL     1       0.994   6.222  21.193  0.00  0.00    +0.000 OA
ATOM     21  O   UNL     1       1.470   8.305  20.693  0.00  0.00    +0.000 OA
ENDBRANCH   8  19
BRANCH   5  22
ATOM     22  C   UNL     1       3.683   2.267  18.226  0.00  0.00    +0.000 C 
ATOM     23  N   UNL     1       3.457   1.188  18.610  0.00  0.00    +0.000 NA
ENDBRANCH   5  22
TORSDOF 3
ENDMDL
MODEL 6
REMARK VINA RESULT:      -7.4      3.780      5.524
REMARK  Name = 
REMARK  4 active torsions:
REMARK  status: ('A' for Active; 'I' for Inactive)
REMARK    1  A    between atoms: C_1  and  C_2
REMARK    2  A    between atoms: C_6  and  C_7
REMARK    3  A    between atoms: C_11  and  C_12
REMARK    4  A    between atoms: C_16  and  N_17
REMARK                            x       y       z     vdW  Elec       q    Type
REMARK                         _______ _______ _______ _____ _____    ______ ____
ROOT
ATOM      1  C   UNL     1       2.051   8.565  18.192  0.00  0.00    +0.000 C 
ATOM      2  O   UNL     1       2.269   8.950  17.044  0.00  0.00    +0.000 OA
ATOM      3  N   UNL     1       2.735   7.405  18.620  0.00  0.00    +0.000 N 
ATOM      4  N   UNL     1       2.179   6.607  19.576  0.00  0.00    +0.000 NA
ATOM      5  C   UNL     1       2.976   5.533  19.622  0.00  0.00    +0.000 A 
ATOM      6  C   UNL     1       4.109   5.660  18.783  0.00  0.00    +0.000 A 
ATOM      7  C   UNL     1       5.249   4.879  18.494  0.00  0.00    +0.000 A 
ATOM      8  C   UNL     1       6.200   5.389  17.589  0.00  0.00    +0.000 A 
ATOM      9  C   UNL     1       6.031   6.637  16.981  0.00  0.00    +0.000 A 
ATOM     10  C   UNL     1       4.899   7.411  17.257  0.00  0.00    +0.000 A 
ATOM     11  C   UNL     1       3.945   6.893  18.150  0.00  0.00    +0.000 A 
ENDROOT
BRANCH   1  17
ATOM     12  C   UNL     1      -2.041  11.442  18.649  0.00  0.00    +0.000 C 
ATOM     13  C   UNL     1      -0.917  10.684  19.293  0.00  0.00    +0.000 A 
ATOM     14  C   UNL     1      -0.766  10.642  20.682  0.00  0.00    +0.000 A 
ATOM     15  C   UNL     1       0.302   9.945  21.252  0.00  0.00    +0.000 A 
ATOM     16  C   UNL     1       1.236   9.295  20.438  0.00  0.00    +0.000 A 
ATOM     17  C   UNL     1       1.102   9.335  19.047  0.00  0.00    +0.000 A 
ATOM     18  C   UNL     1       0.009  10.010  18.482  0.00  0.00    +0.000 A 
ENDBRANCH   1  17
BRANCH   8  19
ATOM     19  N   UNL     1       7.403   4.601  17.288  0.00  0.00    +0.000 N 
ATOM     20  O   UNL     1       7.621   4.315  16.103  0.00  0.00    +0.000 OA
ATOM     21  O   UNL     1       8.126   4.267  18.238  0.00  0.00    +0.000 OA
ENDBRANCH   8  19
BRANCH   5  22
ATOM     22  C   UNL     1       2.637   4.429  20.474  0.00  0.00    +0.000 C 
ATOM     23  N   UNL     1       2.401   3.511  21.156  0.00  0.00    +0.000 NA
ENDBRANCH   5  22
TORSDOF 3
ENDMDL
MODEL 7
REMARK VINA RESULT:      -7.4      0.535      1.558
REMARK  Name = 
REMARK  4 active torsions:
REMARK  status: ('A' for Active; 'I' for Inactive)
REMARK    1  A    between atoms: C_1  and  C_2
REMARK    2  A    between atoms: C_6  and  C_7
REMARK    3  A    between atoms: C_11  and  C_12
REMARK    4  A    between atoms: C_16  and  N_17
REMARK                            x       y       z     vdW  Elec       q    Type
REMARK                         _______ _______ _______ _____ _____    ______ ____
ROOT
ATOM      1  C   UNL     1       3.949   3.560  17.874  0.00  0.00    +0.000 C 
ATOM      2  O   UNL     1       3.793   2.480  17.306  0.00  0.00    +0.000 OA
ATOM      3  N   UNL     1       4.981   4.396  17.391  0.00  0.00    +0.000 N 
ATOM      4  N   UNL     1       5.589   5.277  18.237  0.00  0.00    +0.000 NA
ATOM      5  C   UNL     1       6.609   5.773  17.528  0.00  0.00    +0.000 A 
ATOM      6  C   UNL     1       6.619   5.309  16.191  0.00  0.00    +0.000 A 
ATOM      7  C   UNL     1       7.410   5.539  15.044  0.00  0.00    +0.000 A 
ATOM      8  C   UNL     1       7.064   4.883  13.847  0.00  0.00    +0.000 A 
ATOM      9  C   UNL     1       5.966   4.019  13.782  0.00  0.00    +0.000 A 
ATOM     10  C   UNL     1       5.185   3.780  14.917  0.00  0.00    +0.000 A 
ATOM     11  C   UNL     1       5.542   4.426  16.114  0.00  0.00    +0.000 A 
ENDROOT
BRANCH   1  17
ATOM     12  C   UNL     1       1.554   2.275  22.098  0.00  0.00    +0.000 C 
ATOM     13  C   UNL     1       1.929   3.327  21.095  0.00  0.00    +0.000 A 
ATOM     14  C   UNL     1       1.497   4.649  21.227  0.00  0.00    +0.000 A 
ATOM     15  C   UNL     1       1.845   5.602  20.268  0.00  0.00    +0.000 A 
ATOM     16  C   UNL     1       2.617   5.239  19.159  0.00  0.00    +0.000 A 
ATOM     17  C   UNL     1       3.052   3.918  19.010  0.00  0.00    +0.000 A 
ATOM     18  C   UNL     1       2.725   2.973  19.995  0.00  0.00    +0.000 A 
ENDBRANCH   1  17
BRANCH   8  19
ATOM     19  N   UNL     1       7.862   5.123  12.636  0.00  0.00    +0.000 N 
ATOM     20  O   UNL     1       7.581   4.466  11.624  0.00  0.00    +0.000 OA
ATOM     21  O   UNL     1       8.769   5.964  12.701  0.00  0.00    +0.000 OA
ENDBRANCH   8  19
BRANCH   5  22
ATOM     22  C   UNL     1       7.532   6.683  18.146  0.00  0.00    +0.000 C 
ATOM     23  N   UNL     1       8.315   7.402  18.627  0.00  0.00    +0.000 NA
ENDBRANCH   5  22
TORSDOF 3
ENDMDL
MODEL 8
REMARK VINA RESULT:      -7.2      4.057      6.764
REMARK  Name = 
REMARK  4 active torsions:
REMARK  status: ('A' for Active; 'I' for Inactive)
REMARK    1  A    between atoms: C_1  and  C_2
REMARK    2  A    between atoms: C_6  and  C_7
REMARK    3  A    between atoms: C_11  and  C_12
REMARK    4  A    between atoms: C_16  and  N_17
REMARK                            x       y       z     vdW  Elec       q    Type
REMARK                         _______ _______ _______ _____ _____    ______ ____
ROOT
ATOM      1  C   UNL     1       1.483   8.491  20.129  0.00  0.00    +0.000 C 
ATOM      2  O   UNL     1       1.419   8.273  21.338  0.00  0.00    +0.000 OA
ATOM      3  N   UNL     1       2.224   7.573  19.351  0.00  0.00    +0.000 N 
ATOM      4  N   UNL     1       2.817   7.991  18.195  0.00  0.00    +0.000 NA
ATOM      5  C   UNL     1       3.562   6.951  17.806  0.00  0.00    +0.000 A 
ATOM      6  C   UNL     1       3.387   5.815  18.633  0.00  0.00    +0.000 A 
ATOM      7  C   UNL     1       3.873   4.490  18.651  0.00  0.00    +0.000 A 
ATOM      8  C   UNL     1       3.419   3.622  19.663  0.00  0.00    +0.000 A 
ATOM      9  C   UNL     1       2.510   4.051  20.635  0.00  0.00    +0.000 A 
ATOM     10  C   UNL     1       2.032   5.365  20.628  0.00  0.00    +0.000 A 
ATOM     11  C   UNL     1       2.499   6.233  19.624  0.00  0.00    +0.000 A 
ENDROOT
BRANCH   1  17
ATOM     12  C   UNL     1       1.566  13.300  18.683  0.00  0.00    +0.000 C 
ATOM     13  C   UNL     1       0.824  12.002  18.807  0.00  0.00    +0.000 A 
ATOM     14  C   UNL     1      -0.496  11.870  18.364  0.00  0.00    +0.000 A 
ATOM     15  C   UNL     1      -1.168  10.654  18.511  0.00  0.00    +0.000 A 
ATOM     16  C   UNL     1      -0.533   9.564  19.115  0.00  0.00    +0.000 A 
ATOM     17  C   UNL     1       0.785   9.684  19.569  0.00  0.00    +0.000 A 
ATOM     18  C   UNL     1       1.465  10.898  19.389  0.00  0.00    +0.000 A 
ENDBRANCH   1  17
BRANCH   8  19
ATOM     19  N   UNL     1       3.896   2.232  19.689  0.00  0.00    +0.000 N 
ATOM     20  O   UNL     1       4.810   1.954  20.478  0.00  0.00    +0.000 OA
ATOM     21  O   UNL     1       3.359   1.424  18.920  0.00  0.00    +0.000 OA
ENDBRANCH   8  19
BRANCH   5  22
ATOM     22  C   UNL     1       4.406   7.070  16.651  0.00  0.00    +0.000 C 
ATOM     23  N   UNL     1       5.077   7.128  15.697  0.00  0.00    +0.000 NA
ENDBRANCH   5  22
TORSDOF 3
ENDMDL
MODEL 9
REMARK VINA RESULT:      -7.1      3.757      5.443
REMARK  Name = 
REMARK  4 active torsions:
REMARK  status: ('A' for Active; 'I' for Inactive)
REMARK    1  A    between atoms: C_1  and  C_2
REMARK    2  A    between atoms: C_6  and  C_7
REMARK    3  A    between atoms: C_11  and  C_12
REMARK    4  A    between atoms: C_16  and  N_17
REMARK                            x       y       z     vdW  Elec       q    Type
REMARK                         _______ _______ _______ _____ _____    ______ ____
ROOT
ATOM      1  C   UNL     1       2.237   8.704  17.949  0.00  0.00    +0.000 C 
ATOM      2  O   UNL     1       2.782   9.429  17.118  0.00  0.00    +0.000 OA
ATOM      3  N   UNL     1       2.716   7.379  18.057  0.00  0.00    +0.000 N 
ATOM      4  N   UNL     1       1.877   6.390  18.482  0.00  0.00    +0.000 NA
ATOM      5  C   UNL     1       2.573   5.261  18.306  0.00  0.00    +0.000 A 
ATOM      6  C   UNL     1       3.898   5.501  17.869  0.00  0.00    +0.000 A 
ATOM      7  C   UNL     1       5.031   4.709  17.584  0.00  0.00    +0.000 A 
ATOM      8  C   UNL     1       6.219   5.353  17.190  0.00  0.00    +0.000 A 
ATOM      9  C   UNL     1       6.290   6.745  17.076  0.00  0.00    +0.000 A 
ATOM     10  C   UNL     1       5.168   7.535  17.348  0.00  0.00    +0.000 A 
ATOM     11  C   UNL     1       3.979   6.887  17.728  0.00  0.00    +0.000 A 
ENDROOT
BRANCH   1  17
ATOM     12  C   UNL     1      -2.204  11.024  18.296  0.00  0.00    +0.000 C 
ATOM     13  C   UNL     1      -1.053  10.333  18.966  0.00  0.00    +0.000 A 
ATOM     14  C   UNL     1      -1.015  10.153  20.352  0.00  0.00    +0.000 A 
ATOM     15  C   UNL     1       0.080   9.524  20.949  0.00  0.00    +0.000 A 
ATOM     16  C   UNL     1       1.153   9.081  20.169  0.00  0.00    +0.000 A 
ATOM     17  C   UNL     1       1.131   9.260  18.782  0.00  0.00    +0.000 A 
ATOM     18  C   UNL     1       0.014   9.864  18.185  0.00  0.00    +0.000 A 
ENDBRANCH   1  17
BRANCH   8  19
ATOM     19  N   UNL     1       7.416   4.548  16.907  0.00  0.00    +0.000 N 
ATOM     20  O   UNL     1       8.048   4.099  17.874  0.00  0.00    +0.000 OA
ATOM     21  O   UNL     1       7.724   4.370  15.720  0.00  0.00    +0.000 OA
ENDBRANCH   8  19
BRANCH   5  22
ATOM     22  C   UNL     1       1.956   3.993  18.573  0.00  0.00    +0.000 C 
ATOM     23  N   UNL     1       1.417   2.976  18.769  0.00  0.00    +0.000 NA
ENDBRANCH   5  22
TORSDOF 3
ENDMDL
