MODEL 1
REMARK VINA RESULT:      -7.3      0.000      0.000
REMARK  Name = 
REMARK  8 active torsions:
REMARK  status: ('A' for Active; 'I' for Inactive)
REMARK    1  A    between atoms: C_1  and  C_2
REMARK    2  A    between atoms: C_2  and  C_3
REMARK    3  A    between atoms: N_5  and  C_6
REMARK    4  A    between atoms: C_6  and  N_8
REMARK    5  A    between atoms: N_8  and  C_9
REMARK    6  A    between atoms: C_12  and  S_13
REMARK    7  A    between atoms: S_13  and  N_16
REMARK    8  A    between atoms: N_19  and  C_20
REMARK                            x       y       z     vdW  Elec       q    Type
REMARK                         _______ _______ _______ _____ _____    ______ ____
ROOT
ATOM      1  C   UNL     1       1.250   9.001  19.123  0.00  0.00    +0.000 A 
ATOM      2  C   UNL     1       1.639   8.089  20.111  0.00  0.00    +0.000 A 
ATOM      3  C   UNL     1       2.516   7.043  19.801  0.00  0.00    +0.000 A 
ATOM      4  C   UNL     1       3.028   6.924  18.505  0.00  0.00    +0.000 A 
ATOM      5  C   UNL     1       2.723   7.892  17.549  0.00  0.00    +0.000 A 
ATOM      6  C   UNL     1       1.794   8.894  17.840  0.00  0.00    +0.000 A 
ENDROOT
BRANCH   4   7
ATOM      7  S   UNL     1       4.118   5.574  18.092  0.00  0.00    +0.000 S 
ATOM      8  O   UNL     1       4.623   5.849  16.766  0.00  0.00    +0.000 OA
ATOM      9  O   UNL     1       5.022   5.420  19.220  0.00  0.00    +0.000 OA
BRANCH   7  10
ATOM     10  N   UNL     1       3.166   4.193  18.037  0.00  0.00    +0.000 NA
ATOM     11  C   UNL     1       1.693   4.248  18.117  0.00  0.00    +0.000 C 
ATOM     12  C   UNL     1       1.164   3.817  19.497  0.00  0.00    +0.000 C 
ATOM     13  N   UNL     1       1.787   2.623  20.098  0.00  0.00    +0.000 NA
ATOM     14  C   UNL     1       1.516   2.590  21.540  0.00  0.00    +0.000 C 
ATOM     15  C   UNL     1       3.242   2.520  19.862  0.00  0.00    +0.000 C 
ATOM     16  C   UNL     1       3.696   2.876  18.435  0.00  0.00    +0.000 C 
ENDBRANCH   7  10
ENDBRANCH   4   7
BRANCH   1  17
ATOM     17  N   UNL     1       0.266   9.984  19.335  0.00  0.00    +0.000 N 
ATOM     18  H   UNL     1      -0.362   9.825  20.120  0.00  0.00    +0.000 HD
BRANCH  17  19
ATOM     19  C   UNL     1       0.189  11.255  18.811  0.00  0.00    +0.000 C 
ATOM     20  S   UNL     1       1.141  12.436  19.502  0.00  0.00    +0.000 S 
BRANCH  19  23
ATOM     21  C   UNL     1      -1.875  10.607  17.517  0.00  0.00    +0.000 C 
ATOM     22  O   UNL     1      -2.351   9.732  18.229  0.00  0.00    +0.000 OA
ATOM     23  N   UNL     1      -0.776  11.406  17.830  0.00  0.00    +0.000 N 
ATOM     24  H   UNL     1      -0.526  12.090  17.131  0.00  0.00    +0.000 HD
BRANCH  21  26
ATOM     25  C   UNL     1      -2.986   9.805  15.406  0.00  0.00    +0.000 C 
ATOM     26  C   UNL     1      -2.492  11.008  16.188  0.00  0.00    +0.000 C 
ENDBRANCH  21  26
ENDBRANCH  19  23
ENDBRANCH  17  19
ENDBRANCH   1  17
TORSDOF 6
ENDMDL
MODEL 2
REMARK VINA RESULT:      -7.0      2.513      8.166
REMARK  Name = 
REMARK  8 active torsions:
REMARK  status: ('A' for Active; 'I' for Inactive)
REMARK    1  A    between atoms: C_1  and  C_2
REMARK    2  A    between atoms: C_2  and  C_3
REMARK    3  A    between atoms: N_5  and  C_6
REMARK    4  A    between atoms: C_6  and  N_8
REMARK    5  A    between atoms: N_8  and  C_9
REMARK    6  A    between atoms: C_12  and  S_13
REMARK    7  A    between atoms: S_13  and  N_16
REMARK    8  A    between atoms: N_19  and  C_20
REMARK                            x       y       z     vdW  Elec       q    Type
REMARK                         _______ _______ _______ _____ _____    ______ ____
ROOT
ATOM      1  C   UNL     1       2.476   7.267  18.671  0.00  0.00    +0.000 A 
ATOM      2  C   UNL     1       2.051   7.381  19.999  0.00  0.00    +0.000 A 
ATOM      3  C   UNL     1       1.410   8.546  20.436  0.00  0.00    +0.000 A 
ATOM      4  C   UNL     1       1.169   9.590  19.537  0.00  0.00    +0.000 A 
ATOM      5  C   UNL     1       1.499   9.432  18.191  0.00  0.00    +0.000 A 
ATOM      6  C   UNL     1       2.201   8.300  17.771  0.00  0.00    +0.000 A 
ENDROOT
BRANCH   4   7
ATOM      7  S   UNL     1       0.385  11.091  20.094  0.00  0.00    +0.000 S 
ATOM      8  O   UNL     1      -1.041  10.854  20.030  0.00  0.00    +0.000 OA
ATOM      9  O   UNL     1       1.028  11.447  21.348  0.00  0.00    +0.000 OA
BRANCH   7  10
ATOM     10  N   UNL     1       0.789  12.280  18.982  0.00  0.00    +0.000 NA
ATOM     11  C   UNL     1       2.123  12.912  18.954  0.00  0.00    +0.000 C 
ATOM     12  C   UNL     1       2.112  14.332  19.549  0.00  0.00    +0.000 C 
ATOM     13  N   UNL     1       0.989  15.204  19.154  0.00  0.00    +0.000 NA
ATOM     14  C   UNL     1       0.865  16.319  20.100  0.00  0.00    +0.000 C 
ATOM     15  C   UNL     1      -0.306  14.502  19.037  0.00  0.00    +0.000 C 
ATOM     16  C   UNL     1      -0.241  13.126  18.350  0.00  0.00    +0.000 C 
ENDBRANCH   7  10
ENDBRANCH   4   7
BRANCH   1  17
ATOM     17  N   UNL     1       3.249   6.185  18.206  0.00  0.00    +0.000 N 
ATOM     18  H   UNL     1       3.654   6.293  17.279  0.00  0.00    +0.000 HD
BRANCH  17  19
ATOM     19  C   UNL     1       3.760   5.123  18.916  0.00  0.00    +0.000 C 
ATOM     20  S   UNL     1       5.418   5.010  19.057  0.00  0.00    +0.000 S 
BRANCH  19  23
ATOM     21  C   UNL     1       1.699   3.695  18.660  0.00  0.00    +0.000 C 
ATOM     22  O   UNL     1       1.494   3.766  17.455  0.00  0.00    +0.000 OA
ATOM     23  N   UNL     1       2.807   4.208  19.332  0.00  0.00    +0.000 N 
ATOM     24  H   UNL     1       2.822   4.046  20.329  0.00  0.00    +0.000 HD
BRANCH  21  26
ATOM     25  C   UNL     1       1.343   2.872  21.012  0.00  0.00    +0.000 C 
ATOM     26  C   UNL     1       0.780   2.937  19.604  0.00  0.00    +0.000 C 
ENDBRANCH  21  26
ENDBRANCH  19  23
ENDBRANCH  17  19
ENDBRANCH   1  17
TORSDOF 6
ENDMDL
MODEL 3
REMARK VINA RESULT:      -7.0      2.282      2.948
REMARK  Name = 
REMARK  8 active torsions:
REMARK  status: ('A' for Active; 'I' for Inactive)
REMARK    1  A    between atoms: C_1  and  C_2
REMARK    2  A    between atoms: C_2  and  C_3
REMARK    3  A    between atoms: N_5  and  C_6
REMARK    4  A    between atoms: C_6  and  N_8
REMARK    5  A    between atoms: N_8  and  C_9
REMARK    6  A    between atoms: C_12  and  S_13
REMARK    7  A    between atoms: S_13  and  N_16
REMARK    8  A    between atoms: N_19  and  C_20
REMARK                            x       y       z     vdW  Elec       q    Type
REMARK                         _______ _______ _______ _____ _____    ______ ____
ROOT
ATOM      1  C   UNL     1       1.782   8.383  18.906  0.00  0.00    +0.000 A 
ATOM      2  C   UNL     1       2.060   7.378  19.839  0.00  0.00    +0.000 A 
ATOM      3  C   UNL     1       3.030   6.408  19.563  0.00  0.00    +0.000 A 
ATOM      4  C   UNL     1       3.746   6.459  18.362  0.00  0.00    +0.000 A 
ATOM      5  C   UNL     1       3.543   7.520  17.481  0.00  0.00    +0.000 A 
ATOM      6  C   UNL     1       2.526   8.447  17.725  0.00  0.00    +0.000 A 
ENDROOT
BRANCH   4   7
ATOM      7  S   UNL     1       4.959   5.207  17.988  0.00  0.00    +0.000 S 
ATOM      8  O   UNL     1       5.393   5.453  16.630  0.00  0.00    +0.000 OA
ATOM      9  O   UNL     1       5.908   5.216  19.089  0.00  0.00    +0.000 OA
BRANCH   7  10
ATOM     10  N   UNL     1       4.157   3.734  18.044  0.00  0.00    +0.000 NA
ATOM     11  C   UNL     1       2.909   3.487  17.295  0.00  0.00    +0.000 C 
ATOM     12  C   UNL     1       1.666   3.505  18.204  0.00  0.00    +0.000 C 
ATOM     13  N   UNL     1       1.782   2.798  19.493  0.00  0.00    +0.000 NA
ATOM     14  C   UNL     1       0.731   3.254  20.410  0.00  0.00    +0.000 C 
ATOM     15  C   UNL     1       3.103   2.938  20.140  0.00  0.00    +0.000 C 
ATOM     16  C   UNL     1       4.309   2.819  19.190  0.00  0.00    +0.000 C 
ENDBRANCH   7  10
ENDBRANCH   4   7
BRANCH   1  17
ATOM     17  N   UNL     1       0.724   9.299  19.062  0.00  0.00    +0.000 N 
ATOM     18  H   UNL     1      -0.208   8.941  18.864  0.00  0.00    +0.000 HD
BRANCH  17  19
ATOM     19  C   UNL     1       0.728  10.522  19.692  0.00  0.00    +0.000 C 
ATOM     20  S   UNL     1       1.554  11.770  18.958  0.00  0.00    +0.000 S 
BRANCH  19  23
ATOM     21  C   UNL     1       0.529   9.929  22.134  0.00  0.00    +0.000 C 
ATOM     22  O   UNL     1       1.650   9.502  22.379  0.00  0.00    +0.000 OA
ATOM     23  N   UNL     1       0.124  10.519  20.938  0.00  0.00    +0.000 N 
ATOM     24  H   UNL     1      -0.837  10.830  20.913  0.00  0.00    +0.000 HD
BRANCH  21  26
ATOM     25  C   UNL     1      -1.442  11.196  23.054  0.00  0.00    +0.000 C 
ATOM     26  C   UNL     1      -0.584   9.949  23.168  0.00  0.00    +0.000 C 
ENDBRANCH  21  26
ENDBRANCH  19  23
ENDBRANCH  17  19
ENDBRANCH   1  17
TORSDOF 6
ENDMDL
MODEL 4
REMARK VINA RESULT:      -7.0      2.906      4.194
REMARK  Name = 
REMARK  8 active torsions:
REMARK  status: ('A' for Active; 'I' for Inactive)
REMARK    1  A    between atoms: C_1  and  C_2
REMARK    2  A    between atoms: C_2  and  C_3
REMARK    3  A    between atoms: N_5  and  C_6
REMARK    4  A    between atoms: C_6  and  N_8
REMARK    5  A    between atoms: N_8  and  C_9
REMARK    6  A    between atoms: C_12  and  S_13
REMARK    7  A    between atoms: S_13  and  N_16
REMARK    8  A    between atoms: N_19  and  C_20
REMARK                            x       y       z     vdW  Elec       q    Type
REMARK                         _______ _______ _______ _____ _____    ______ ____
ROOT
ATOM      1  C   UNL     1       1.691   8.078  19.835  0.00  0.00    +0.000 A 
ATOM      2  C   UNL     1       1.520   7.020  20.734  0.00  0.00    +0.000 A 
ATOM      3  C   UNL     1       1.771   5.704  20.331  0.00  0.00    +0.000 A 
ATOM      4  C   UNL     1       2.221   5.446  19.032  0.00  0.00    +0.000 A 
ATOM      5  C   UNL     1       2.491   6.508  18.171  0.00  0.00    +0.000 A 
ATOM      6  C   UNL     1       2.174   7.814  18.550  0.00  0.00    +0.000 A 
ENDROOT
BRANCH   4   7
ATOM      7  S   UNL     1       2.509   3.768  18.500  0.00  0.00    +0.000 S 
ATOM      8  O   UNL     1       2.186   2.922  19.626  0.00  0.00    +0.000 OA
ATOM      9  O   UNL     1       1.817   3.619  17.230  0.00  0.00    +0.000 OA
BRANCH   7  10
ATOM     10  N   UNL     1       4.151   3.646  18.179  0.00  0.00    +0.000 NA
ATOM     11  C   UNL     1       5.178   4.025  19.170  0.00  0.00    +0.000 C 
ATOM     12  C   UNL     1       5.837   5.378  18.844  0.00  0.00    +0.000 C 
ATOM     13  N   UNL     1       6.202   5.610  17.434  0.00  0.00    +0.000 NA
ATOM     14  C   UNL     1       6.399   7.045  17.198  0.00  0.00    +0.000 C 
ATOM     15  C   UNL     1       5.224   5.075  16.463  0.00  0.00    +0.000 C 
ATOM     16  C   UNL     1       4.671   3.678  16.800  0.00  0.00    +0.000 C 
ENDBRANCH   7  10
ENDBRANCH   4   7
BRANCH   1  17
ATOM     17  N   UNL     1       1.321   9.404  20.133  0.00  0.00    +0.000 N 
ATOM     18  H   UNL     1       2.078  10.027  20.405  0.00  0.00    +0.000 HD
BRANCH  17  19
ATOM     19  C   UNL     1       0.138  10.051  19.859  0.00  0.00    +0.000 C 
ATOM     20  S   UNL     1      -0.301  10.217  18.259  0.00  0.00    +0.000 S 
BRANCH  19  23
ATOM     21  C   UNL     1      -0.242  10.378  22.330  0.00  0.00    +0.000 C 
ATOM     22  O   UNL     1       0.758   9.858  22.807  0.00  0.00    +0.000 OA
ATOM     23  N   UNL     1      -0.485  10.588  20.973  0.00  0.00    +0.000 N 
ATOM     24  H   UNL     1      -1.359  11.046  20.755  0.00  0.00    +0.000 HD
BRANCH  21  26
ATOM     25  C   UNL     1      -1.414  12.473  23.089  0.00  0.00    +0.000 C 
ATOM     26  C   UNL     1      -1.353  10.959  23.188  0.00  0.00    +0.000 C 
ENDBRANCH  21  26
ENDBRANCH  19  23
ENDBRANCH  17  19
ENDBRANCH   1  17
TORSDOF 6
ENDMDL
MODEL 5
REMARK VINA RESULT:      -7.0      2.429      3.454
REMARK  Name = 
REMARK  8 active torsions:
REMARK  status: ('A' for Active; 'I' for Inactive)
REMARK    1  A    between atoms: C_1  and  C_2
REMARK    2  A    between atoms: C_2  and  C_3
REMARK    3  A    between atoms: N_5  and  C_6
REMARK    4  A    between atoms: C_6  and  N_8
REMARK    5  A    between atoms: N_8  and  C_9
REMARK    6  A    between atoms: C_12  and  S_13
REMARK    7  A    between atoms: S_13  and  N_16
REMARK    8  A    between atoms: N_19  and  C_20
REMARK                            x       y       z     vdW  Elec       q    Type
REMARK                         _______ _______ _______ _____ _____    ______ ____
ROOT
ATOM      1  C   UNL     1       1.747   7.857  20.111  0.00  0.00    +0.000 A 
ATOM      2  C   UNL     1       1.543   6.719  20.899  0.00  0.00    +0.000 A 
ATOM      3  C   UNL     1       1.808   5.446  20.383  0.00  0.00    +0.000 A 
ATOM      4  C   UNL     1       2.305   5.310  19.082  0.00  0.00    +0.000 A 
ATOM      5  C   UNL     1       2.607   6.448  18.336  0.00  0.00    +0.000 A 
ATOM      6  C   UNL     1       2.276   7.714  18.825  0.00  0.00    +0.000 A 
ENDROOT
BRANCH   4   7
ATOM      7  S   UNL     1       2.612   3.690  18.404  0.00  0.00    +0.000 S 
ATOM      8  O   UNL     1       2.304   2.743  19.453  0.00  0.00    +0.000 OA
ATOM      9  O   UNL     1       1.918   3.643  17.128  0.00  0.00    +0.000 OA
BRANCH   7  10
ATOM     10  N   UNL     1       4.255   3.617  18.070  0.00  0.00    +0.000 NA
ATOM     11  C   UNL     1       5.279   3.963  19.075  0.00  0.00    +0.000 C 
ATOM     12  C   UNL     1       5.910   5.344  18.817  0.00  0.00    +0.000 C 
ATOM     13  N   UNL     1       6.262   5.657  17.419  0.00  0.00    +0.000 NA
ATOM     14  C   UNL     1       6.430   7.106  17.259  0.00  0.00    +0.000 C 
ATOM     15  C   UNL     1       5.290   5.155  16.427  0.00  0.00    +0.000 C 
ATOM     16  C   UNL     1       4.766   3.732  16.691  0.00  0.00    +0.000 C 
ENDBRANCH   7  10
ENDBRANCH   4   7
BRANCH   1  17
ATOM     17  N   UNL     1       1.367   9.149  20.520  0.00  0.00    +0.000 N 
ATOM     18  H   UNL     1       1.965   9.910  20.207  0.00  0.00    +0.000 HD
BRANCH  17  19
ATOM     19  C   UNL     1       0.169   9.567  21.054  0.00  0.00    +0.000 C 
ATOM     20  S   UNL     1       0.036   9.616  22.715  0.00  0.00    +0.000 S 
BRANCH  19  23
ATOM     21  C   UNL     1      -0.730  10.205  18.786  0.00  0.00    +0.000 C 
ATOM     22  O   UNL     1       0.289  10.212  18.108  0.00  0.00    +0.000 OA
ATOM     23  N   UNL     1      -0.823   9.789  20.114  0.00  0.00    +0.000 N 
ATOM     24  H   UNL     1      -1.748   9.836  20.518  0.00  0.00    +0.000 HD
BRANCH  21  26
ATOM     25  C   UNL     1      -2.218  10.226  16.757  0.00  0.00    +0.000 C 
ATOM     26  C   UNL     1      -2.090  10.583  18.227  0.00  0.00    +0.000 C 
ENDBRANCH  21  26
ENDBRANCH  19  23
ENDBRANCH  17  19
ENDBRANCH   1  17
TORSDOF 6
ENDMDL
MODEL 6
REMARK VINA RESULT:      -7.0      2.535      8.227
REMARK  Name = 
REMARK  8 active torsions:
REMARK  status: ('A' for Active; 'I' for Inactive)
REMARK    1  A    between atoms: C_1  and  C_2
REMARK    2  A    between atoms: C_2  and  C_3
REMARK    3  A    between atoms: N_5  and  C_6
REMARK    4  A    between atoms: C_6  and  N_8
REMARK    5  A    between atoms: N_8  and  C_9
REMARK    6  A    between atoms: C_12  and  S_13
REMARK    7  A    between atoms: S_13  and  N_16
REMARK    8  A    between atoms: N_19  and  C_20
REMARK                            x       y       z     vdW  Elec       q    Type
REMARK                         _______ _______ _______ _____ _____    ______ ____
ROOT
ATOM      1  C   UNL     1       2.506   7.353  18.539  0.00  0.00    +0.000 A 
ATOM      2  C   UNL     1       2.315   8.452  17.695  0.00  0.00    +0.000 A 
ATOM      3  C   UNL     1       1.643   9.589  18.159  0.00  0.00    +0.000 A 
ATOM      4  C   UNL     1       1.183   9.638  19.478  0.00  0.00    +0.000 A 
ATOM      5  C   UNL     1       1.466   8.586  20.348  0.00  0.00    +0.000 A 
ATOM      6  C   UNL     1       2.074   7.424  19.866  0.00  0.00    +0.000 A 
ENDROOT
BRANCH   4   7
ATOM      7  S   UNL     1       0.295  11.068  20.066  0.00  0.00    +0.000 S 
ATOM      8  O   UNL     1      -1.103  10.822  19.791  0.00  0.00    +0.000 OA
ATOM      9  O   UNL     1       0.758  11.308  21.423  0.00  0.00    +0.000 OA
BRANCH   7  10
ATOM     10  N   UNL     1       0.812  12.366  19.136  0.00  0.00    +0.000 NA
ATOM     11  C   UNL     1       2.102  13.043  19.376  0.00  0.00    +0.000 C 
ATOM     12  C   UNL     1       1.929  14.402  20.077  0.00  0.00    +0.000 C 
ATOM     13  N   UNL     1       0.842  15.267  19.579  0.00  0.00    +0.000 NA
ATOM     14  C   UNL     1       0.516  16.288  20.582  0.00  0.00    +0.000 C 
ATOM     15  C   UNL     1      -0.383  14.534  19.197  0.00  0.00    +0.000 C 
ATOM     16  C   UNL     1      -0.144  13.228  18.418  0.00  0.00    +0.000 C 
ENDBRANCH   7  10
ENDBRANCH   4   7
BRANCH   1  17
ATOM     17  N   UNL     1       3.045   6.131  18.093  0.00  0.00    +0.000 N 
ATOM     18  H   UNL     1       3.215   6.057  17.093  0.00  0.00    +0.000 HD
BRANCH  17  19
ATOM     19  C   UNL     1       3.624   5.124  18.831  0.00  0.00    +0.000 C 
ATOM     20  S   UNL     1       5.280   5.160  19.026  0.00  0.00    +0.000 S 
BRANCH  19  23
ATOM     21  C   UNL     1       1.565   3.683  18.628  0.00  0.00    +0.000 C 
ATOM     22  O   UNL     1       1.211   3.915  17.479  0.00  0.00    +0.000 OA
ATOM     23  N   UNL     1       2.743   4.132  19.226  0.00  0.00    +0.000 N 
ATOM     24  H   UNL     1       2.884   3.833  20.180  0.00  0.00    +0.000 HD
BRANCH  21  26
ATOM     25  C   UNL     1       1.263   2.883  20.995  0.00  0.00    +0.000 C 
ATOM     26  C   UNL     1       0.782   2.774  19.560  0.00  0.00    +0.000 C 
ENDBRANCH  21  26
ENDBRANCH  19  23
ENDBRANCH  17  19
ENDBRANCH   1  17
TORSDOF 6
ENDMDL
MODEL 7
REMARK VINA RESULT:      -7.0      2.143      2.945
REMARK  Name = 
REMARK  8 active torsions:
REMARK  status: ('A' for Active; 'I' for Inactive)
REMARK    1  A    between atoms: C_1  and  C_2
REMARK    2  A    between atoms: C_2  and  C_3
REMARK    3  A    between atoms: N_5  and  C_6
REMARK    4  A    between atoms: C_6  and  N_8
REMARK    5  A    between atoms: N_8  and  C_9
REMARK    6  A    between atoms: C_12  and  S_13
REMARK    7  A    between atoms: S_13  and  N_16
REMARK    8  A    between atoms: N_19  and  C_20
REMARK                            x       y       z     vdW  Elec       q    Type
REMARK                         _______ _______ _______ _____ _____    ______ ____
ROOT
ATOM      1  C   UNL     1       1.363   9.244  19.337  0.00  0.00    +0.000 A 
ATOM      2  C   UNL     1       1.836   9.121  18.026  0.00  0.00    +0.000 A 
ATOM      3  C   UNL     1       2.628   8.026  17.661  0.00  0.00    +0.000 A 
ATOM      4  C   UNL     1       2.926   7.036  18.603  0.00  0.00    +0.000 A 
ATOM      5  C   UNL     1       2.368   7.105  19.879  0.00  0.00    +0.000 A 
ATOM      6  C   UNL     1       1.637   8.232  20.262  0.00  0.00    +0.000 A 
ENDROOT
BRANCH   4   7
ATOM      7  S   UNL     1       3.963   5.656  18.157  0.00  0.00    +0.000 S 
ATOM      8  O   UNL     1       4.460   5.933  16.827  0.00  0.00    +0.000 OA
ATOM      9  O   UNL     1       4.876   5.455  19.269  0.00  0.00    +0.000 OA
BRANCH   7  10
ATOM     10  N   UNL     1       2.964   4.309  18.095  0.00  0.00    +0.000 NA
ATOM     11  C   UNL     1       1.504   4.402  18.296  0.00  0.00    +0.000 C 
ATOM     12  C   UNL     1       1.071   3.900  19.685  0.00  0.00    +0.000 C 
ATOM     13  N   UNL     1       1.699   2.653  20.161  0.00  0.00    +0.000 NA
ATOM     14  C   UNL     1       1.541   2.537  21.616  0.00  0.00    +0.000 C 
ATOM     15  C   UNL     1       3.126   2.522  19.803  0.00  0.00    +0.000 C 
ATOM     16  C   UNL     1       3.479   2.955  18.368  0.00  0.00    +0.000 C 
ENDBRANCH   7  10
ENDBRANCH   4   7
BRANCH   1  17
ATOM     17  N   UNL     1       0.684  10.387  19.801  0.00  0.00    +0.000 N 
ATOM     18  H   UNL     1       1.260  11.208  19.972  0.00  0.00    +0.000 HD
BRANCH  17  19
ATOM     19  C   UNL     1      -0.667  10.645  19.806  0.00  0.00    +0.000 C 
ATOM     20  S   UNL     1      -1.532  10.269  18.431  0.00  0.00    +0.000 S 
BRANCH  19  23
ATOM     21  C   UNL     1      -0.751  11.139  22.277  0.00  0.00    +0.000 C 
ATOM     22  O   UNL     1       0.240  10.546  22.683  0.00  0.00    +0.000 OA
ATOM     23  N   UNL     1      -1.115  11.300  20.940  0.00  0.00    +0.000 N 
ATOM     24  H   UNL     1      -1.959  11.832  20.783  0.00  0.00    +0.000 HD
BRANCH  21  26
ATOM     25  C   UNL     1      -2.891  12.451  22.455  0.00  0.00    +0.000 C 
ATOM     26  C   UNL     1      -1.704  11.874  23.204  0.00  0.00    +0.000 C 
ENDBRANCH  21  26
ENDBRANCH  19  23
ENDBRANCH  17  19
ENDBRANCH   1  17
TORSDOF 6
ENDMDL
MODEL 8
REMARK VINA RESULT:      -7.0      2.134      3.133
REMARK  Name = 
REMARK  8 active torsions:
REMARK  status: ('A' for Active; 'I' for Inactive)
REMARK    1  A    between atoms: C_1  and  C_2
REMARK    2  A    between atoms: C_2  and  C_3
REMARK    3  A    between atoms: N_5  and  C_6
REMARK    4  A    between atoms: C_6  and  N_8
REMARK    5  A    between atoms: N_8  and  C_9
REMARK    6  A    between atoms: C_12  and  S_13
REMARK    7  A    between atoms: S_13  and  N_16
REMARK    8  A    between atoms: N_19  and  C_20
REMARK                            x       y       z     vdW  Elec       q    Type
REMARK                         _______ _______ _______ _____ _____    ______ ____
ROOT
ATOM      1  C   UNL     1       1.756   8.344  19.467  0.00  0.00    +0.000 A 
ATOM      2  C   UNL     1       1.637   7.379  20.473  0.00  0.00    +0.000 A 
ATOM      3  C   UNL     1       1.879   6.030  20.190  0.00  0.00    +0.000 A 
ATOM      4  C   UNL     1       2.267   5.646  18.902  0.00  0.00    +0.000 A 
ATOM      5  C   UNL     1       2.486   6.619  17.928  0.00  0.00    +0.000 A 
ATOM      6  C   UNL     1       2.178   7.956  18.192  0.00  0.00    +0.000 A 
ENDROOT
BRANCH   4   7
ATOM      7  S   UNL     1       2.542   3.925  18.523  0.00  0.00    +0.000 S 
ATOM      8  O   UNL     1       2.211   3.186  19.721  0.00  0.00    +0.000 OA
ATOM      9  O   UNL     1       1.851   3.667  17.271  0.00  0.00    +0.000 OA
BRANCH   7  10
ATOM     10  N   UNL     1       4.184   3.762  18.219  0.00  0.00    +0.000 NA
ATOM     11  C   UNL     1       5.210   4.122  19.217  0.00  0.00    +0.000 C 
ATOM     12  C   UNL     1       5.905   5.456  18.888  0.00  0.00    +0.000 C 
ATOM     13  N   UNL     1       6.287   5.671  17.479  0.00  0.00    +0.000 NA
ATOM     14  C   UNL     1       6.521   7.099  17.237  0.00  0.00    +0.000 C 
ATOM     15  C   UNL     1       5.306   5.153  16.504  0.00  0.00    +0.000 C 
ATOM     16  C   UNL     1       4.717   3.773  16.843  0.00  0.00    +0.000 C 
ENDBRANCH   7  10
ENDBRANCH   4   7
BRANCH   1  17
ATOM     17  N   UNL     1       1.391   9.691  19.651  0.00  0.00    +0.000 N 
ATOM     18  H   UNL     1       1.659  10.107  20.540  0.00  0.00    +0.000 HD
BRANCH  17  19
ATOM     19  C   UNL     1       0.964  10.604  18.715  0.00  0.00    +0.000 C 
ATOM     20  S   UNL     1       1.853  12.004  18.537  0.00  0.00    +0.000 S 
BRANCH  19  23
ATOM     21  C   UNL     1      -1.537  10.692  18.412  0.00  0.00    +0.000 C 
ATOM     22  O   UNL     1      -1.841  11.641  19.123  0.00  0.00    +0.000 OA
ATOM     23  N   UNL     1      -0.239  10.279  18.113  0.00  0.00    +0.000 N 
ATOM     24  H   UNL     1      -0.171   9.482  17.496  0.00  0.00    +0.000 HD
BRANCH  21  26
ATOM     25  C   UNL     1      -2.497  10.079  16.167  0.00  0.00    +0.000 C 
ATOM     26  C   UNL     1      -2.569   9.862  17.668  0.00  0.00    +0.000 C 
ENDBRANCH  21  26
ENDBRANCH  19  23
ENDBRANCH  17  19
ENDBRANCH   1  17
TORSDOF 6
ENDMDL
MODEL 9
REMARK VINA RESULT:      -6.9      2.560      3.848
REMARK  Name = 
REMARK  8 active torsions:
REMARK  status: ('A' for Active; 'I' for Inactive)
REMARK    1  A    between atoms: C_1  and  C_2
REMARK    2  A    between atoms: C_2  and  C_3
REMARK    3  A    between atoms: N_5  and  C_6
REMARK    4  A    between atoms: C_6  and  N_8
REMARK    5  A    between atoms: N_8  and  C_9
REMARK    6  A    between atoms: C_12  and  S_13
REMARK    7  A    between atoms: S_13  and  N_16
REMARK    8  A    between atoms: N_19  and  C_20
REMARK                            x       y       z     vdW  Elec       q    Type
REMARK                         _______ _______ _______ _____ _____    ______ ____
ROOT
ATOM      1  C   UNL     1       1.764   7.704  20.251  0.00  0.00    +0.000 A 
ATOM      2  C   UNL     1       2.211   7.631  18.927  0.00  0.00    +0.000 A 
ATOM      3  C   UNL     1       2.462   6.388  18.334  0.00  0.00    +0.000 A 
ATOM      4  C   UNL     1       2.241   5.212  19.059  0.00  0.00    +0.000 A 
ATOM      5  C   UNL     1       1.696   5.282  20.341  0.00  0.00    +0.000 A 
ATOM      6  C   UNL     1       1.512   6.523  20.955  0.00  0.00    +0.000 A 
ENDROOT
BRANCH   4   7
ATOM      7  S   UNL     1       2.593   3.626  18.324  0.00  0.00    +0.000 S 
ATOM      8  O   UNL     1       2.245   2.631  19.315  0.00  0.00    +0.000 OA
ATOM      9  O   UNL     1       1.958   3.632  17.016  0.00  0.00    +0.000 OA
BRANCH   7  10
ATOM     10  N   UNL     1       4.250   3.579  18.064  0.00  0.00    +0.000 NA
ATOM     11  C   UNL     1       5.223   3.954  19.109  0.00  0.00    +0.000 C 
ATOM     12  C   UNL     1       5.840   5.343  18.864  0.00  0.00    +0.000 C 
ATOM     13  N   UNL     1       6.248   5.648  17.480  0.00  0.00    +0.000 NA
ATOM     14  C   UNL     1       6.398   7.098  17.311  0.00  0.00    +0.000 C 
ATOM     15  C   UNL     1       5.330   5.118  16.451  0.00  0.00    +0.000 C 
ATOM     16  C   UNL     1       4.820   3.689  16.708  0.00  0.00    +0.000 C 
ENDBRANCH   7  10
ENDBRANCH   4   7
BRANCH   1  17
ATOM     17  N   UNL     1       1.629   8.920  20.946  0.00  0.00    +0.000 N 
ATOM     18  H   UNL     1       2.469   9.491  21.012  0.00  0.00    +0.000 HD
BRANCH  17  19
ATOM     19  C   UNL     1       0.479   9.578  21.319  0.00  0.00    +0.000 C 
ATOM     20  S   UNL     1       0.002   9.462  22.912  0.00  0.00    +0.000 S 
BRANCH  19  23
ATOM     21  C   UNL     1       0.266  10.974  19.231  0.00  0.00    +0.000 C 
ATOM     22  O   UNL     1       1.438  11.111  18.902  0.00  0.00    +0.000 OA
ATOM     23  N   UNL     1      -0.202  10.168  20.268  0.00  0.00    +0.000 N 
ATOM     24  H   UNL     1      -1.204  10.163  20.392  0.00  0.00    +0.000 HD
BRANCH  21  26
ATOM     25  C   UNL     1      -0.632  13.101  18.228  0.00  0.00    +0.000 C 
ATOM     26  C   UNL     1      -0.879  11.623  18.472  0.00  0.00    +0.000 C 
ENDBRANCH  21  26
ENDBRANCH  19  23
ENDBRANCH  17  19
ENDBRANCH   1  17
TORSDOF 6
ENDMDL
