MODEL 1
REMARK VINA RESULT:      -8.1      0.000      0.000
REMARK  Name = 
REMARK  18 active torsions:
REMARK  status: ('A' for Active; 'I' for Inactive)
REMARK    1  A    between atoms: N_1  and  CA_2
REMARK    2  A    between atoms: CA_2  and  CB_3
REMARK    3  A    between atoms: CA_2  and  C_8
REMARK    4  A    between atoms: CB_3  and  CG_4
REMARK    5  A    between atoms: CG_4  and  CD_5
REMARK    6  A    between atoms: CD_5  and  OE2_7
REMARK    7  A    between atoms: N_10  and  CA_11
REMARK    8  A    between atoms: CA_11  and  CB_12
REMARK    9  A    between atoms: CA_11  and  C_20
REMARK   10  A    between atoms: CB_12  and  CG_13
REMARK   11  A    between atoms: CZ_16  and  OH_17
REMARK   12  A    between atoms: N_22  and  CA_23
REMARK   13  A    between atoms: CA_23  and  CB_24
REMARK   14  A    between atoms: CA_23  and  C_29
REMARK   15  A    between atoms: CB_24  and  CG_25
REMARK   16  A    between atoms: CG_25  and  CD_26
REMARK   17  A    between atoms: CD_26  and  OE2_28
REMARK   18  A    between atoms: C_29  and  OXT_31
REMARK                            x       y       z     vdW  Elec       q    Type
REMARK                         _______ _______ _______ _____ _____    ______ ____
ROOT
ATOM      1  CA  TYR A   2       4.390   6.551  18.100  0.00  0.00    +0.000 C 
ENDROOT
BRANCH   1   2
ATOM      2  C   TYR A   2       4.611   5.414  19.129  0.00  0.00    +0.000 C 
ATOM      3  O   TYR A   2       5.679   5.229  19.707  0.00  0.00    +0.000 OA
ATOM      4  N   GLU A   3       3.537   4.551  19.278  0.00  0.00    +0.000 N 
ATOM      5  H   GLU A   3       2.871   4.508  18.513  0.00  0.00    +0.000 HD
BRANCH   4   6
ATOM      6  CA  GLU A   3       3.582   3.436  20.222  0.00  0.00    +0.000 C 
BRANCH   6   7
ATOM      7  C   GLU A   3       4.192   2.189  19.565  0.00  0.00    +0.000 C 
ATOM      8  O   GLU A   3       3.805   1.730  18.498  0.00  0.00    +0.000 OA
BRANCH   7   9
ATOM      9  OXT GLU A   3       5.274   1.690  20.196  0.00  0.00    +0.000 OA
ATOM     10  HXT GLU A   3       5.853   1.127  19.630  0.00  0.00    +0.000 HD
ENDBRANCH   7   9
ENDBRANCH   6   7
BRANCH   6  11
ATOM     11  CB  GLU A   3       2.172   3.104  20.743  0.00  0.00    +0.000 C 
BRANCH  11  12
ATOM     12  CG  GLU A   3       1.071   3.755  19.913  0.00  0.00    +0.000 C 
BRANCH  12  13
ATOM     13  CD  GLU A   3       0.826   3.001  18.620  0.00  0.00    +0.000 C 
ATOM     14  OE1 GLU A   3       0.162   1.996  18.505  0.00  0.00    +0.000 OA
BRANCH  13  15
ATOM     15  OE2 GLU A   3       1.434   3.606  17.568  0.00  0.00    +0.000 OA
ATOM     16  HE2 GLU A   3       1.994   4.367  17.819  0.00  0.00    +0.000 HD
ENDBRANCH  13  15
ENDBRANCH  12  13
ENDBRANCH  11  12
ENDBRANCH   6  11
ENDBRANCH   4   6
ENDBRANCH   1   2
BRANCH   1  19
ATOM     17  C   GLU A   1       5.124   5.141  16.155  0.00  0.00    +0.000 C 
ATOM     18  O   GLU A   1       4.324   4.236  16.369  0.00  0.00    +0.000 OA
ATOM     19  N   TYR A   2       5.182   6.304  16.892  0.00  0.00    +0.000 N 
ATOM     20  H   TYR A   2       5.990   6.907  16.751  0.00  0.00    +0.000 HD
BRANCH  17  21
ATOM     21  CA  GLU A   1       6.118   5.129  14.971  0.00  0.00    +0.000 C 
BRANCH  21  22
ATOM     22  N   GLU A   1       7.480   5.380  15.452  0.00  0.00    +0.000 NA
ATOM     23  H1  GLU A   1       7.717   4.759  16.224  0.00  0.00    +0.000 HD
ATOM     24  H2  GLU A   1       7.536   6.341  15.810  0.00  0.00    +0.000 HD
ENDBRANCH  21  22
BRANCH  21  25
ATOM     25  CB  GLU A   1       6.019   3.783  14.232  0.00  0.00    +0.000 C 
BRANCH  25  26
ATOM     26  CG  GLU A   1       6.428   3.851  12.760  0.00  0.00    +0.000 C 
BRANCH  26  27
ATOM     27  CD  GLU A   1       5.609   2.892  11.945  0.00  0.00    +0.000 C 
ATOM     28  OE1 GLU A   1       4.469   3.145  11.571  0.00  0.00    +0.000 OA
BRANCH  27  29
ATOM     29  OE2 GLU A   1       6.254   1.768  11.595  0.00  0.00    +0.000 OA
ATOM     30  HE2 GLU A   1       6.957   1.484  12.211  0.00  0.00    +0.000 HD
ENDBRANCH  27  29
ENDBRANCH  26  27
ENDBRANCH  25  26
ENDBRANCH  21  25
ENDBRANCH  17  21
ENDBRANCH   1  19
BRANCH   1  31
ATOM     31  CB  TYR A   2       2.886   6.746  17.839  0.00  0.00    +0.000 C 
BRANCH  31  32
ATOM     32  CG  TYR A   2       2.223   7.870  18.610  0.00  0.00    +0.000 A 
ATOM     33  CD1 TYR A   2       1.867   9.058  17.956  0.00  0.00    +0.000 A 
ATOM     34  CE1 TYR A   2       1.164  10.060  18.630  0.00  0.00    +0.000 A 
ATOM     35  CZ  TYR A   2       0.824   9.879  19.966  0.00  0.00    +0.000 A 
ATOM     36  CE2 TYR A   2       1.201   8.731  20.644  0.00  0.00    +0.000 A 
ATOM     37  CD2 TYR A   2       1.888   7.727  19.965  0.00  0.00    +0.000 A 
BRANCH  35  38
ATOM     38  OH  TYR A   2       0.095  10.803  20.651  0.00  0.00    +0.000 OA
ATOM     39  HH  TYR A   2       0.633  11.129  21.390  0.00  0.00    +0.000 HD
ENDBRANCH  35  38
ENDBRANCH  31  32
ENDBRANCH   1  31
TORSDOF 18
ENDMDL
MODEL 2
REMARK VINA RESULT:      -7.5      1.901      5.705
REMARK  Name = 
REMARK  18 active torsions:
REMARK  status: ('A' for Active; 'I' for Inactive)
REMARK    1  A    between atoms: N_1  and  CA_2
REMARK    2  A    between atoms: CA_2  and  CB_3
REMARK    3  A    between atoms: CA_2  and  C_8
REMARK    4  A    between atoms: CB_3  and  CG_4
REMARK    5  A    between atoms: CG_4  and  CD_5
REMARK    6  A    between atoms: CD_5  and  OE2_7
REMARK    7  A    between atoms: N_10  and  CA_11
REMARK    8  A    between atoms: CA_11  and  CB_12
REMARK    9  A    between atoms: CA_11  and  C_20
REMARK   10  A    between atoms: CB_12  and  CG_13
REMARK   11  A    between atoms: CZ_16  and  OH_17
REMARK   12  A    between atoms: N_22  and  CA_23
REMARK   13  A    between atoms: CA_23  and  CB_24
REMARK   14  A    between atoms: CA_23  and  C_29
REMARK   15  A    between atoms: CB_24  and  CG_25
REMARK   16  A    between atoms: CG_25  and  CD_26
REMARK   17  A    between atoms: CD_26  and  OE2_28
REMARK   18  A    between atoms: C_29  and  OXT_31
REMARK                            x       y       z     vdW  Elec       q    Type
REMARK                         _______ _______ _______ _____ _____    ______ ____
ROOT
ATOM      1  CA  TYR A   2       2.847   6.095  18.266  0.00  0.00    +0.000 C 
ENDROOT
BRANCH   1   2
ATOM      2  C   TYR A   2       4.169   5.965  17.469  0.00  0.00    +0.000 C 
ATOM      3  O   TYR A   2       4.855   6.930  17.144  0.00  0.00    +0.000 OA
ATOM      4  N   GLU A   3       4.474   4.676  17.059  0.00  0.00    +0.000 N 
ATOM      5  H   GLU A   3       3.703   4.018  16.999  0.00  0.00    +0.000 HD
BRANCH   4   6
ATOM      6  CA  GLU A   3       5.695   4.385  16.310  0.00  0.00    +0.000 C 
BRANCH   6   7
ATOM      7  C   GLU A   3       6.925   4.964  17.025  0.00  0.00    +0.000 C 
ATOM      8  O   GLU A   3       7.434   4.452  18.014  0.00  0.00    +0.000 OA
BRANCH   7   9
ATOM      9  OXT GLU A   3       7.483   6.029  16.415  0.00  0.00    +0.000 OA
ATOM     10  HXT GLU A   3       8.181   6.481  16.944  0.00  0.00    +0.000 HD
ENDBRANCH   7   9
ENDBRANCH   6   7
BRANCH   6  11
ATOM     11  CB  GLU A   3       5.611   4.958  14.885  0.00  0.00    +0.000 C 
BRANCH  11  12
ATOM     12  CG  GLU A   3       6.279   4.058  13.850  0.00  0.00    +0.000 C 
BRANCH  12  13
ATOM     13  CD  GLU A   3       7.366   4.792  13.090  0.00  0.00    +0.000 C 
ATOM     14  OE1 GLU A   3       8.120   5.616  13.556  0.00  0.00    +0.000 OA
BRANCH  13  15
ATOM     15  OE2 GLU A   3       7.419   4.398  11.793  0.00  0.00    +0.000 OA
ATOM     16  HE2 GLU A   3       8.134   4.822  11.279  0.00  0.00    +0.000 HD
ENDBRANCH  13  15
ENDBRANCH  12  13
ENDBRANCH  11  12
ENDBRANCH   6  11
ENDBRANCH   4   6
ENDBRANCH   1   2
BRANCH   1  19
ATOM     17  C   GLU A   1       1.515   3.966  18.199  0.00  0.00    +0.000 C 
ATOM     18  O   GLU A   1       1.012   4.187  17.102  0.00  0.00    +0.000 OA
ATOM     19  N   TYR A   2       2.443   4.790  18.798  0.00  0.00    +0.000 N 
ATOM     20  H   TYR A   2       2.661   4.615  19.777  0.00  0.00    +0.000 HD
BRANCH  17  21
ATOM     21  CA  GLU A   1       1.234   2.684  19.016  0.00  0.00    +0.000 C 
BRANCH  21  22
ATOM     22  N   GLU A   1       0.264   1.838  18.312  0.00  0.00    +0.000 NA
ATOM     23  H1  GLU A   1       0.721   1.035  17.885  0.00  0.00    +0.000 HD
ATOM     24  H2  GLU A   1      -0.163   2.383  17.554  0.00  0.00    +0.000 HD
ENDBRANCH  21  22
BRANCH  21  25
ATOM     25  CB  GLU A   1       2.557   1.937  19.267  0.00  0.00    +0.000 C 
BRANCH  25  26
ATOM     26  CG  GLU A   1       3.219   2.281  20.602  0.00  0.00    +0.000 C 
BRANCH  26  27
ATOM     27  CD  GLU A   1       4.714   2.240  20.470  0.00  0.00    +0.000 C 
ATOM     28  OE1 GLU A   1       5.423   1.527  21.172  0.00  0.00    +0.000 OA
BRANCH  27  29
ATOM     29  OE2 GLU A   1       5.204   2.991  19.471  0.00  0.00    +0.000 OA
ATOM     30  HE2 GLU A   1       6.124   3.296  19.594  0.00  0.00    +0.000 HD
ENDBRANCH  27  29
ENDBRANCH  26  27
ENDBRANCH  25  26
ENDBRANCH  21  25
ENDBRANCH  17  21
ENDBRANCH   1  19
BRANCH   1  31
ATOM     31  CB  TYR A   2       2.975   7.198  19.331  0.00  0.00    +0.000 C 
BRANCH  31  32
ATOM     32  CG  TYR A   2       1.925   8.290  19.281  0.00  0.00    +0.000 A 
ATOM     33  CD1 TYR A   2       1.595   8.891  18.058  0.00  0.00    +0.000 A 
ATOM     34  CE1 TYR A   2       0.558   9.825  17.982  0.00  0.00    +0.000 A 
ATOM     35  CZ  TYR A   2      -0.145  10.166  19.131  0.00  0.00    +0.000 A 
ATOM     36  CE2 TYR A   2       0.191   9.615  20.357  0.00  0.00    +0.000 A 
ATOM     37  CD2 TYR A   2       1.216   8.673  20.428  0.00  0.00    +0.000 A 
BRANCH  35  38
ATOM     38  OH  TYR A   2      -1.197  11.031  19.098  0.00  0.00    +0.000 OA
ATOM     39  HH  TYR A   2      -0.860  11.927  19.262  0.00  0.00    +0.000 HD
ENDBRANCH  35  38
ENDBRANCH  31  32
ENDBRANCH   1  31
TORSDOF 18
ENDMDL
MODEL 3
REMARK VINA RESULT:      -7.4      1.976      5.663
REMARK  Name = 
REMARK  18 active torsions:
REMARK  status: ('A' for Active; 'I' for Inactive)
REMARK    1  A    between atoms: N_1  and  CA_2
REMARK    2  A    between atoms: CA_2  and  CB_3
REMARK    3  A    between atoms: CA_2  and  C_8
REMARK    4  A    between atoms: CB_3  and  CG_4
REMARK    5  A    between atoms: CG_4  and  CD_5
REMARK    6  A    between atoms: CD_5  and  OE2_7
REMARK    7  A    between atoms: N_10  and  CA_11
REMARK    8  A    between atoms: CA_11  and  CB_12
REMARK    9  A    between atoms: CA_11  and  C_20
REMARK   10  A    between atoms: CB_12  and  CG_13
REMARK   11  A    between atoms: CZ_16  and  OH_17
REMARK   12  A    between atoms: N_22  and  CA_23
REMARK   13  A    between atoms: CA_23  and  CB_24
REMARK   14  A    between atoms: CA_23  and  C_29
REMARK   15  A    between atoms: CB_24  and  CG_25
REMARK   16  A    between atoms: CG_25  and  CD_26
REMARK   17  A    between atoms: CD_26  and  OE2_28
REMARK   18  A    between atoms: C_29  and  OXT_31
REMARK                            x       y       z     vdW  Elec       q    Type
REMARK                         _______ _______ _______ _____ _____    ______ ____
ROOT
ATOM      1  CA  TYR A   2       2.887   6.217  18.146  0.00  0.00    +0.000 C 
ENDROOT
BRANCH   1   2
ATOM      2  C   TYR A   2       4.160   6.726  17.425  0.00  0.00    +0.000 C 
ATOM      3  O   TYR A   2       4.466   7.914  17.359  0.00  0.00    +0.000 OA
ATOM      4  N   GLU A   3       4.885   5.745  16.767  0.00  0.00    +0.000 N 
ATOM      5  H   GLU A   3       4.388   4.895  16.519  0.00  0.00    +0.000 HD
BRANCH   4   6
ATOM      6  CA  GLU A   3       6.119   6.061  16.052  0.00  0.00    +0.000 C 
BRANCH   6   7
ATOM      7  C   GLU A   3       6.403   5.016  14.963  0.00  0.00    +0.000 C 
ATOM      8  O   GLU A   3       5.616   4.127  14.659  0.00  0.00    +0.000 OA
BRANCH   7   9
ATOM      9  OXT GLU A   3       7.546   5.212  14.275  0.00  0.00    +0.000 OA
ATOM     10  HXT GLU A   3       8.066   5.998  14.564  0.00  0.00    +0.000 HD
ENDBRANCH   7   9
ENDBRANCH   6   7
BRANCH   6  11
ATOM     11  CB  GLU A   3       7.311   6.128  17.023  0.00  0.00    +0.000 C 
BRANCH  11  12
ATOM     12  CG  GLU A   3       7.515   4.827  17.793  0.00  0.00    +0.000 C 
BRANCH  12  13
ATOM     13  CD  GLU A   3       6.949   4.915  19.197  0.00  0.00    +0.000 C 
ATOM     14  OE1 GLU A   3       7.449   5.514  20.123  0.00  0.00    +0.000 OA
BRANCH  13  15
ATOM     15  OE2 GLU A   3       5.772   4.248  19.302  0.00  0.00    +0.000 OA
ATOM     16  HE2 GLU A   3       4.986   4.829  19.289  0.00  0.00    +0.000 HD
ENDBRANCH  13  15
ENDBRANCH  12  13
ENDBRANCH  11  12
ENDBRANCH   6  11
ENDBRANCH   4   6
ENDBRANCH   1   2
BRANCH   1  19
ATOM     17  C   GLU A   1       1.920   3.931  17.762  0.00  0.00    +0.000 C 
ATOM     18  O   GLU A   1       0.971   4.326  17.094  0.00  0.00    +0.000 OA
ATOM     19  N   TYR A   2       2.911   4.756  18.250  0.00  0.00    +0.000 N 
ATOM     20  H   TYR A   2       3.550   4.362  18.938  0.00  0.00    +0.000 HD
BRANCH  17  21
ATOM     21  CA  GLU A   1       2.175   2.438  18.073  0.00  0.00    +0.000 C 
BRANCH  21  22
ATOM     22  N   GLU A   1       3.586   2.225  18.408  0.00  0.00    +0.000 NA
ATOM     23  H1  GLU A   1       3.952   1.396  17.944  0.00  0.00    +0.000 HD
ATOM     24  H2  GLU A   1       3.668   2.066  19.419  0.00  0.00    +0.000 HD
ENDBRANCH  21  22
BRANCH  21  25
ATOM     25  CB  GLU A   1       1.249   1.988  19.217  0.00  0.00    +0.000 C 
BRANCH  25  26
ATOM     26  CG  GLU A   1       0.775   3.130  20.118  0.00  0.00    +0.000 C 
BRANCH  26  27
ATOM     27  CD  GLU A   1       1.685   3.272  21.304  0.00  0.00    +0.000 C 
ATOM     28  OE1 GLU A   1       2.513   4.172  21.400  0.00  0.00    +0.000 OA
BRANCH  27  29
ATOM     29  OE2 GLU A   1       1.465   2.381  22.283  0.00  0.00    +0.000 OA
ATOM     30  HE2 GLU A   1       0.796   2.646  22.943  0.00  0.00    +0.000 HD
ENDBRANCH  27  29
ENDBRANCH  26  27
ENDBRANCH  25  26
ENDBRANCH  21  25
ENDBRANCH  17  21
ENDBRANCH   1  19
BRANCH   1  31
ATOM     31  CB  TYR A   2       2.715   6.943  19.493  0.00  0.00    +0.000 C 
BRANCH  31  32
ATOM     32  CG  TYR A   2       1.782   8.138  19.484  0.00  0.00    +0.000 A 
ATOM     33  CD1 TYR A   2       1.498   8.799  18.281  0.00  0.00    +0.000 A 
ATOM     34  CE1 TYR A   2       0.561   9.835  18.242  0.00  0.00    +0.000 A 
ATOM     35  CZ  TYR A   2      -0.087  10.219  19.411  0.00  0.00    +0.000 A 
ATOM     36  CE2 TYR A   2       0.208   9.607  20.618  0.00  0.00    +0.000 A 
ATOM     37  CD2 TYR A   2       1.131   8.564  20.651  0.00  0.00    +0.000 A 
BRANCH  35  38
ATOM     38  OH  TYR A   2      -1.045  11.188  19.414  0.00  0.00    +0.000 OA
ATOM     39  HH  TYR A   2      -1.558  11.105  20.233  0.00  0.00    +0.000 HD
ENDBRANCH  35  38
ENDBRANCH  31  32
ENDBRANCH   1  31
TORSDOF 18
ENDMDL
MODEL 4
REMARK VINA RESULT:      -7.4      1.111      1.356
REMARK  Name = 
REMARK  18 active torsions:
REMARK  status: ('A' for Active; 'I' for Inactive)
REMARK    1  A    between atoms: N_1  and  CA_2
REMARK    2  A    between atoms: CA_2  and  CB_3
REMARK    3  A    between atoms: CA_2  and  C_8
REMARK    4  A    between atoms: CB_3  and  CG_4
REMARK    5  A    between atoms: CG_4  and  CD_5
REMARK    6  A    between atoms: CD_5  and  OE2_7
REMARK    7  A    between atoms: N_10  and  CA_11
REMARK    8  A    between atoms: CA_11  and  CB_12
REMARK    9  A    between atoms: CA_11  and  C_20
REMARK   10  A    between atoms: CB_12  and  CG_13
REMARK   11  A    between atoms: CZ_16  and  OH_17
REMARK   12  A    between atoms: N_22  and  CA_23
REMARK   13  A    between atoms: CA_23  and  CB_24
REMARK   14  A    between atoms: CA_23  and  C_29
REMARK   15  A    between atoms: CB_24  and  CG_25
REMARK   16  A    between atoms: CG_25  and  CD_26
REMARK   17  A    between atoms: CD_26  and  OE2_28
REMARK   18  A    between atoms: C_29  and  OXT_31
REMARK                            x       y       z     vdW  Elec       q    Type
REMARK                         _______ _______ _______ _____ _____    ______ ____
ROOT
ATOM      1  CA  TYR A   2       4.436   5.854  18.021  0.00  0.00    +0.000 C 
ENDROOT
BRANCH   1   2
ATOM      2  C   TYR A   2       4.805   4.905  19.188  0.00  0.00    +0.000 C 
ATOM      3  O   TYR A   2       5.932   4.845  19.675  0.00  0.00    +0.000 OA
ATOM      4  N   GLU A   3       3.790   4.047  19.582  0.00  0.00    +0.000 N 
ATOM      5  H   GLU A   3       3.056   3.863  18.905  0.00  0.00    +0.000 HD
BRANCH   4   6
ATOM      6  CA  GLU A   3       3.975   3.101  20.680  0.00  0.00    +0.000 C 
BRANCH   6   7
ATOM      7  C   GLU A   3       4.696   1.835  20.194  0.00  0.00    +0.000 C 
ATOM      8  O   GLU A   3       5.491   1.205  20.880  0.00  0.00    +0.000 OA
BRANCH   7   9
ATOM      9  OXT GLU A   3       4.306   1.393  18.981  0.00  0.00    +0.000 OA
ATOM     10  HXT GLU A   3       3.522   1.860  18.610  0.00  0.00    +0.000 HD
ENDBRANCH   7   9
ENDBRANCH   6   7
BRANCH   6  11
ATOM     11  CB  GLU A   3       2.622   2.716  21.303  0.00  0.00    +0.000 C 
BRANCH  11  12
ATOM     12  CG  GLU A   3       1.450   3.451  20.661  0.00  0.00    +0.000 C 
BRANCH  12  13
ATOM     13  CD  GLU A   3       0.959   2.741  19.415  0.00  0.00    +0.000 C 
ATOM     14  OE1 GLU A   3       1.652   2.376  18.492  0.00  0.00    +0.000 OA
BRANCH  13  15
ATOM     15  OE2 GLU A   3      -0.381   2.531  19.456  0.00  0.00    +0.000 OA
ATOM     16  HE2 GLU A   3      -0.831   2.678  18.602  0.00  0.00    +0.000 HD
ENDBRANCH  13  15
ENDBRANCH  12  13
ENDBRANCH  11  12
ENDBRANCH   6  11
ENDBRANCH   4   6
ENDBRANCH   1   2
BRANCH   1  19
ATOM     17  C   GLU A   1       5.939   6.156  16.031  0.00  0.00    +0.000 C 
ATOM     18  O   GLU A   1       6.372   7.247  16.386  0.00  0.00    +0.000 OA
ATOM     19  N   TYR A   2       5.062   5.398  16.777  0.00  0.00    +0.000 N 
ATOM     20  H   TYR A   2       4.626   4.600  16.318  0.00  0.00    +0.000 HD
BRANCH  17  21
ATOM     21  CA  GLU A   1       6.390   5.448  14.732  0.00  0.00    +0.000 C 
BRANCH  21  22
ATOM     22  N   GLU A   1       7.851   5.326  14.704  0.00  0.00    +0.000 NA
ATOM     23  H1  GLU A   1       8.135   4.360  14.556  0.00  0.00    +0.000 HD
ATOM     24  H2  GLU A   1       8.227   5.616  15.615  0.00  0.00    +0.000 HD
ENDBRANCH  21  22
BRANCH  21  25
ATOM     25  CB  GLU A   1       5.706   4.073  14.634  0.00  0.00    +0.000 C 
BRANCH  25  26
ATOM     26  CG  GLU A   1       5.087   3.784  13.266  0.00  0.00    +0.000 C 
BRANCH  26  27
ATOM     27  CD  GLU A   1       6.138   3.304  12.307  0.00  0.00    +0.000 C 
ATOM     28  OE1 GLU A   1       7.069   4.011  11.935  0.00  0.00    +0.000 OA
BRANCH  27  29
ATOM     29  OE2 GLU A   1       6.018   2.016  11.950  0.00  0.00    +0.000 OA
ATOM     30  HE2 GLU A   1       6.858   1.565  11.734  0.00  0.00    +0.000 HD
ENDBRANCH  27  29
ENDBRANCH  26  27
ENDBRANCH  25  26
ENDBRANCH  21  25
ENDBRANCH  17  21
ENDBRANCH   1  19
BRANCH   1  31
ATOM     31  CB  TYR A   2       2.908   6.019  17.934  0.00  0.00    +0.000 C 
BRANCH  31  32
ATOM     32  CG  TYR A   2       2.342   7.268  18.580  0.00  0.00    +0.000 A 
ATOM     33  CD1 TYR A   2       2.060   8.398  17.799  0.00  0.00    +0.000 A 
ATOM     34  CE1 TYR A   2       1.443   9.517  18.364  0.00  0.00    +0.000 A 
ATOM     35  CZ  TYR A   2       1.116   9.512  19.715  0.00  0.00    +0.000 A 
ATOM     36  CE2 TYR A   2       1.423   8.423  20.514  0.00  0.00    +0.000 A 
ATOM     37  CD2 TYR A   2       2.024   7.303  19.946  0.00  0.00    +0.000 A 
BRANCH  35  38
ATOM     38  OH  TYR A   2       0.468  10.559  20.299  0.00  0.00    +0.000 OA
ATOM     39  HH  TYR A   2       0.755  11.377  19.862  0.00  0.00    +0.000 HD
ENDBRANCH  35  38
ENDBRANCH  31  32
ENDBRANCH   1  31
TORSDOF 18
ENDMDL
MODEL 5
REMARK VINA RESULT:      -7.3      0.969      1.438
REMARK  Name = 
REMARK  18 active torsions:
REMARK  status: ('A' for Active; 'I' for Inactive)
REMARK    1  A    between atoms: N_1  and  CA_2
REMARK    2  A    between atoms: CA_2  and  CB_3
REMARK    3  A    between atoms: CA_2  and  C_8
REMARK    4  A    between atoms: CB_3  and  CG_4
REMARK    5  A    between atoms: CG_4  and  CD_5
REMARK    6  A    between atoms: CD_5  and  OE2_7
REMARK    7  A    between atoms: N_10  and  CA_11
REMARK    8  A    between atoms: CA_11  and  CB_12
REMARK    9  A    between atoms: CA_11  and  C_20
REMARK   10  A    between atoms: CB_12  and  CG_13
REMARK   11  A    between atoms: CZ_16  and  OH_17
REMARK   12  A    between atoms: N_22  and  CA_23
REMARK   13  A    between atoms: CA_23  and  CB_24
REMARK   14  A    between atoms: CA_23  and  C_29
REMARK   15  A    between atoms: CB_24  and  CG_25
REMARK   16  A    between atoms: CG_25  and  CD_26
REMARK   17  A    between atoms: CD_26  and  OE2_28
REMARK   18  A    between atoms: C_29  and  OXT_31
REMARK                            x       y       z     vdW  Elec       q    Type
REMARK                         _______ _______ _______ _____ _____    ______ ____
ROOT
ATOM      1  CA  TYR A   2       4.136   6.000  17.804  0.00  0.00    +0.000 C 
ENDROOT
BRANCH   1   2
ATOM      2  C   TYR A   2       4.447   4.957  18.906  0.00  0.00    +0.000 C 
ATOM      3  O   TYR A   2       5.569   4.790  19.376  0.00  0.00    +0.000 OA
ATOM      4  N   GLU A   3       3.377   4.148  19.256  0.00  0.00    +0.000 N 
ATOM      5  H   GLU A   3       2.627   4.057  18.577  0.00  0.00    +0.000 HD
BRANCH   4   6
ATOM      6  CA  GLU A   3       3.504   3.124  20.291  0.00  0.00    +0.000 C 
BRANCH   6   7
ATOM      7  C   GLU A   3       4.180   1.864  19.732  0.00  0.00    +0.000 C 
ATOM      8  O   GLU A   3       3.764   1.249  18.758  0.00  0.00    +0.000 OA
BRANCH   7   9
ATOM      9  OXT GLU A   3       5.345   1.536  20.328  0.00  0.00    +0.000 OA
ATOM     10  HXT GLU A   3       5.302   0.726  20.888  0.00  0.00    +0.000 HD
ENDBRANCH   7   9
ENDBRANCH   6   7
BRANCH   6  11
ATOM     11  CB  GLU A   3       2.125   2.756  20.866  0.00  0.00    +0.000 C 
BRANCH  11  12
ATOM     12  CG  GLU A   3       0.976   3.391  20.090  0.00  0.00    +0.000 C 
BRANCH  12  13
ATOM     13  CD  GLU A   3       0.879   2.836  18.682  0.00  0.00    +0.000 C 
ATOM     14  OE1 GLU A   3       0.901   3.489  17.664  0.00  0.00    +0.000 OA
BRANCH  13  15
ATOM     15  OE2 GLU A   3       0.783   1.483  18.686  0.00  0.00    +0.000 OA
ATOM     16  HE2 GLU A   3       0.197   1.125  17.991  0.00  0.00    +0.000 HD
ENDBRANCH  13  15
ENDBRANCH  12  13
ENDBRANCH  11  12
ENDBRANCH   6  11
ENDBRANCH   4   6
ENDBRANCH   1   2
BRANCH   1  19
ATOM     17  C   GLU A   1       6.007   6.012  16.128  0.00  0.00    +0.000 C 
ATOM     18  O   GLU A   1       6.776   6.662  16.828  0.00  0.00    +0.000 OA
ATOM     19  N   TYR A   2       4.756   5.602  16.537  0.00  0.00    +0.000 N 
ATOM     20  H   TYR A   2       4.131   5.229  15.826  0.00  0.00    +0.000 HD
BRANCH  17  21
ATOM     21  CA  GLU A   1       6.378   5.494  14.719  0.00  0.00    +0.000 C 
BRANCH  21  22
ATOM     22  N   GLU A   1       7.833   5.521  14.538  0.00  0.00    +0.000 NA
ATOM     23  H1  GLU A   1       8.098   5.116  13.641  0.00  0.00    +0.000 HD
ATOM     24  H2  GLU A   1       8.270   4.948  15.269  0.00  0.00    +0.000 HD
ENDBRANCH  21  22
BRANCH  21  25
ATOM     25  CB  GLU A   1       5.811   4.075  14.530  0.00  0.00    +0.000 C 
BRANCH  25  26
ATOM     26  CG  GLU A   1       5.112   3.860  13.187  0.00  0.00    +0.000 C 
BRANCH  26  27
ATOM     27  CD  GLU A   1       6.051   3.219  12.206  0.00  0.00    +0.000 C 
ATOM     28  OE1 GLU A   1       5.814   2.143  11.667  0.00  0.00    +0.000 OA
BRANCH  27  29
ATOM     29  OE2 GLU A   1       7.133   3.956  11.909  0.00  0.00    +0.000 OA
ATOM     30  HE2 GLU A   1       7.910   3.449  11.604  0.00  0.00    +0.000 HD
ENDBRANCH  27  29
ENDBRANCH  26  27
ENDBRANCH  25  26
ENDBRANCH  21  25
ENDBRANCH  17  21
ENDBRANCH   1  19
BRANCH   1  31
ATOM     31  CB  TYR A   2       2.619   6.242  17.714  0.00  0.00    +0.000 C 
BRANCH  31  32
ATOM     32  CG  TYR A   2       2.100   7.460  18.454  0.00  0.00    +0.000 A 
ATOM     33  CD1 TYR A   2       1.912   7.412  19.842  0.00  0.00    +0.000 A 
ATOM     34  CE1 TYR A   2       1.534   8.556  20.549  0.00  0.00    +0.000 A 
ATOM     35  CZ  TYR A   2       1.333   9.750  19.866  0.00  0.00    +0.000 A 
ATOM     36  CE2 TYR A   2       1.473   9.810  18.490  0.00  0.00    +0.000 A 
ATOM     37  CD2 TYR A   2       1.865   8.672  17.789  0.00  0.00    +0.000 A 
BRANCH  35  38
ATOM     38  OH  TYR A   2       1.014  10.903  20.518  0.00  0.00    +0.000 OA
ATOM     39  HH  TYR A   2       1.631  11.015  21.259  0.00  0.00    +0.000 HD
ENDBRANCH  35  38
ENDBRANCH  31  32
ENDBRANCH   1  31
TORSDOF 18
ENDMDL
MODEL 6
REMARK VINA RESULT:      -7.3      3.011      7.118
REMARK  Name = 
REMARK  18 active torsions:
REMARK  status: ('A' for Active; 'I' for Inactive)
REMARK    1  A    between atoms: N_1  and  CA_2
REMARK    2  A    between atoms: CA_2  and  CB_3
REMARK    3  A    between atoms: CA_2  and  C_8
REMARK    4  A    between atoms: CB_3  and  CG_4
REMARK    5  A    between atoms: CG_4  and  CD_5
REMARK    6  A    between atoms: CD_5  and  OE2_7
REMARK    7  A    between atoms: N_10  and  CA_11
REMARK    8  A    between atoms: CA_11  and  CB_12
REMARK    9  A    between atoms: CA_11  and  C_20
REMARK   10  A    between atoms: CB_12  and  CG_13
REMARK   11  A    between atoms: CZ_16  and  OH_17
REMARK   12  A    between atoms: N_22  and  CA_23
REMARK   13  A    between atoms: CA_23  and  CB_24
REMARK   14  A    between atoms: CA_23  and  C_29
REMARK   15  A    between atoms: CB_24  and  CG_25
REMARK   16  A    between atoms: CG_25  and  CD_26
REMARK   17  A    between atoms: CD_26  and  OE2_28
REMARK   18  A    between atoms: C_29  and  OXT_31
REMARK                            x       y       z     vdW  Elec       q    Type
REMARK                         _______ _______ _______ _____ _____    ______ ____
ROOT
ATOM      1  CA  TYR A   2       3.020   7.353  18.099  0.00  0.00    +0.000 C 
ENDROOT
BRANCH   1   2
ATOM      2  C   TYR A   2       2.042   8.553  18.061  0.00  0.00    +0.000 C 
ATOM      3  O   TYR A   2       1.916   9.288  17.085  0.00  0.00    +0.000 OA
ATOM      4  N   GLU A   3       1.384   8.803  19.256  0.00  0.00    +0.000 N 
ATOM      5  H   GLU A   3       1.814   8.441  20.102  0.00  0.00    +0.000 HD
BRANCH   4   6
ATOM      6  CA  GLU A   3       0.417   9.891  19.379  0.00  0.00    +0.000 C 
BRANCH   6   7
ATOM      7  C   GLU A   3       1.129  11.249  19.458  0.00  0.00    +0.000 C 
ATOM      8  O   GLU A   3       1.537  11.738  20.504  0.00  0.00    +0.000 OA
BRANCH   7   9
ATOM      9  OXT GLU A   3       1.380  11.825  18.265  0.00  0.00    +0.000 OA
ATOM     10  HXT GLU A   3       2.224  11.538  17.843  0.00  0.00    +0.000 HD
ENDBRANCH   7   9
ENDBRANCH   6   7
BRANCH   6  11
ATOM     11  CB  GLU A   3      -0.464   9.699  20.627  0.00  0.00    +0.000 C 
BRANCH  11  12
ATOM     12  CG  GLU A   3       0.089   8.644  21.579  0.00  0.00    +0.000 C 
BRANCH  12  13
ATOM     13  CD  GLU A   3       0.754   9.276  22.787  0.00  0.00    +0.000 C 
ATOM     14  OE1 GLU A   3       1.931   9.541  22.886  0.00  0.00    +0.000 OA
BRANCH  13  15
ATOM     15  OE2 GLU A   3      -0.145   9.541  23.768  0.00  0.00    +0.000 OA
ATOM     16  HE2 GLU A   3      -0.568   8.744  24.143  0.00  0.00    +0.000 HD
ENDBRANCH  13  15
ENDBRANCH  12  13
ENDBRANCH  11  12
ENDBRANCH   6  11
ENDBRANCH   4   6
ENDBRANCH   1   2
BRANCH   1  19
ATOM     17  C   GLU A   1       2.232   5.226  19.177  0.00  0.00    +0.000 C 
ATOM     18  O   GLU A   1       2.718   5.474  20.275  0.00  0.00    +0.000 OA
ATOM     19  N   TYR A   2       2.276   6.091  18.104  0.00  0.00    +0.000 N 
ATOM     20  H   TYR A   2       2.005   5.721  17.195  0.00  0.00    +0.000 HD
BRANCH  17  21
ATOM     21  CA  GLU A   1       1.427   3.939  18.878  0.00  0.00    +0.000 C 
BRANCH  21  22
ATOM     22  N   GLU A   1       1.190   3.814  17.437  0.00  0.00    +0.000 NA
ATOM     23  H1  GLU A   1       1.498   2.907  17.092  0.00  0.00    +0.000 HD
ATOM     24  H2  GLU A   1       1.741   4.528  16.946  0.00  0.00    +0.000 HD
ENDBRANCH  21  22
BRANCH  21  25
ATOM     25  CB  GLU A   1       2.185   2.721  19.434  0.00  0.00    +0.000 C 
BRANCH  25  26
ATOM     26  CG  GLU A   1       3.539   2.475  18.767  0.00  0.00    +0.000 C 
BRANCH  26  27
ATOM     27  CD  GLU A   1       4.647   2.583  19.775  0.00  0.00    +0.000 C 
ATOM     28  OE1 GLU A   1       5.051   1.622  20.421  0.00  0.00    +0.000 OA
BRANCH  27  29
ATOM     29  OE2 GLU A   1       5.208   3.800  19.856  0.00  0.00    +0.000 OA
ATOM     30  HE2 GLU A   1       5.187   4.322  19.031  0.00  0.00    +0.000 HD
ENDBRANCH  27  29
ENDBRANCH  26  27
ENDBRANCH  25  26
ENDBRANCH  21  25
ENDBRANCH  17  21
ENDBRANCH   1  19
BRANCH   1  31
ATOM     31  CB  TYR A   2       4.050   7.472  16.961  0.00  0.00    +0.000 C 
BRANCH  31  32
ATOM     32  CG  TYR A   2       5.252   6.552  17.060  0.00  0.00    +0.000 A 
ATOM     33  CD1 TYR A   2       6.397   6.964  17.756  0.00  0.00    +0.000 A 
ATOM     34  CE1 TYR A   2       7.469   6.088  17.942  0.00  0.00    +0.000 A 
ATOM     35  CZ  TYR A   2       7.402   4.801  17.423  0.00  0.00    +0.000 A 
ATOM     36  CE2 TYR A   2       6.298   4.386  16.698  0.00  0.00    +0.000 A 
ATOM     37  CD2 TYR A   2       5.223   5.256  16.526  0.00  0.00    +0.000 A 
BRANCH  35  38
ATOM     38  OH  TYR A   2       8.400   3.895  17.623  0.00  0.00    +0.000 OA
ATOM     39  HH  TYR A   2       8.832   3.724  16.771  0.00  0.00    +0.000 HD
ENDBRANCH  35  38
ENDBRANCH  31  32
ENDBRANCH   1  31
TORSDOF 18
ENDMDL
MODEL 7
REMARK VINA RESULT:      -7.1      0.882      1.088
REMARK  Name = 
REMARK  18 active torsions:
REMARK  status: ('A' for Active; 'I' for Inactive)
REMARK    1  A    between atoms: N_1  and  CA_2
REMARK    2  A    between atoms: CA_2  and  CB_3
REMARK    3  A    between atoms: CA_2  and  C_8
REMARK    4  A    between atoms: CB_3  and  CG_4
REMARK    5  A    between atoms: CG_4  and  CD_5
REMARK    6  A    between atoms: CD_5  and  OE2_7
REMARK    7  A    between atoms: N_10  and  CA_11
REMARK    8  A    between atoms: CA_11  and  CB_12
REMARK    9  A    between atoms: CA_11  and  C_20
REMARK   10  A    between atoms: CB_12  and  CG_13
REMARK   11  A    between atoms: CZ_16  and  OH_17
REMARK   12  A    between atoms: N_22  and  CA_23
REMARK   13  A    between atoms: CA_23  and  CB_24
REMARK   14  A    between atoms: CA_23  and  C_29
REMARK   15  A    between atoms: CB_24  and  CG_25
REMARK   16  A    between atoms: CG_25  and  CD_26
REMARK   17  A    between atoms: CD_26  and  OE2_28
REMARK   18  A    between atoms: C_29  and  OXT_31
REMARK                            x       y       z     vdW  Elec       q    Type
REMARK                         _______ _______ _______ _____ _____    ______ ____
ROOT
ATOM      1  CA  TYR A   2       4.579   6.058  18.032  0.00  0.00    +0.000 C 
ENDROOT
BRANCH   1   2
ATOM      2  C   TYR A   2       4.951   4.847  18.924  0.00  0.00    +0.000 C 
ATOM      3  O   TYR A   2       6.091   4.640  19.334  0.00  0.00    +0.000 OA
ATOM      4  N   GLU A   3       3.918   3.951  19.146  0.00  0.00    +0.000 N 
ATOM      5  H   GLU A   3       3.154   3.955  18.477  0.00  0.00    +0.000 HD
BRANCH   4   6
ATOM      6  CA  GLU A   3       4.104   2.765  19.979  0.00  0.00    +0.000 C 
BRANCH   6   7
ATOM      7  C   GLU A   3       4.114   1.492  19.121  0.00  0.00    +0.000 C 
ATOM      8  O   GLU A   3       3.470   1.369  18.086  0.00  0.00    +0.000 OA
BRANCH   7   9
ATOM      9  OXT GLU A   3       4.979   0.541  19.530  0.00  0.00    +0.000 OA
ATOM     10  HXT GLU A   3       5.406   0.037  18.799  0.00  0.00    +0.000 HD
ENDBRANCH   7   9
ENDBRANCH   6   7
BRANCH   6  11
ATOM     11  CB  GLU A   3       2.993   2.663  21.039  0.00  0.00    +0.000 C 
BRANCH  11  12
ATOM     12  CG  GLU A   3       1.652   2.243  20.446  0.00  0.00    +0.000 C 
BRANCH  12  13
ATOM     13  CD  GLU A   3       1.012   3.370  19.660  0.00  0.00    +0.000 C 
ATOM     14  OE1 GLU A   3       0.654   4.433  20.115  0.00  0.00    +0.000 OA
BRANCH  13  15
ATOM     15  OE2 GLU A   3       0.899   3.058  18.345  0.00  0.00    +0.000 OA
ATOM     16  HE2 GLU A   3       0.453   3.745  17.812  0.00  0.00    +0.000 HD
ENDBRANCH  13  15
ENDBRANCH  12  13
ENDBRANCH  11  12
ENDBRANCH   6  11
ENDBRANCH   4   6
ENDBRANCH   1   2
BRANCH   1  19
ATOM     17  C   GLU A   1       5.292   4.853  15.947  0.00  0.00    +0.000 C 
ATOM     18  O   GLU A   1       4.634   3.843  16.174  0.00  0.00    +0.000 OA
ATOM     19  N   TYR A   2       5.277   5.976  16.746  0.00  0.00    +0.000 N 
ATOM     20  H   TYR A   2       5.988   6.683  16.572  0.00  0.00    +0.000 HD
BRANCH  17  21
ATOM     21  CA  GLU A   1       6.163   5.028  14.681  0.00  0.00    +0.000 C 
BRANCH  21  22
ATOM     22  N   GLU A   1       7.496   5.517  15.048  0.00  0.00    +0.000 NA
ATOM     23  H1  GLU A   1       7.810   6.244  14.408  0.00  0.00    +0.000 HD
ATOM     24  H2  GLU A   1       8.166   4.741  14.977  0.00  0.00    +0.000 HD
ENDBRANCH  21  22
BRANCH  21  25
ATOM     25  CB  GLU A   1       6.241   3.691  13.924  0.00  0.00    +0.000 C 
BRANCH  25  26
ATOM     26  CG  GLU A   1       6.107   3.828  12.406  0.00  0.00    +0.000 C 
BRANCH  26  27
ATOM     27  CD  GLU A   1       6.547   2.564  11.726  0.00  0.00    +0.000 C 
ATOM     28  OE1 GLU A   1       7.689   2.396  11.312  0.00  0.00    +0.000 OA
BRANCH  27  29
ATOM     29  OE2 GLU A   1       5.609   1.605  11.676  0.00  0.00    +0.000 OA
ATOM     30  HE2 GLU A   1       4.699   1.922  11.517  0.00  0.00    +0.000 HD
ENDBRANCH  27  29
ENDBRANCH  26  27
ENDBRANCH  25  26
ENDBRANCH  21  25
ENDBRANCH  17  21
ENDBRANCH   1  19
BRANCH   1  31
ATOM     31  CB  TYR A   2       3.049   6.179  17.913  0.00  0.00    +0.000 C 
BRANCH  31  32
ATOM     32  CG  TYR A   2       2.435   7.415  18.542  0.00  0.00    +0.000 A 
ATOM     33  CD1 TYR A   2       2.156   8.540  17.754  0.00  0.00    +0.000 A 
ATOM     34  CE1 TYR A   2       1.497   9.645  18.299  0.00  0.00    +0.000 A 
ATOM     35  CZ  TYR A   2       1.123   9.630  19.638  0.00  0.00    +0.000 A 
ATOM     36  CE2 TYR A   2       1.425   8.545  20.445  0.00  0.00    +0.000 A 
ATOM     37  CD2 TYR A   2       2.069   7.439  19.895  0.00  0.00    +0.000 A 
BRANCH  35  38
ATOM     38  OH  TYR A   2       0.433  10.661  20.201  0.00  0.00    +0.000 OA
ATOM     39  HH  TYR A   2      -0.029  10.325  20.986  0.00  0.00    +0.000 HD
ENDBRANCH  35  38
ENDBRANCH  31  32
ENDBRANCH   1  31
TORSDOF 18
ENDMDL
MODEL 8
REMARK VINA RESULT:      -7.1      2.066      5.851
REMARK  Name = 
REMARK  18 active torsions:
REMARK  status: ('A' for Active; 'I' for Inactive)
REMARK    1  A    between atoms: N_1  and  CA_2
REMARK    2  A    between atoms: CA_2  and  CB_3
REMARK    3  A    between atoms: CA_2  and  C_8
REMARK    4  A    between atoms: CB_3  and  CG_4
REMARK    5  A    between atoms: CG_4  and  CD_5
REMARK    6  A    between atoms: CD_5  and  OE2_7
REMARK    7  A    between atoms: N_10  and  CA_11
REMARK    8  A    between atoms: CA_11  and  CB_12
REMARK    9  A    between atoms: CA_11  and  C_20
REMARK   10  A    between atoms: CB_12  and  CG_13
REMARK   11  A    between atoms: CZ_16  and  OH_17
REMARK   12  A    between atoms: N_22  and  CA_23
REMARK   13  A    between atoms: CA_23  and  CB_24
REMARK   14  A    between atoms: CA_23  and  C_29
REMARK   15  A    between atoms: CB_24  and  CG_25
REMARK   16  A    between atoms: CG_25  and  CD_26
REMARK   17  A    between atoms: CD_26  and  OE2_28
REMARK   18  A    between atoms: C_29  and  OXT_31
REMARK                            x       y       z     vdW  Elec       q    Type
REMARK                         _______ _______ _______ _____ _____    ______ ____
ROOT
ATOM      1  CA  TYR A   2       3.512   5.498  18.724  0.00  0.00    +0.000 C 
ENDROOT
BRANCH   1   2
ATOM      2  C   TYR A   2       5.060   5.464  18.756  0.00  0.00    +0.000 C 
ATOM      3  O   TYR A   2       5.702   4.895  19.636  0.00  0.00    +0.000 OA
ATOM      4  N   GLU A   3       5.678   6.214  17.767  0.00  0.00    +0.000 N 
ATOM      5  H   GLU A   3       5.131   6.958  17.346  0.00  0.00    +0.000 HD
BRANCH   4   6
ATOM      6  CA  GLU A   3       7.134   6.273  17.654  0.00  0.00    +0.000 C 
BRANCH   6   7
ATOM      7  C   GLU A   3       7.636   7.715  17.812  0.00  0.00    +0.000 C 
ATOM      8  O   GLU A   3       7.195   8.659  17.167  0.00  0.00    +0.000 OA
BRANCH   7   9
ATOM      9  OXT GLU A   3       8.532   7.896  18.803  0.00  0.00    +0.000 OA
ATOM     10  HXT GLU A   3       8.516   7.198  19.499  0.00  0.00    +0.000 HD
ENDBRANCH   7   9
ENDBRANCH   6   7
BRANCH   6  11
ATOM     11  CB  GLU A   3       7.598   5.712  16.298  0.00  0.00    +0.000 C 
BRANCH  11  12
ATOM     12  CG  GLU A   3       7.402   4.203  16.189  0.00  0.00    +0.000 C 
BRANCH  12  13
ATOM     13  CD  GLU A   3       6.131   3.858  15.437  0.00  0.00    +0.000 C 
ATOM     14  OE1 GLU A   3       5.996   3.881  14.234  0.00  0.00    +0.000 OA
BRANCH  13  15
ATOM     15  OE2 GLU A   3       5.137   3.489  16.282  0.00  0.00    +0.000 OA
ATOM     16  HE2 GLU A   3       5.392   3.509  17.225  0.00  0.00    +0.000 HD
ENDBRANCH  13  15
ENDBRANCH  12  13
ENDBRANCH  11  12
ENDBRANCH   6  11
ENDBRANCH   4   6
ENDBRANCH   1   2
BRANCH   1  19
ATOM     17  C   GLU A   1       1.840   3.773  17.990  0.00  0.00    +0.000 C 
ATOM     18  O   GLU A   1       1.226   4.528  17.243  0.00  0.00    +0.000 OA
ATOM     19  N   TYR A   2       2.975   4.136  18.684  0.00  0.00    +0.000 N 
ATOM     20  H   TYR A   2       3.302   3.500  19.409  0.00  0.00    +0.000 HD
BRANCH  17  21
ATOM     21  CA  GLU A   1       1.469   2.284  18.182  0.00  0.00    +0.000 C 
BRANCH  21  22
ATOM     22  N   GLU A   1       2.682   1.477  18.342  0.00  0.00    +0.000 NA
ATOM     23  H1  GLU A   1       3.137   1.671  19.232  0.00  0.00    +0.000 HD
ATOM     24  H2  GLU A   1       3.348   1.726  17.601  0.00  0.00    +0.000 HD
ENDBRANCH  21  22
BRANCH  21  25
ATOM     25  CB  GLU A   1       0.532   2.143  19.396  0.00  0.00    +0.000 C 
BRANCH  25  26
ATOM     26  CG  GLU A   1       0.746   3.209  20.472  0.00  0.00    +0.000 C 
BRANCH  26  27
ATOM     27  CD  GLU A   1       1.609   2.670  21.577  0.00  0.00    +0.000 C 
ATOM     28  OE1 GLU A   1       1.146   2.180  22.601  0.00  0.00    +0.000 OA
BRANCH  27  29
ATOM     29  OE2 GLU A   1       2.926   2.699  21.318  0.00  0.00    +0.000 OA
ATOM     30  HE2 GLU A   1       3.372   1.830  21.336  0.00  0.00    +0.000 HD
ENDBRANCH  27  29
ENDBRANCH  26  27
ENDBRANCH  25  26
ENDBRANCH  21  25
ENDBRANCH  17  21
ENDBRANCH   1  19
BRANCH   1  31
ATOM     31  CB  TYR A   2       2.975   6.355  19.884  0.00  0.00    +0.000 C 
BRANCH  31  32
ATOM     32  CG  TYR A   2       2.260   7.631  19.486  0.00  0.00    +0.000 A 
ATOM     33  CD1 TYR A   2       2.339   8.099  18.167  0.00  0.00    +0.000 A 
ATOM     34  CE1 TYR A   2       1.601   9.215  17.762  0.00  0.00    +0.000 A 
ATOM     35  CZ  TYR A   2       0.790   9.872  18.681  0.00  0.00    +0.000 A 
ATOM     36  CE2 TYR A   2       0.729   9.451  19.999  0.00  0.00    +0.000 A 
ATOM     37  CD2 TYR A   2       1.453   8.329  20.396  0.00  0.00    +0.000 A 
BRANCH  35  38
ATOM     38  OH  TYR A   2       0.014  10.932  18.322  0.00  0.00    +0.000 OA
ATOM     39  HH  TYR A   2      -0.861  10.820  18.728  0.00  0.00    +0.000 HD
ENDBRANCH  35  38
ENDBRANCH  31  32
ENDBRANCH   1  31
TORSDOF 18
ENDMDL
MODEL 9
REMARK VINA RESULT:      -7.1      2.023      5.742
REMARK  Name = 
REMARK  18 active torsions:
REMARK  status: ('A' for Active; 'I' for Inactive)
REMARK    1  A    between atoms: N_1  and  CA_2
REMARK    2  A    between atoms: CA_2  and  CB_3
REMARK    3  A    between atoms: CA_2  and  C_8
REMARK    4  A    between atoms: CB_3  and  CG_4
REMARK    5  A    between atoms: CG_4  and  CD_5
REMARK    6  A    between atoms: CD_5  and  OE2_7
REMARK    7  A    between atoms: N_10  and  CA_11
REMARK    8  A    between atoms: CA_11  and  CB_12
REMARK    9  A    between atoms: CA_11  and  C_20
REMARK   10  A    between atoms: CB_12  and  CG_13
REMARK   11  A    between atoms: CZ_16  and  OH_17
REMARK   12  A    between atoms: N_22  and  CA_23
REMARK   13  A    between atoms: CA_23  and  CB_24
REMARK   14  A    between atoms: CA_23  and  C_29
REMARK   15  A    between atoms: CB_24  and  CG_25
REMARK   16  A    between atoms: CG_25  and  CD_26
REMARK   17  A    between atoms: CD_26  and  OE2_28
REMARK   18  A    between atoms: C_29  and  OXT_31
REMARK                            x       y       z     vdW  Elec       q    Type
REMARK                         _______ _______ _______ _____ _____    ______ ____
ROOT
ATOM      1  CA  TYR A   2       2.944   5.977  18.265  0.00  0.00    +0.000 C 
ENDROOT
BRANCH   1   2
ATOM      2  C   TYR A   2       4.146   6.571  17.489  0.00  0.00    +0.000 C 
ATOM      3  O   TYR A   2       4.386   7.775  17.441  0.00  0.00    +0.000 OA
ATOM      4  N   GLU A   3       4.881   5.648  16.763  0.00  0.00    +0.000 N 
ATOM      5  H   GLU A   3       4.415   4.779  16.518  0.00  0.00    +0.000 HD
BRANCH   4   6
ATOM      6  CA  GLU A   3       6.055   6.047  15.989  0.00  0.00    +0.000 C 
BRANCH   6   7
ATOM      7  C   GLU A   3       6.298   5.076  14.825  0.00  0.00    +0.000 C 
ATOM      8  O   GLU A   3       5.580   4.112  14.588  0.00  0.00    +0.000 OA
BRANCH   7   9
ATOM      9  OXT GLU A   3       7.306   5.424  14.000  0.00  0.00    +0.000 OA
ATOM     10  HXT GLU A   3       7.243   5.039  13.095  0.00  0.00    +0.000 HD
ENDBRANCH   7   9
ENDBRANCH   6   7
BRANCH   6  11
ATOM     11  CB  GLU A   3       7.305   6.101  16.884  0.00  0.00    +0.000 C 
BRANCH  11  12
ATOM     12  CG  GLU A   3       7.576   4.780  17.596  0.00  0.00    +0.000 C 
BRANCH  12  13
ATOM     13  CD  GLU A   3       6.835   4.695  18.917  0.00  0.00    +0.000 C 
ATOM     14  OE1 GLU A   3       7.019   5.411  19.875  0.00  0.00    +0.000 OA
BRANCH  13  15
ATOM     15  OE2 GLU A   3       5.899   3.714  18.900  0.00  0.00    +0.000 OA
ATOM     16  HE2 GLU A   3       5.882   3.197  18.071  0.00  0.00    +0.000 HD
ENDBRANCH  13  15
ENDBRANCH  12  13
ENDBRANCH  11  12
ENDBRANCH   6  11
ENDBRANCH   4   6
ENDBRANCH   1   2
BRANCH   1  19
ATOM     17  C   GLU A   1       2.045   3.681  17.790  0.00  0.00    +0.000 C 
ATOM     18  O   GLU A   1       1.056   4.075  17.181  0.00  0.00    +0.000 OA
ATOM     19  N   TYR A   2       3.025   4.514  18.285  0.00  0.00    +0.000 N 
ATOM     20  H   TYR A   2       3.704   4.108  18.925  0.00  0.00    +0.000 HD
BRANCH  17  21
ATOM     21  CA  GLU A   1       2.365   2.183  18.006  0.00  0.00    +0.000 C 
BRANCH  21  22
ATOM     22  N   GLU A   1       3.703   1.873  17.491  0.00  0.00    +0.000 NA
ATOM     23  H1  GLU A   1       4.286   1.455  18.214  0.00  0.00    +0.000 HD
ATOM     24  H2  GLU A   1       4.159   2.747  17.202  0.00  0.00    +0.000 HD
ENDBRANCH  21  22
BRANCH  21  25
ATOM     25  CB  GLU A   1       2.243   1.844  19.502  0.00  0.00    +0.000 C 
BRANCH  25  26
ATOM     26  CG  GLU A   1       1.047   2.501  20.192  0.00  0.00    +0.000 C 
BRANCH  26  27
ATOM     27  CD  GLU A   1       1.467   3.118  21.494  0.00  0.00    +0.000 C 
ATOM     28  OE1 GLU A   1       2.213   4.090  21.557  0.00  0.00    +0.000 OA
BRANCH  27  29
ATOM     29  OE2 GLU A   1       0.901   2.567  22.579  0.00  0.00    +0.000 OA
ATOM     30  HE2 GLU A   1       0.249   1.863  22.395  0.00  0.00    +0.000 HD
ENDBRANCH  27  29
ENDBRANCH  26  27
ENDBRANCH  25  26
ENDBRANCH  21  25
ENDBRANCH  17  21
ENDBRANCH   1  19
BRANCH   1  31
ATOM     31  CB  TYR A   2       2.841   6.623  19.658  0.00  0.00    +0.000 C 
BRANCH  31  32
ATOM     32  CG  TYR A   2       1.842   7.756  19.788  0.00  0.00    +0.000 A 
ATOM     33  CD1 TYR A   2       1.159   7.957  20.995  0.00  0.00    +0.000 A 
ATOM     34  CE1 TYR A   2       0.315   9.058  21.161  0.00  0.00    +0.000 A 
ATOM     35  CZ  TYR A   2       0.145   9.956  20.114  0.00  0.00    +0.000 A 
ATOM     36  CE2 TYR A   2       0.779   9.755  18.899  0.00  0.00    +0.000 A 
ATOM     37  CD2 TYR A   2       1.631   8.665  18.741  0.00  0.00    +0.000 A 
BRANCH  35  38
ATOM     38  OH  TYR A   2      -0.627  11.072  20.245  0.00  0.00    +0.000 OA
ATOM     39  HH  TYR A   2      -1.541  10.838  20.018  0.00  0.00    +0.000 HD
ENDBRANCH  35  38
ENDBRANCH  31  32
ENDBRANCH   1  31
TORSDOF 18
ENDMDL
