MODEL 1
REMARK VINA RESULT:      -9.0      0.000      0.000
REMARK  Name = 
REMARK  8 active torsions:
REMARK  status: ('A' for Active; 'I' for Inactive)
REMARK    1  A    between atoms: C_2  and  C_3
REMARK    2  A    between atoms: C_11  and  C_12
REMARK    3  A    between atoms: C_11  and  C_21
REMARK    4  A    between atoms: C_12  and  C_13
REMARK    5  A    between atoms: C_14  and  C_15
REMARK    6  A    between atoms: C_21  and  O_23
REMARK    7  A    between atoms: O_23  and  C_24
REMARK    8  A    between atoms: C_24  and  C_25
REMARK                            x       y       z     vdW  Elec       q    Type
REMARK                         _______ _______ _______ _____ _____    ______ ____
ROOT
ATOM      1  C   UNL     1       6.181   4.623  14.944  0.00  0.00    +0.000 C 
ATOM      2  C   UNL     1       6.366   5.338  16.064  0.00  0.00    +0.000 C 
ATOM      3  O   UNL     1       7.397   6.290  16.100  0.00  0.00    +0.000 OA
ATOM      4  C   UNL     1       7.192   7.010  17.327  0.00  0.00    +0.000 C 
ATOM      5  C   UNL     1       8.236   6.832  18.422  0.00  0.00    +0.000 C 
ATOM      6  C   UNL     1       7.173   5.995  19.107  0.00  0.00    +0.000 C 
ATOM      7  O   UNL     1       7.160   5.350  20.127  0.00  0.00    +0.000 OA
ATOM      8  N   UNL     1       6.213   6.312  18.181  0.00  0.00    +0.000 N 
ATOM      9  C   UNL     1       5.480   5.333  17.336  0.00  0.00    +0.000 C 
ENDROOT
BRANCH   1  11
ATOM     10  O   UNL     1       6.872   4.145  12.740  0.00  0.00    +0.000 OA
ATOM     11  C   UNL     1       7.078   4.770  13.774  0.00  0.00    +0.000 C 
ENDBRANCH   1  11
BRANCH   9  12
ATOM     12  C   UNL     1       5.231   3.921  17.953  0.00  0.00    +0.000 C 
ATOM     13  O   UNL     1       5.835   3.434  18.897  0.00  0.00    +0.000 OA
BRANCH  12  14
ATOM     14  O   UNL     1       4.195   3.278  17.328  0.00  0.00    +0.000 OA
BRANCH  14  15
ATOM     15  C   UNL     1       3.645   2.185  18.080  0.00  0.00    +0.000 C 
BRANCH  15  16
ATOM     16  C   UNL     1       2.817   2.718  19.221  0.00  0.00    +0.000 A 
ATOM     17  C   UNL     1       3.095   2.335  20.541  0.00  0.00    +0.000 A 
ATOM     18  C   UNL     1       2.294   2.787  21.590  0.00  0.00    +0.000 A 
ATOM     19  C   UNL     1       1.209   3.620  21.330  0.00  0.00    +0.000 A 
ATOM     20  C   UNL     1       0.926   4.007  20.022  0.00  0.00    +0.000 A 
ATOM     21  C   UNL     1       1.728   3.563  18.969  0.00  0.00    +0.000 A 
ENDBRANCH  15  16
ENDBRANCH  14  15
ENDBRANCH  12  14
ENDBRANCH   9  12
BRANCH   9  22
ATOM     22  C   UNL     1       4.079   5.931  16.990  0.00  0.00    +0.000 C 
BRANCH  22  23
ATOM     23  C   UNL     1       3.477   6.774  18.090  0.00  0.00    +0.000 C 
ATOM     24  C   UNL     1       2.270   7.358  18.019  0.00  0.00    +0.000 C 
BRANCH  24  25
ATOM     25  C   UNL     1       1.765   8.192  19.109  0.00  0.00    +0.000 A 
ATOM     26  C   UNL     1       1.733   7.686  20.414  0.00  0.00    +0.000 A 
ATOM     27  C   UNL     1       1.239   8.466  21.462  0.00  0.00    +0.000 A 
ATOM     28  C   UNL     1       0.776   9.758  21.210  0.00  0.00    +0.000 A 
ATOM     29  C   UNL     1       0.806  10.268  19.913  0.00  0.00    +0.000 A 
ATOM     30  C   UNL     1       1.297   9.488  18.863  0.00  0.00    +0.000 A 
ENDBRANCH  24  25
ENDBRANCH  22  23
ENDBRANCH   9  22
TORSDOF 8
ENDMDL
MODEL 2
REMARK VINA RESULT:      -8.9      0.265      1.269
REMARK  Name = 
REMARK  8 active torsions:
REMARK  status: ('A' for Active; 'I' for Inactive)
REMARK    1  A    between atoms: C_2  and  C_3
REMARK    2  A    between atoms: C_11  and  C_12
REMARK    3  A    between atoms: C_11  and  C_21
REMARK    4  A    between atoms: C_12  and  C_13
REMARK    5  A    between atoms: C_14  and  C_15
REMARK    6  A    between atoms: C_21  and  O_23
REMARK    7  A    between atoms: O_23  and  C_24
REMARK    8  A    between atoms: C_24  and  C_25
REMARK                            x       y       z     vdW  Elec       q    Type
REMARK                         _______ _______ _______ _____ _____    ______ ____
ROOT
ATOM      1  C   UNL     1       6.275   4.542  14.852  0.00  0.00    +0.000 C 
ATOM      2  C   UNL     1       6.385   5.273  15.972  0.00  0.00    +0.000 C 
ATOM      3  O   UNL     1       7.400   6.240  16.056  0.00  0.00    +0.000 OA
ATOM      4  C   UNL     1       7.114   6.971  17.260  0.00  0.00    +0.000 C 
ATOM      5  C   UNL     1       8.095   6.821  18.415  0.00  0.00    +0.000 C 
ATOM      6  C   UNL     1       7.005   5.977  19.048  0.00  0.00    +0.000 C 
ATOM      7  O   UNL     1       6.941   5.344  20.074  0.00  0.00    +0.000 OA
ATOM      8  N   UNL     1       6.097   6.270  18.064  0.00  0.00    +0.000 N 
ATOM      9  C   UNL     1       5.426   5.270  17.191  0.00  0.00    +0.000 C 
ENDROOT
BRANCH   1  11
ATOM     10  O   UNL     1       6.996   4.213  12.630  0.00  0.00    +0.000 OA
ATOM     11  C   UNL     1       7.237   4.688  13.735  0.00  0.00    +0.000 C 
ENDBRANCH   1  11
BRANCH   9  12
ATOM     12  C   UNL     1       5.161   3.863  17.810  0.00  0.00    +0.000 C 
ATOM     13  O   UNL     1       5.795   3.347  18.718  0.00  0.00    +0.000 OA
BRANCH  12  14
ATOM     14  O   UNL     1       4.073   3.261  17.234  0.00  0.00    +0.000 OA
BRANCH  14  15
ATOM     15  C   UNL     1       3.562   2.142  17.976  0.00  0.00    +0.000 C 
BRANCH  15  16
ATOM     16  C   UNL     1       2.724   2.635  19.128  0.00  0.00    +0.000 A 
ATOM     17  C   UNL     1       1.551   3.366  18.893  0.00  0.00    +0.000 A 
ATOM     18  C   UNL     1       0.806   3.868  19.960  0.00  0.00    +0.000 A 
ATOM     19  C   UNL     1       1.228   3.646  21.269  0.00  0.00    +0.000 A 
ATOM     20  C   UNL     1       2.391   2.919  21.513  0.00  0.00    +0.000 A 
ATOM     21  C   UNL     1       3.137   2.410  20.448  0.00  0.00    +0.000 A 
ENDBRANCH  15  16
ENDBRANCH  14  15
ENDBRANCH  12  14
ENDBRANCH   9  12
BRANCH   9  22
ATOM     22  C   UNL     1       4.040   5.845  16.756  0.00  0.00    +0.000 C 
BRANCH  22  23
ATOM     23  C   UNL     1       3.232   6.433  17.888  0.00  0.00    +0.000 C 
ATOM     24  C   UNL     1       2.736   7.681  17.893  0.00  0.00    +0.000 C 
BRANCH  24  25
ATOM     25  C   UNL     1       1.991   8.197  19.042  0.00  0.00    +0.000 A 
ATOM     26  C   UNL     1       1.331   9.428  18.947  0.00  0.00    +0.000 A 
ATOM     27  C   UNL     1       0.630   9.940  20.041  0.00  0.00    +0.000 A 
ATOM     28  C   UNL     1       0.585   9.222  21.236  0.00  0.00    +0.000 A 
ATOM     29  C   UNL     1       1.240   7.996  21.337  0.00  0.00    +0.000 A 
ATOM     30  C   UNL     1       1.944   7.484  20.245  0.00  0.00    +0.000 A 
ENDBRANCH  24  25
ENDBRANCH  22  23
ENDBRANCH   9  22
TORSDOF 8
ENDMDL
MODEL 3
REMARK VINA RESULT:      -8.5      0.979      1.424
REMARK  Name = 
REMARK  8 active torsions:
REMARK  status: ('A' for Active; 'I' for Inactive)
REMARK    1  A    between atoms: C_2  and  C_3
REMARK    2  A    between atoms: C_11  and  C_12
REMARK    3  A    between atoms: C_11  and  C_21
REMARK    4  A    between atoms: C_12  and  C_13
REMARK    5  A    between atoms: C_14  and  C_15
REMARK    6  A    between atoms: C_21  and  O_23
REMARK    7  A    between atoms: O_23  and  C_24
REMARK    8  A    between atoms: C_24  and  C_25
REMARK                            x       y       z     vdW  Elec       q    Type
REMARK                         _______ _______ _______ _____ _____    ______ ____
ROOT
ATOM      1  C   UNL     1       6.678   5.157  14.606  0.00  0.00    +0.000 C 
ATOM      2  C   UNL     1       6.655   5.576  15.880  0.00  0.00    +0.000 C 
ATOM      3  O   UNL     1       7.832   6.089  16.448  0.00  0.00    +0.000 OA
ATOM      4  C   UNL     1       7.424   6.633  17.715  0.00  0.00    +0.000 C 
ATOM      5  C   UNL     1       7.928   5.930  18.969  0.00  0.00    +0.000 C 
ATOM      6  C   UNL     1       6.504   5.421  19.089  0.00  0.00    +0.000 C 
ATOM      7  O   UNL     1       5.958   4.670  19.859  0.00  0.00    +0.000 OA
ATOM      8  N   UNL     1       6.056   6.196  18.050  0.00  0.00    +0.000 N 
ATOM      9  C   UNL     1       5.418   5.681  16.810  0.00  0.00    +0.000 C 
ENDROOT
BRANCH   1  11
ATOM     10  O   UNL     1       8.075   5.937  12.873  0.00  0.00    +0.000 OA
ATOM     11  C   UNL     1       7.929   5.162  13.811  0.00  0.00    +0.000 C 
ENDBRANCH   1  11
BRANCH   9  12
ATOM     12  C   UNL     1       4.586   4.367  16.941  0.00  0.00    +0.000 C 
ATOM     13  O   UNL     1       4.979   3.240  16.679  0.00  0.00    +0.000 OA
BRANCH  12  14
ATOM     14  O   UNL     1       3.335   4.616  17.441  0.00  0.00    +0.000 OA
BRANCH  14  15
ATOM     15  C   UNL     1       2.528   3.440  17.611  0.00  0.00    +0.000 C 
BRANCH  15  16
ATOM     16  C   UNL     1       2.299   3.188  19.079  0.00  0.00    +0.000 A 
ATOM     17  C   UNL     1       3.333   2.697  19.887  0.00  0.00    +0.000 A 
ATOM     18  C   UNL     1       3.104   2.413  21.234  0.00  0.00    +0.000 A 
ATOM     19  C   UNL     1       1.840   2.614  21.782  0.00  0.00    +0.000 A 
ATOM     20  C   UNL     1       0.805   3.103  20.988  0.00  0.00    +0.000 A 
ATOM     21  C   UNL     1       1.031   3.394  19.641  0.00  0.00    +0.000 A 
ENDBRANCH  15  16
ENDBRANCH  14  15
ENDBRANCH  12  14
ENDBRANCH   9  12
BRANCH   9  22
ATOM     22  C   UNL     1       4.452   6.778  16.259  0.00  0.00    +0.000 C 
BRANCH  22  23
ATOM     23  C   UNL     1       3.795   7.617  17.329  0.00  0.00    +0.000 C 
ATOM     24  C   UNL     1       2.467   7.702  17.513  0.00  0.00    +0.000 C 
BRANCH  24  25
ATOM     25  C   UNL     1       1.898   8.565  18.548  0.00  0.00    +0.000 A 
ATOM     26  C   UNL     1       1.547   9.885  18.237  0.00  0.00    +0.000 A 
ATOM     27  C   UNL     1       1.017  10.724  19.220  0.00  0.00    +0.000 A 
ATOM     28  C   UNL     1       0.834  10.247  20.518  0.00  0.00    +0.000 A 
ATOM     29  C   UNL     1       1.181   8.935  20.833  0.00  0.00    +0.000 A 
ATOM     30  C   UNL     1       1.714   8.095  19.853  0.00  0.00    +0.000 A 
ENDBRANCH  24  25
ENDBRANCH  22  23
ENDBRANCH   9  22
TORSDOF 8
ENDMDL
MODEL 4
REMARK VINA RESULT:      -8.4      0.682      1.076
REMARK  Name = 
REMARK  8 active torsions:
REMARK  status: ('A' for Active; 'I' for Inactive)
REMARK    1  A    between atoms: C_2  and  C_3
REMARK    2  A    between atoms: C_11  and  C_12
REMARK    3  A    between atoms: C_11  and  C_21
REMARK    4  A    between atoms: C_12  and  C_13
REMARK    5  A    between atoms: C_14  and  C_15
REMARK    6  A    between atoms: C_21  and  O_23
REMARK    7  A    between atoms: O_23  and  C_24
REMARK    8  A    between atoms: C_24  and  C_25
REMARK                            x       y       z     vdW  Elec       q    Type
REMARK                         _______ _______ _______ _____ _____    ______ ____
ROOT
ATOM      1  C   UNL     1       6.447   4.917  14.826  0.00  0.00    +0.000 C 
ATOM      2  C   UNL     1       6.583   5.544  16.005  0.00  0.00    +0.000 C 
ATOM      3  O   UNL     1       7.645   6.447  16.175  0.00  0.00    +0.000 OA
ATOM      4  C   UNL     1       7.385   7.088  17.435  0.00  0.00    +0.000 C 
ATOM      5  C   UNL     1       8.346   6.791  18.579  0.00  0.00    +0.000 C 
ATOM      6  C   UNL     1       7.209   5.954  19.132  0.00  0.00    +0.000 C 
ATOM      7  O   UNL     1       7.103   5.241  20.100  0.00  0.00    +0.000 OA
ATOM      8  N   UNL     1       6.326   6.375  18.172  0.00  0.00    +0.000 N 
ATOM      9  C   UNL     1       5.614   5.488  17.213  0.00  0.00    +0.000 C 
ENDROOT
BRANCH   1  11
ATOM     10  O   UNL     1       7.240   4.607  12.627  0.00  0.00    +0.000 OA
ATOM     11  C   UNL     1       7.427   5.106  13.730  0.00  0.00    +0.000 C 
ENDBRANCH   1  11
BRANCH   9  12
ATOM     12  C   UNL     1       5.272   4.049  17.710  0.00  0.00    +0.000 C 
ATOM     13  O   UNL     1       5.203   3.047  17.013  0.00  0.00    +0.000 OA
BRANCH  12  14
ATOM     14  O   UNL     1       5.092   4.019  19.068  0.00  0.00    +0.000 OA
BRANCH  14  15
ATOM     15  C   UNL     1       4.513   2.797  19.555  0.00  0.00    +0.000 C 
BRANCH  15  16
ATOM     16  C   UNL     1       3.012   2.927  19.600  0.00  0.00    +0.000 A 
ATOM     17  C   UNL     1       2.204   2.129  18.778  0.00  0.00    +0.000 A 
ATOM     18  C   UNL     1       0.818   2.288  18.782  0.00  0.00    +0.000 A 
ATOM     19  C   UNL     1       0.230   3.247  19.603  0.00  0.00    +0.000 A 
ATOM     20  C   UNL     1       1.024   4.044  20.425  0.00  0.00    +0.000 A 
ATOM     21  C   UNL     1       2.411   3.884  20.428  0.00  0.00    +0.000 A 
ENDBRANCH  15  16
ENDBRANCH  14  15
ENDBRANCH  12  14
ENDBRANCH   9  12
BRANCH   9  22
ATOM     22  C   UNL     1       4.264   6.167  16.822  0.00  0.00    +0.000 C 
BRANCH  22  23
ATOM     23  C   UNL     1       3.646   6.996  17.923  0.00  0.00    +0.000 C 
ATOM     24  C   UNL     1       2.346   7.330  17.979  0.00  0.00    +0.000 C 
BRANCH  24  25
ATOM     25  C   UNL     1       1.823   8.168  19.058  0.00  0.00    +0.000 A 
ATOM     26  C   UNL     1       1.779   7.670  20.366  0.00  0.00    +0.000 A 
ATOM     27  C   UNL     1       1.268   8.455  21.402  0.00  0.00    +0.000 A 
ATOM     28  C   UNL     1       0.799   9.741  21.136  0.00  0.00    +0.000 A 
ATOM     29  C   UNL     1       0.840  10.242  19.836  0.00  0.00    +0.000 A 
ATOM     30  C   UNL     1       1.348   9.459  18.797  0.00  0.00    +0.000 A 
ENDBRANCH  24  25
ENDBRANCH  22  23
ENDBRANCH   9  22
TORSDOF 8
ENDMDL
MODEL 5
REMARK VINA RESULT:      -8.3      0.624      1.055
REMARK  Name = 
REMARK  8 active torsions:
REMARK  status: ('A' for Active; 'I' for Inactive)
REMARK    1  A    between atoms: C_2  and  C_3
REMARK    2  A    between atoms: C_11  and  C_12
REMARK    3  A    between atoms: C_11  and  C_21
REMARK    4  A    between atoms: C_12  and  C_13
REMARK    5  A    between atoms: C_14  and  C_15
REMARK    6  A    between atoms: C_21  and  O_23
REMARK    7  A    between atoms: O_23  and  C_24
REMARK    8  A    between atoms: C_24  and  C_25
REMARK                            x       y       z     vdW  Elec       q    Type
REMARK                         _______ _______ _______ _____ _____    ______ ____
ROOT
ATOM      1  C   UNL     1       5.709   3.869  15.212  0.00  0.00    +0.000 C 
ATOM      2  C   UNL     1       5.983   4.738  16.199  0.00  0.00    +0.000 C 
ATOM      3  O   UNL     1       6.951   5.731  15.980  0.00  0.00    +0.000 OA
ATOM      4  C   UNL     1       6.850   6.601  17.120  0.00  0.00    +0.000 C 
ATOM      5  C   UNL     1       8.026   6.620  18.088  0.00  0.00    +0.000 C 
ATOM      6  C   UNL     1       7.106   5.837  19.004  0.00  0.00    +0.000 C 
ATOM      7  O   UNL     1       7.254   5.337  20.092  0.00  0.00    +0.000 OA
ATOM      8  N   UNL     1       6.025   5.982  18.174  0.00  0.00    +0.000 N 
ATOM      9  C   UNL     1       5.257   4.865  17.562  0.00  0.00    +0.000 C 
ENDROOT
BRANCH   1  11
ATOM     10  O   UNL     1       5.871   4.116  12.872  0.00  0.00    +0.000 OA
ATOM     11  C   UNL     1       6.451   3.896  13.930  0.00  0.00    +0.000 C 
ENDBRANCH   1  11
BRANCH   9  12
ATOM     12  C   UNL     1       5.171   3.541  18.383  0.00  0.00    +0.000 C 
ATOM     13  O   UNL     1       5.647   3.351  19.493  0.00  0.00    +0.000 OA
BRANCH  12  14
ATOM     14  O   UNL     1       4.440   2.590  17.721  0.00  0.00    +0.000 OA
BRANCH  14  15
ATOM     15  C   UNL     1       3.727   1.691  18.586  0.00  0.00    +0.000 C 
BRANCH  15  16
ATOM     16  C   UNL     1       2.604   2.426  19.271  0.00  0.00    +0.000 A 
ATOM     17  C   UNL     1       1.483   2.850  18.543  0.00  0.00    +0.000 A 
ATOM     18  C   UNL     1       0.469   3.577  19.167  0.00  0.00    +0.000 A 
ATOM     19  C   UNL     1       0.568   3.889  20.521  0.00  0.00    +0.000 A 
ATOM     20  C   UNL     1       1.677   3.470  21.254  0.00  0.00    +0.000 A 
ATOM     21  C   UNL     1       2.691   2.738  20.634  0.00  0.00    +0.000 A 
ENDBRANCH  15  16
ENDBRANCH  14  15
ENDBRANCH  12  14
ENDBRANCH   9  12
BRANCH   9  22
ATOM     22  C   UNL     1       3.791   5.348  17.322  0.00  0.00    +0.000 C 
BRANCH  22  23
ATOM     23  C   UNL     1       3.325   6.416  18.283  0.00  0.00    +0.000 C 
ATOM     24  C   UNL     1       2.059   6.856  18.367  0.00  0.00    +0.000 C 
BRANCH  24  25
ATOM     25  C   UNL     1       1.686   7.921  19.298  0.00  0.00    +0.000 A 
ATOM     26  C   UNL     1       1.599   7.648  20.669  0.00  0.00    +0.000 A 
ATOM     27  C   UNL     1       1.229   8.653  21.566  0.00  0.00    +0.000 A 
ATOM     28  C   UNL     1       0.946   9.935  21.097  0.00  0.00    +0.000 A 
ATOM     29  C   UNL     1       1.031  10.213  19.734  0.00  0.00    +0.000 A 
ATOM     30  C   UNL     1       1.399   9.210  18.835  0.00  0.00    +0.000 A 
ENDBRANCH  24  25
ENDBRANCH  22  23
ENDBRANCH   9  22
TORSDOF 8
ENDMDL
MODEL 6
REMARK VINA RESULT:      -8.2      0.927      1.614
REMARK  Name = 
REMARK  8 active torsions:
REMARK  status: ('A' for Active; 'I' for Inactive)
REMARK    1  A    between atoms: C_2  and  C_3
REMARK    2  A    between atoms: C_11  and  C_12
REMARK    3  A    between atoms: C_11  and  C_21
REMARK    4  A    between atoms: C_12  and  C_13
REMARK    5  A    between atoms: C_14  and  C_15
REMARK    6  A    between atoms: C_21  and  O_23
REMARK    7  A    between atoms: O_23  and  C_24
REMARK    8  A    between atoms: C_24  and  C_25
REMARK                            x       y       z     vdW  Elec       q    Type
REMARK                         _______ _______ _______ _____ _____    ______ ____
ROOT
ATOM      1  C   UNL     1       5.715   4.778  14.760  0.00  0.00    +0.000 C 
ATOM      2  C   UNL     1       6.035   5.230  15.983  0.00  0.00    +0.000 C 
ATOM      3  O   UNL     1       7.386   5.463  16.288  0.00  0.00    +0.000 OA
ATOM      4  C   UNL     1       7.367   6.127  17.563  0.00  0.00    +0.000 C 
ATOM      5  C   UNL     1       7.929   5.364  18.754  0.00  0.00    +0.000 C 
ATOM      6  C   UNL     1       6.477   5.215  19.168  0.00  0.00    +0.000 C 
ATOM      7  O   UNL     1       5.933   4.641  20.079  0.00  0.00    +0.000 OA
ATOM      8  N   UNL     1       6.026   6.042  18.172  0.00  0.00    +0.000 N 
ATOM      9  C   UNL     1       5.060   5.657  17.109  0.00  0.00    +0.000 C 
ENDROOT
BRANCH   1  11
ATOM     10  O   UNL     1       6.479   3.825  12.742  0.00  0.00    +0.000 OA
ATOM     11  C   UNL     1       6.755   4.459  13.755  0.00  0.00    +0.000 C 
ENDBRANCH   1  11
BRANCH   9  12
ATOM     12  C   UNL     1       3.990   4.586  17.488  0.00  0.00    +0.000 C 
ATOM     13  O   UNL     1       2.779   4.752  17.497  0.00  0.00    +0.000 OA
BRANCH  12  14
ATOM     14  O   UNL     1       4.572   3.380  17.779  0.00  0.00    +0.000 OA
BRANCH  14  15
ATOM     15  C   UNL     1       3.642   2.290  17.879  0.00  0.00    +0.000 C 
BRANCH  15  16
ATOM     16  C   UNL     1       2.830   2.428  19.142  0.00  0.00    +0.000 A 
ATOM     17  C   UNL     1       1.433   2.514  19.084  0.00  0.00    +0.000 A 
ATOM     18  C   UNL     1       0.687   2.695  20.249  0.00  0.00    +0.000 A 
ATOM     19  C   UNL     1       1.331   2.796  21.479  0.00  0.00    +0.000 A 
ATOM     20  C   UNL     1       2.720   2.710  21.548  0.00  0.00    +0.000 A 
ATOM     21  C   UNL     1       3.470   2.522  20.385  0.00  0.00    +0.000 A 
ENDBRANCH  15  16
ENDBRANCH  14  15
ENDBRANCH  12  14
ENDBRANCH   9  12
BRANCH   9  22
ATOM     22  C   UNL     1       4.284   6.936  16.661  0.00  0.00    +0.000 C 
BRANCH  22  23
ATOM     23  C   UNL     1       3.410   7.538  17.735  0.00  0.00    +0.000 C 
ATOM     24  C   UNL     1       2.342   8.316  17.492  0.00  0.00    +0.000 C 
BRANCH  24  25
ATOM     25  C   UNL     1       1.561   8.896  18.585  0.00  0.00    +0.000 A 
ATOM     26  C   UNL     1       0.670   9.944  18.323  0.00  0.00    +0.000 A 
ATOM     27  C   UNL     1      -0.070  10.516  19.360  0.00  0.00    +0.000 A 
ATOM     28  C   UNL     1       0.077  10.043  20.664  0.00  0.00    +0.000 A 
ATOM     29  C   UNL     1       0.962   9.001  20.931  0.00  0.00    +0.000 A 
ATOM     30  C   UNL     1       1.705   8.428  19.896  0.00  0.00    +0.000 A 
ENDBRANCH  24  25
ENDBRANCH  22  23
ENDBRANCH   9  22
TORSDOF 8
ENDMDL
MODEL 7
REMARK VINA RESULT:      -8.2      0.724      1.396
REMARK  Name = 
REMARK  8 active torsions:
REMARK  status: ('A' for Active; 'I' for Inactive)
REMARK    1  A    between atoms: C_2  and  C_3
REMARK    2  A    between atoms: C_11  and  C_12
REMARK    3  A    between atoms: C_11  and  C_21
REMARK    4  A    between atoms: C_12  and  C_13
REMARK    5  A    between atoms: C_14  and  C_15
REMARK    6  A    between atoms: C_21  and  O_23
REMARK    7  A    between atoms: O_23  and  C_24
REMARK    8  A    between atoms: C_24  and  C_25
REMARK                            x       y       z     vdW  Elec       q    Type
REMARK                         _______ _______ _______ _____ _____    ______ ____
ROOT
ATOM      1  C   UNL     1       5.794   4.225  14.936  0.00  0.00    +0.000 C 
ATOM      2  C   UNL     1       6.006   4.985  16.022  0.00  0.00    +0.000 C 
ATOM      3  O   UNL     1       6.951   6.020  15.953  0.00  0.00    +0.000 OA
ATOM      4  C   UNL     1       6.783   6.755  17.178  0.00  0.00    +0.000 C 
ATOM      5  C   UNL     1       7.922   6.695  18.187  0.00  0.00    +0.000 C 
ATOM      6  C   UNL     1       6.991   5.792  18.974  0.00  0.00    +0.000 C 
ATOM      7  O   UNL     1       7.114   5.178  20.006  0.00  0.00    +0.000 OA
ATOM      8  N   UNL     1       5.938   6.002  18.123  0.00  0.00    +0.000 N 
ATOM      9  C   UNL     1       5.226   4.941  17.361  0.00  0.00    +0.000 C 
ENDROOT
BRANCH   1  11
ATOM     10  O   UNL     1       6.197   3.946  12.628  0.00  0.00    +0.000 OA
ATOM     11  C   UNL     1       6.581   4.413  13.694  0.00  0.00    +0.000 C 
ENDBRANCH   1  11
BRANCH   9  12
ATOM     12  C   UNL     1       5.149   3.531  18.027  0.00  0.00    +0.000 C 
ATOM     13  O   UNL     1       5.072   2.463  17.438  0.00  0.00    +0.000 OA
BRANCH  12  14
ATOM     14  O   UNL     1       5.222   3.619  19.392  0.00  0.00    +0.000 OA
BRANCH  14  15
ATOM     15  C   UNL     1       4.442   2.631  20.085  0.00  0.00    +0.000 C 
BRANCH  15  16
ATOM     16  C   UNL     1       2.976   2.944  19.936  0.00  0.00    +0.000 A 
ATOM     17  C   UNL     1       2.381   3.952  20.707  0.00  0.00    +0.000 A 
ATOM     18  C   UNL     1       1.013   4.204  20.607  0.00  0.00    +0.000 A 
ATOM     19  C   UNL     1       0.228   3.449  19.739  0.00  0.00    +0.000 A 
ATOM     20  C   UNL     1       0.809   2.445  18.967  0.00  0.00    +0.000 A 
ATOM     21  C   UNL     1       2.179   2.194  19.060  0.00  0.00    +0.000 A 
ENDBRANCH  15  16
ENDBRANCH  14  15
ENDBRANCH  12  14
ENDBRANCH   9  12
BRANCH   9  22
ATOM     22  C   UNL     1       3.757   5.410  17.117  0.00  0.00    +0.000 C 
BRANCH  22  23
ATOM     23  C   UNL     1       3.212   6.322  18.191  0.00  0.00    +0.000 C 
ATOM     24  C   UNL     1       2.215   7.202  18.000  0.00  0.00    +0.000 C 
BRANCH  24  25
ATOM     25  C   UNL     1       1.762   8.081  19.078  0.00  0.00    +0.000 A 
ATOM     26  C   UNL     1       1.354   9.388  18.784  0.00  0.00    +0.000 A 
ATOM     27  C   UNL     1       0.934  10.243  19.805  0.00  0.00    +0.000 A 
ATOM     28  C   UNL     1       0.920   9.795  21.126  0.00  0.00    +0.000 A 
ATOM     29  C   UNL     1       1.324   8.495  21.425  0.00  0.00    +0.000 A 
ATOM     30  C   UNL     1       1.747   7.639  20.406  0.00  0.00    +0.000 A 
ENDBRANCH  24  25
ENDBRANCH  22  23
ENDBRANCH   9  22
TORSDOF 8
ENDMDL
MODEL 8
REMARK VINA RESULT:      -8.1      0.982      1.409
REMARK  Name = 
REMARK  8 active torsions:
REMARK  status: ('A' for Active; 'I' for Inactive)
REMARK    1  A    between atoms: C_2  and  C_3
REMARK    2  A    between atoms: C_11  and  C_12
REMARK    3  A    between atoms: C_11  and  C_21
REMARK    4  A    between atoms: C_12  and  C_13
REMARK    5  A    between atoms: C_14  and  C_15
REMARK    6  A    between atoms: C_21  and  O_23
REMARK    7  A    between atoms: O_23  and  C_24
REMARK    8  A    between atoms: C_24  and  C_25
REMARK                            x       y       z     vdW  Elec       q    Type
REMARK                         _______ _______ _______ _____ _____    ______ ____
ROOT
ATOM      1  C   UNL     1       5.775   5.160  14.747  0.00  0.00    +0.000 C 
ATOM      2  C   UNL     1       6.056   5.556  15.998  0.00  0.00    +0.000 C 
ATOM      3  O   UNL     1       7.390   5.826  16.341  0.00  0.00    +0.000 OA
ATOM      4  C   UNL     1       7.322   6.418  17.650  0.00  0.00    +0.000 C 
ATOM      5  C   UNL     1       7.896   5.612  18.808  0.00  0.00    +0.000 C 
ATOM      6  C   UNL     1       6.445   5.382  19.185  0.00  0.00    +0.000 C 
ATOM      7  O   UNL     1       5.910   4.736  20.053  0.00  0.00    +0.000 OA
ATOM      8  N   UNL     1       5.977   6.244  18.228  0.00  0.00    +0.000 N 
ATOM      9  C   UNL     1       5.045   5.879  17.128  0.00  0.00    +0.000 C 
ENDROOT
BRANCH   1  11
ATOM     10  O   UNL     1       7.923   5.513  13.840  0.00  0.00    +0.000 OA
ATOM     11  C   UNL     1       6.844   4.940  13.745  0.00  0.00    +0.000 C 
ENDBRANCH   1  11
BRANCH   9  12
ATOM     12  C   UNL     1       4.015   4.746  17.427  0.00  0.00    +0.000 C 
ATOM     13  O   UNL     1       2.798   4.852  17.382  0.00  0.00    +0.000 OA
BRANCH  12  14
ATOM     14  O   UNL     1       4.643   3.563  17.714  0.00  0.00    +0.000 OA
BRANCH  14  15
ATOM     15  C   UNL     1       3.762   2.429  17.765  0.00  0.00    +0.000 C 
BRANCH  15  16
ATOM     16  C   UNL     1       2.906   2.505  19.003  0.00  0.00    +0.000 A 
ATOM     17  C   UNL     1       1.508   2.535  18.901  0.00  0.00    +0.000 A 
ATOM     18  C   UNL     1       0.719   2.660  20.044  0.00  0.00    +0.000 A 
ATOM     19  C   UNL     1       1.319   2.758  21.297  0.00  0.00    +0.000 A 
ATOM     20  C   UNL     1       2.707   2.727  21.410  0.00  0.00    +0.000 A 
ATOM     21  C   UNL     1       3.501   2.597  20.268  0.00  0.00    +0.000 A 
ENDBRANCH  15  16
ENDBRANCH  14  15
ENDBRANCH  12  14
ENDBRANCH   9  12
BRANCH   9  22
ATOM     22  C   UNL     1       4.224   7.149  16.735  0.00  0.00    +0.000 C 
BRANCH  22  23
ATOM     23  C   UNL     1       3.331   7.673  17.835  0.00  0.00    +0.000 C 
ATOM     24  C   UNL     1       2.297   8.505  17.636  0.00  0.00    +0.000 C 
BRANCH  24  25
ATOM     25  C   UNL     1       1.496   9.003  18.756  0.00  0.00    +0.000 A 
ATOM     26  C   UNL     1       1.590   8.382  20.008  0.00  0.00    +0.000 A 
ATOM     27  C   UNL     1       0.820   8.838  21.080  0.00  0.00    +0.000 A 
ATOM     28  C   UNL     1      -0.046   9.917  20.906  0.00  0.00    +0.000 A 
ATOM     29  C   UNL     1      -0.144  10.539  19.663  0.00  0.00    +0.000 A 
ATOM     30  C   UNL     1       0.623  10.084  18.588  0.00  0.00    +0.000 A 
ENDBRANCH  24  25
ENDBRANCH  22  23
ENDBRANCH   9  22
TORSDOF 8
ENDMDL
MODEL 9
REMARK VINA RESULT:      -7.9      0.707      1.086
REMARK  Name = 
REMARK  8 active torsions:
REMARK  status: ('A' for Active; 'I' for Inactive)
REMARK    1  A    between atoms: C_2  and  C_3
REMARK    2  A    between atoms: C_11  and  C_12
REMARK    3  A    between atoms: C_11  and  C_21
REMARK    4  A    between atoms: C_12  and  C_13
REMARK    5  A    between atoms: C_14  and  C_15
REMARK    6  A    between atoms: C_21  and  O_23
REMARK    7  A    between atoms: O_23  and  C_24
REMARK    8  A    between atoms: C_24  and  C_25
REMARK                            x       y       z     vdW  Elec       q    Type
REMARK                         _______ _______ _______ _____ _____    ______ ____
ROOT
ATOM      1  C   UNL     1       6.109   4.570  15.020  0.00  0.00    +0.000 C 
ATOM      2  C   UNL     1       6.353   5.294  16.124  0.00  0.00    +0.000 C 
ATOM      3  O   UNL     1       7.537   6.044  16.195  0.00  0.00    +0.000 OA
ATOM      4  C   UNL     1       7.393   6.849  17.378  0.00  0.00    +0.000 C 
ATOM      5  C   UNL     1       8.317   6.539  18.548  0.00  0.00    +0.000 C 
ATOM      6  C   UNL     1       7.078   5.943  19.188  0.00  0.00    +0.000 C 
ATOM      7  O   UNL     1       6.884   5.362  20.228  0.00  0.00    +0.000 OA
ATOM      8  N   UNL     1       6.252   6.382  18.187  0.00  0.00    +0.000 N 
ATOM      9  C   UNL     1       5.404   5.511  17.330  0.00  0.00    +0.000 C 
ENDROOT
BRANCH   1  11
ATOM     10  O   UNL     1       7.466   5.508  13.335  0.00  0.00    +0.000 OA
ATOM     11  C   UNL     1       7.089   4.494  13.911  0.00  0.00    +0.000 C 
ENDBRANCH   1  11
BRANCH   9  12
ATOM     12  C   UNL     1       4.863   4.200  17.980  0.00  0.00    +0.000 C 
ATOM     13  O   UNL     1       4.879   3.930  19.172  0.00  0.00    +0.000 OA
BRANCH  12  14
ATOM     14  O   UNL     1       4.308   3.370  17.042  0.00  0.00    +0.000 OA
BRANCH  14  15
ATOM     15  C   UNL     1       2.884   3.503  16.911  0.00  0.00    +0.000 C 
BRANCH  15  16
ATOM     16  C   UNL     1       2.226   3.283  18.249  0.00  0.00    +0.000 A 
ATOM     17  C   UNL     1       1.512   4.316  18.870  0.00  0.00    +0.000 A 
ATOM     18  C   UNL     1       0.950   4.128  20.133  0.00  0.00    +0.000 A 
ATOM     19  C   UNL     1       1.100   2.907  20.786  0.00  0.00    +0.000 A 
ATOM     20  C   UNL     1       1.806   1.872  20.177  0.00  0.00    +0.000 A 
ATOM     21  C   UNL     1       2.366   2.055  18.911  0.00  0.00    +0.000 A 
ENDBRANCH  15  16
ENDBRANCH  14  15
ENDBRANCH  12  14
ENDBRANCH   9  12
BRANCH   9  22
ATOM     22  C   UNL     1       4.161   6.335  16.866  0.00  0.00    +0.000 C 
BRANCH  22  23
ATOM     23  C   UNL     1       3.327   6.889  17.997  0.00  0.00    +0.000 C 
ATOM     24  C   UNL     1       2.607   8.020  17.921  0.00  0.00    +0.000 C 
BRANCH  24  25
ATOM     25  C   UNL     1       1.851   8.517  19.071  0.00  0.00    +0.000 A 
ATOM     26  C   UNL     1       1.847   7.789  20.268  0.00  0.00    +0.000 A 
ATOM     27  C   UNL     1       1.117   8.245  21.368  0.00  0.00    +0.000 A 
ATOM     28  C   UNL     1       0.388   9.430  21.277  0.00  0.00    +0.000 A 
ATOM     29  C   UNL     1       0.389  10.159  20.089  0.00  0.00    +0.000 A 
ATOM     30  C   UNL     1       1.116   9.705  18.987  0.00  0.00    +0.000 A 
ENDBRANCH  24  25
ENDBRANCH  22  23
ENDBRANCH   9  22
TORSDOF 8
ENDMDL
