MODEL 1
REMARK VINA RESULT:      -7.4      0.000      0.000
REMARK  Name = 
REMARK  4 active torsions:
REMARK  status: ('A' for Active; 'I' for Inactive)
REMARK    1  A    between atoms: C_1  and  C_2
REMARK    2  A    between atoms: C_2  and  C_4
REMARK    3  A    between atoms: C_5  and  C_6
REMARK    4  A    between atoms: C_20  and  C_21
REMARK                            x       y       z     vdW  Elec       q    Type
REMARK                         _______ _______ _______ _____ _____    ______ ____
ROOT
ATOM      1  C   UNL     1       0.246  10.770  20.251  0.00  0.00    +0.000 A 
ATOM      2  C   UNL     1       0.081  10.228  21.525  0.00  0.00    +0.000 A 
ATOM      3  C   UNL     1      -0.706  10.873  22.626  0.00  0.00    +0.000 C 
ATOM      4  N   UNL     1       0.612   9.028  21.888  0.00  0.00    +0.000 NA
ATOM      5  C   UNL     1       1.283   8.320  20.973  0.00  0.00    +0.000 A 
ATOM      6  N   UNL     1       1.719   7.053  21.350  0.00  0.00    +0.000 N 
ATOM      7  C   UNL     1       1.992   6.020  20.518  0.00  0.00    +0.000 A 
ATOM      8  N   UNL     1       1.852   4.768  20.909  0.00  0.00    +0.000 NA
ATOM      9  C   UNL     1       2.081   3.896  19.858  0.00  0.00    +0.000 A 
ATOM     10  C   UNL     1       1.967   2.491  19.895  0.00  0.00    +0.000 A 
ATOM     11  C   UNL     1       2.204   1.739  18.736  0.00  0.00    +0.000 A 
ATOM     12  C   UNL     1       2.549   2.369  17.544  0.00  0.00    +0.000 A 
ATOM     13  C   UNL     1       2.682   3.756  17.482  0.00  0.00    +0.000 A 
ATOM     14  C   UNL     1       2.450   4.494  18.654  0.00  0.00    +0.000 A 
ATOM     15  S   UNL     1       2.567   6.179  18.894  0.00  0.00    +0.000 S 
ATOM     16  N   UNL     1       1.488   8.783  19.741  0.00  0.00    +0.000 NA
ATOM     17  C   UNL     1       0.973   9.978  19.373  0.00  0.00    +0.000 A 
ATOM     18  C   UNL     1       1.244  10.324  17.938  0.00  0.00    +0.000 C 
ATOM     19  H   UNL     1       1.335   6.818  22.252  0.00  0.00    +0.000 HD
ENDROOT
BRANCH   1  21
ATOM     20  C   UNL     1      -1.718  12.100  19.182  0.00  0.00    +0.000 C 
ATOM     21  C   UNL     1      -0.338  12.058  19.779  0.00  0.00    +0.000 C 
ATOM     22  O   UNL     1       0.313  13.095  19.892  0.00  0.00    +0.000 OA
ENDBRANCH   1  21
TORSDOF 1
ENDMDL
MODEL 2
REMARK VINA RESULT:      -6.9      3.102      7.773
REMARK  Name = 
REMARK  4 active torsions:
REMARK  status: ('A' for Active; 'I' for Inactive)
REMARK    1  A    between atoms: C_1  and  C_2
REMARK    2  A    between atoms: C_2  and  C_4
REMARK    3  A    between atoms: C_5  and  C_6
REMARK    4  A    between atoms: C_20  and  C_21
REMARK                            x       y       z     vdW  Elec       q    Type
REMARK                         _______ _______ _______ _____ _____    ______ ____
ROOT
ATOM      1  C   UNL     1       3.243   4.127  18.925  0.00  0.00    +0.000 A 
ATOM      2  C   UNL     1       3.643   4.729  17.732  0.00  0.00    +0.000 A 
ATOM      3  C   UNL     1       4.209   3.991  16.557  0.00  0.00    +0.000 C 
ATOM      4  N   UNL     1       3.533   6.069  17.513  0.00  0.00    +0.000 NA
ATOM      5  C   UNL     1       2.980   6.832  18.462  0.00  0.00    +0.000 A 
ATOM      6  N   UNL     1       2.788   8.176  18.159  0.00  0.00    +0.000 N 
ATOM      7  C   UNL     1       1.883   9.005  18.731  0.00  0.00    +0.000 A 
ATOM      8  N   UNL     1       1.373  10.026  18.071  0.00  0.00    +0.000 NA
ATOM      9  C   UNL     1       0.393  10.657  18.820  0.00  0.00    +0.000 A 
ATOM     10  C   UNL     1      -0.400  11.748  18.412  0.00  0.00    +0.000 A 
ATOM     11  C   UNL     1      -1.378  12.263  19.275  0.00  0.00    +0.000 A 
ATOM     12  C   UNL     1      -1.575  11.703  20.533  0.00  0.00    +0.000 A 
ATOM     13  C   UNL     1      -0.795  10.631  20.967  0.00  0.00    +0.000 A 
ATOM     14  C   UNL     1       0.186  10.133  20.095  0.00  0.00    +0.000 A 
ATOM     15  S   UNL     1       1.302   8.869  20.355  0.00  0.00    +0.000 S 
ATOM     16  N   UNL     1       2.588   6.323  19.629  0.00  0.00    +0.000 NA
ATOM     17  C   UNL     1       2.702   4.996  19.862  0.00  0.00    +0.000 A 
ATOM     18  C   UNL     1       2.160   4.579  21.198  0.00  0.00    +0.000 C 
ATOM     19  H   UNL     1       2.996   8.336  17.186  0.00  0.00    +0.000 HD
ENDROOT
BRANCH   1  21
ATOM     20  C   UNL     1       2.150   1.767  18.860  0.00  0.00    +0.000 C 
ATOM     21  C   UNL     1       3.303   2.666  19.215  0.00  0.00    +0.000 C 
ATOM     22  O   UNL     1       4.310   2.193  19.739  0.00  0.00    +0.000 OA
ENDBRANCH   1  21
TORSDOF 1
ENDMDL
MODEL 3
REMARK VINA RESULT:      -6.8      2.962      7.781
REMARK  Name = 
REMARK  4 active torsions:
REMARK  status: ('A' for Active; 'I' for Inactive)
REMARK    1  A    between atoms: C_1  and  C_2
REMARK    2  A    between atoms: C_2  and  C_4
REMARK    3  A    between atoms: C_5  and  C_6
REMARK    4  A    between atoms: C_20  and  C_21
REMARK                            x       y       z     vdW  Elec       q    Type
REMARK                         _______ _______ _______ _____ _____    ______ ____
ROOT
ATOM      1  C   UNL     1       2.745   3.869  19.218  0.00  0.00    +0.000 A 
ATOM      2  C   UNL     1       2.859   4.614  18.045  0.00  0.00    +0.000 A 
ATOM      3  C   UNL     1       3.112   4.028  16.689  0.00  0.00    +0.000 C 
ATOM      4  N   UNL     1       2.728   5.969  18.019  0.00  0.00    +0.000 NA
ATOM      5  C   UNL     1       2.435   6.608  19.157  0.00  0.00    +0.000 A 
ATOM      6  N   UNL     1       2.204   7.978  19.071  0.00  0.00    +0.000 N 
ATOM      7  C   UNL     1       1.480   8.723  19.939  0.00  0.00    +0.000 A 
ATOM      8  N   UNL     1       0.849   9.813  19.548  0.00  0.00    +0.000 NA
ATOM      9  C   UNL     1       0.090  10.340  20.580  0.00  0.00    +0.000 A 
ATOM     10  C   UNL     1      -0.755  11.466  20.508  0.00  0.00    +0.000 A 
ATOM     11  C   UNL     1      -1.486  11.865  21.635  0.00  0.00    +0.000 A 
ATOM     12  C   UNL     1      -1.388  11.155  22.828  0.00  0.00    +0.000 A 
ATOM     13  C   UNL     1      -0.549  10.046  22.931  0.00  0.00    +0.000 A 
ATOM     14  C   UNL     1       0.184   9.664  21.795  0.00  0.00    +0.000 A 
ATOM     15  S   UNL     1       1.303   8.388  21.627  0.00  0.00    +0.000 S 
ATOM     16  N   UNL     1       2.324   5.959  20.315  0.00  0.00    +0.000 NA
ATOM     17  C   UNL     1       2.462   4.614  20.354  0.00  0.00    +0.000 A 
ATOM     18  C   UNL     1       2.249   4.035  21.722  0.00  0.00    +0.000 C 
ATOM     19  H   UNL     1       2.176   8.255  18.103  0.00  0.00    +0.000 HD
ENDROOT
BRANCH   1  21
ATOM     20  C   UNL     1       4.170   1.716  19.539  0.00  0.00    +0.000 C 
ATOM     21  C   UNL     1       2.842   2.384  19.310  0.00  0.00    +0.000 C 
ATOM     22  O   UNL     1       1.823   1.704  19.208  0.00  0.00    +0.000 OA
ENDBRANCH   1  21
TORSDOF 1
ENDMDL
MODEL 4
REMARK VINA RESULT:      -6.7      2.547      3.578
REMARK  Name = 
REMARK  4 active torsions:
REMARK  status: ('A' for Active; 'I' for Inactive)
REMARK    1  A    between atoms: C_1  and  C_2
REMARK    2  A    between atoms: C_2  and  C_4
REMARK    3  A    between atoms: C_5  and  C_6
REMARK    4  A    between atoms: C_20  and  C_21
REMARK                            x       y       z     vdW  Elec       q    Type
REMARK                         _______ _______ _______ _____ _____    ______ ____
ROOT
ATOM      1  C   UNL     1      -0.327  11.423  21.134  0.00  0.00    +0.000 A 
ATOM      2  C   UNL     1      -0.256  11.885  19.819  0.00  0.00    +0.000 A 
ATOM      3  C   UNL     1      -0.665  13.258  19.379  0.00  0.00    +0.000 C 
ATOM      4  N   UNL     1       0.219  11.121  18.797  0.00  0.00    +0.000 NA
ATOM      5  C   UNL     1       0.677   9.895  19.070  0.00  0.00    +0.000 A 
ATOM      6  N   UNL     1       1.252   9.187  18.019  0.00  0.00    +0.000 N 
ATOM      7  C   UNL     1       2.151   8.181  18.128  0.00  0.00    +0.000 A 
ATOM      8  N   UNL     1       3.038   7.946  17.181  0.00  0.00    +0.000 NA
ATOM      9  C   UNL     1       3.917   6.946  17.565  0.00  0.00    +0.000 A 
ATOM     10  C   UNL     1       5.022   6.474  16.829  0.00  0.00    +0.000 A 
ATOM     11  C   UNL     1       5.842   5.472  17.364  0.00  0.00    +0.000 A 
ATOM     12  C   UNL     1       5.576   4.938  18.622  0.00  0.00    +0.000 A 
ATOM     13  C   UNL     1       4.481   5.377  19.366  0.00  0.00    +0.000 A 
ATOM     14  C   UNL     1       3.664   6.376  18.812  0.00  0.00    +0.000 A 
ATOM     15  S   UNL     1       2.252   7.081  19.461  0.00  0.00    +0.000 S 
ATOM     16  N   UNL     1       0.628   9.387  20.301  0.00  0.00    +0.000 NA
ATOM     17  C   UNL     1       0.149  10.133  21.322  0.00  0.00    +0.000 A 
ATOM     18  C   UNL     1       0.220   9.436  22.649  0.00  0.00    +0.000 C 
ATOM     19  H   UNL     1       1.341   9.788  17.216  0.00  0.00    +0.000 HD
ENDROOT
BRANCH   1  21
ATOM     20  C   UNL     1      -2.215  12.083  22.797  0.00  0.00    +0.000 C 
ATOM     21  C   UNL     1      -0.801  12.217  22.302  0.00  0.00    +0.000 C 
ATOM     22  O   UNL     1      -0.023  12.980  22.872  0.00  0.00    +0.000 OA
ENDBRANCH   1  21
TORSDOF 1
ENDMDL
MODEL 5
REMARK VINA RESULT:      -6.5      3.555      7.693
REMARK  Name = 
REMARK  4 active torsions:
REMARK  status: ('A' for Active; 'I' for Inactive)
REMARK    1  A    between atoms: C_1  and  C_2
REMARK    2  A    between atoms: C_2  and  C_4
REMARK    3  A    between atoms: C_5  and  C_6
REMARK    4  A    between atoms: C_20  and  C_21
REMARK                            x       y       z     vdW  Elec       q    Type
REMARK                         _______ _______ _______ _____ _____    ______ ____
ROOT
ATOM      1  C   UNL     1       4.926   5.035  17.647  0.00  0.00    +0.000 A 
ATOM      2  C   UNL     1       4.312   4.587  18.817  0.00  0.00    +0.000 A 
ATOM      3  C   UNL     1       4.724   3.362  19.576  0.00  0.00    +0.000 C 
ATOM      4  N   UNL     1       3.274   5.247  19.401  0.00  0.00    +0.000 NA
ATOM      5  C   UNL     1       2.853   6.393  18.856  0.00  0.00    +0.000 A 
ATOM      6  N   UNL     1       1.862   7.091  19.540  0.00  0.00    +0.000 N 
ATOM      7  C   UNL     1       1.613   8.419  19.451  0.00  0.00    +0.000 A 
ATOM      8  N   UNL     1       1.096   9.090  20.462  0.00  0.00    +0.000 NA
ATOM      9  C   UNL     1       1.036  10.444  20.176  0.00  0.00    +0.000 A 
ATOM     10  C   UNL     1       0.593  11.464  21.041  0.00  0.00    +0.000 A 
ATOM     11  C   UNL     1       0.619  12.800  20.619  0.00  0.00    +0.000 A 
ATOM     12  C   UNL     1       1.082  13.130  19.349  0.00  0.00    +0.000 A 
ATOM     13  C   UNL     1       1.513  12.140  18.467  0.00  0.00    +0.000 A 
ATOM     14  C   UNL     1       1.473  10.805  18.902  0.00  0.00    +0.000 A 
ATOM     15  S   UNL     1       1.898   9.391  18.048  0.00  0.00    +0.000 S 
ATOM     16  N   UNL     1       3.387   6.872  17.733  0.00  0.00    +0.000 NA
ATOM     17  C   UNL     1       4.412   6.220  17.139  0.00  0.00    +0.000 A 
ATOM     18  C   UNL     1       4.935   6.922  15.920  0.00  0.00    +0.000 C 
ATOM     19  H   UNL     1       1.703   6.660  20.436  0.00  0.00    +0.000 HD
ENDROOT
BRANCH   1  21
ATOM     20  C   UNL     1       7.489   4.625  17.467  0.00  0.00    +0.000 C 
ATOM     21  C   UNL     1       6.087   4.382  16.978  0.00  0.00    +0.000 C 
ATOM     22  O   UNL     1       5.892   3.629  16.026  0.00  0.00    +0.000 OA
ENDBRANCH   1  21
TORSDOF 1
ENDMDL
MODEL 6
REMARK VINA RESULT:      -6.4      3.136      7.587
REMARK  Name = 
REMARK  4 active torsions:
REMARK  status: ('A' for Active; 'I' for Inactive)
REMARK    1  A    between atoms: C_1  and  C_2
REMARK    2  A    between atoms: C_2  and  C_4
REMARK    3  A    between atoms: C_5  and  C_6
REMARK    4  A    between atoms: C_20  and  C_21
REMARK                            x       y       z     vdW  Elec       q    Type
REMARK                         _______ _______ _______ _____ _____    ______ ____
ROOT
ATOM      1  C   UNL     1       3.458   5.329  19.167  0.00  0.00    +0.000 A 
ATOM      2  C   UNL     1       2.599   5.356  20.266  0.00  0.00    +0.000 A 
ATOM      3  C   UNL     1       2.504   4.271  21.295  0.00  0.00    +0.000 C 
ATOM      4  N   UNL     1       1.765   6.402  20.521  0.00  0.00    +0.000 NA
ATOM      5  C   UNL     1       1.802   7.465  19.710  0.00  0.00    +0.000 A 
ATOM      6  N   UNL     1       1.014   8.557  20.064  0.00  0.00    +0.000 N 
ATOM      7  C   UNL     1       1.215   9.843  19.693  0.00  0.00    +0.000 A 
ATOM      8  N   UNL     1       0.825  10.846  20.454  0.00  0.00    +0.000 NA
ATOM      9  C   UNL     1       1.237  12.057  19.923  0.00  0.00    +0.000 A 
ATOM     10  C   UNL     1       1.045  13.331  20.494  0.00  0.00    +0.000 A 
ATOM     11  C   UNL     1       1.547  14.470  19.849  0.00  0.00    +0.000 A 
ATOM     12  C   UNL     1       2.238  14.353  18.647  0.00  0.00    +0.000 A 
ATOM     13  C   UNL     1       2.430  13.107  18.053  0.00  0.00    +0.000 A 
ATOM     14  C   UNL     1       1.914  11.977  18.707  0.00  0.00    +0.000 A 
ATOM     15  S   UNL     1       1.960  10.344  18.214  0.00  0.00    +0.000 S 
ATOM     16  N   UNL     1       2.590   7.500  18.637  0.00  0.00    +0.000 NA
ATOM     17  C   UNL     1       3.415   6.463  18.368  0.00  0.00    +0.000 A 
ATOM     18  C   UNL     1       4.276   6.687  17.159  0.00  0.00    +0.000 C 
ATOM     19  H   UNL     1       0.619   8.406  20.978  0.00  0.00    +0.000 HD
ENDROOT
BRANCH   1  21
ATOM     20  C   UNL     1       4.036   3.127  17.908  0.00  0.00    +0.000 C 
ATOM     21  C   UNL     1       4.419   4.234  18.851  0.00  0.00    +0.000 C 
ATOM     22  O   UNL     1       5.539   4.247  19.358  0.00  0.00    +0.000 OA
ENDBRANCH   1  21
TORSDOF 1
ENDMDL
MODEL 7
REMARK VINA RESULT:      -6.2      3.247      7.413
REMARK  Name = 
REMARK  4 active torsions:
REMARK  status: ('A' for Active; 'I' for Inactive)
REMARK    1  A    between atoms: C_1  and  C_2
REMARK    2  A    between atoms: C_2  and  C_4
REMARK    3  A    between atoms: C_5  and  C_6
REMARK    4  A    between atoms: C_20  and  C_21
REMARK                            x       y       z     vdW  Elec       q    Type
REMARK                         _______ _______ _______ _____ _____    ______ ____
ROOT
ATOM      1  C   UNL     1       4.896   4.833  18.321  0.00  0.00    +0.000 A 
ATOM      2  C   UNL     1       4.253   4.116  19.330  0.00  0.00    +0.000 A 
ATOM      3  C   UNL     1       4.728   2.802  19.873  0.00  0.00    +0.000 C 
ATOM      4  N   UNL     1       3.122   4.564  19.943  0.00  0.00    +0.000 NA
ATOM      5  C   UNL     1       2.632   5.758  19.593  0.00  0.00    +0.000 A 
ATOM      6  N   UNL     1       1.539   6.228  20.315  0.00  0.00    +0.000 N 
ATOM      7  C   UNL     1       1.173   7.524  20.460  0.00  0.00    +0.000 A 
ATOM      8  N   UNL     1       0.532   7.940  21.535  0.00  0.00    +0.000 NA
ATOM      9  C   UNL     1       0.365   9.314  21.508  0.00  0.00    +0.000 A 
ATOM     10  C   UNL     1      -0.226  10.106  22.513  0.00  0.00    +0.000 A 
ATOM     11  C   UNL     1      -0.298  11.497  22.356  0.00  0.00    +0.000 A 
ATOM     12  C   UNL     1       0.213  12.106  21.214  0.00  0.00    +0.000 A 
ATOM     13  C   UNL     1       0.790  11.345  20.197  0.00  0.00    +0.000 A 
ATOM     14  C   UNL     1       0.847   9.952  20.366  0.00  0.00    +0.000 A 
ATOM     15  S   UNL     1       1.456   8.772  19.296  0.00  0.00    +0.000 S 
ATOM     16  N   UNL     1       3.190   6.489  18.629  0.00  0.00    +0.000 NA
ATOM     17  C   UNL     1       4.308   6.050  18.007  0.00  0.00    +0.000 A 
ATOM     18  C   UNL     1       4.840   7.017  16.991  0.00  0.00    +0.000 C 
ATOM     19  H   UNL     1       1.363   5.618  21.097  0.00  0.00    +0.000 HD
ENDROOT
BRANCH   1  21
ATOM     20  C   UNL     1       6.128   3.939  16.210  0.00  0.00    +0.000 C 
ATOM     21  C   UNL     1       6.154   4.418  17.636  0.00  0.00    +0.000 C 
ATOM     22  O   UNL     1       7.222   4.480  18.242  0.00  0.00    +0.000 OA
ENDBRANCH   1  21
TORSDOF 1
ENDMDL
MODEL 8
REMARK VINA RESULT:      -6.2      1.802      2.841
REMARK  Name = 
REMARK  4 active torsions:
REMARK  status: ('A' for Active; 'I' for Inactive)
REMARK    1  A    between atoms: C_1  and  C_2
REMARK    2  A    between atoms: C_2  and  C_4
REMARK    3  A    between atoms: C_5  and  C_6
REMARK    4  A    between atoms: C_20  and  C_21
REMARK                            x       y       z     vdW  Elec       q    Type
REMARK                         _______ _______ _______ _____ _____    ______ ____
ROOT
ATOM      1  C   UNL     1       0.998  11.279  19.892  0.00  0.00    +0.000 A 
ATOM      2  C   UNL     1       1.750  11.283  18.717  0.00  0.00    +0.000 A 
ATOM      3  C   UNL     1       2.244  12.520  18.030  0.00  0.00    +0.000 C 
ATOM      4  N   UNL     1       2.129  10.139  18.083  0.00  0.00    +0.000 NA
ATOM      5  C   UNL     1       1.805   8.963  18.631  0.00  0.00    +0.000 A 
ATOM      6  N   UNL     1       2.301   7.820  18.012  0.00  0.00    +0.000 N 
ATOM      7  C   UNL     1       2.496   6.614  18.596  0.00  0.00    +0.000 A 
ATOM      8  N   UNL     1       3.432   5.788  18.171  0.00  0.00    +0.000 NA
ATOM      9  C   UNL     1       3.514   4.673  18.989  0.00  0.00    +0.000 A 
ATOM     10  C   UNL     1       4.434   3.612  18.869  0.00  0.00    +0.000 A 
ATOM     11  C   UNL     1       4.414   2.561  19.796  0.00  0.00    +0.000 A 
ATOM     12  C   UNL     1       3.492   2.556  20.838  0.00  0.00    +0.000 A 
ATOM     13  C   UNL     1       2.561   3.586  20.972  0.00  0.00    +0.000 A 
ATOM     14  C   UNL     1       2.589   4.627  20.031  0.00  0.00    +0.000 A 
ATOM     15  S   UNL     1       1.568   5.989  19.916  0.00  0.00    +0.000 S 
ATOM     16  N   UNL     1       1.080   8.887  19.746  0.00  0.00    +0.000 NA
ATOM     17  C   UNL     1       0.689  10.016  20.378  0.00  0.00    +0.000 A 
ATOM     18  C   UNL     1      -0.067   9.754  21.648  0.00  0.00    +0.000 C 
ATOM     19  H   UNL     1       2.951   8.083  17.289  0.00  0.00    +0.000 HD
ENDROOT
BRANCH   1  21
ATOM     20  C   UNL     1      -0.738  13.156  20.374  0.00  0.00    +0.000 C 
ATOM     21  C   UNL     1       0.582  12.490  20.653  0.00  0.00    +0.000 C 
ATOM     22  O   UNL     1       1.322  12.941  21.526  0.00  0.00    +0.000 OA
ENDBRANCH   1  21
TORSDOF 1
ENDMDL
MODEL 9
REMARK VINA RESULT:      -6.1      9.135     10.619
REMARK  Name = 
REMARK  4 active torsions:
REMARK  status: ('A' for Active; 'I' for Inactive)
REMARK    1  A    between atoms: C_1  and  C_2
REMARK    2  A    between atoms: C_2  and  C_4
REMARK    3  A    between atoms: C_5  and  C_6
REMARK    4  A    between atoms: C_20  and  C_21
REMARK                            x       y       z     vdW  Elec       q    Type
REMARK                         _______ _______ _______ _____ _____    ______ ____
ROOT
ATOM      1  C   UNL     1       6.766  13.336  25.022  0.00  0.00    +0.000 A 
ATOM      2  C   UNL     1       6.720  11.974  24.725  0.00  0.00    +0.000 A 
ATOM      3  C   UNL     1       5.754  11.004  25.334  0.00  0.00    +0.000 C 
ATOM      4  N   UNL     1       7.554  11.391  23.819  0.00  0.00    +0.000 NA
ATOM      5  C   UNL     1       8.423  12.162  23.157  0.00  0.00    +0.000 A 
ATOM      6  N   UNL     1       9.183  11.549  22.165  0.00  0.00    +0.000 N 
ATOM      7  C   UNL     1       9.758  12.163  21.104  0.00  0.00    +0.000 A 
ATOM      8  N   UNL     1       9.961  11.523  19.968  0.00  0.00    +0.000 NA
ATOM      9  C   UNL     1      10.455  12.382  19.001  0.00  0.00    +0.000 A 
ATOM     10  C   UNL     1      10.736  12.058  17.658  0.00  0.00    +0.000 A 
ATOM     11  C   UNL     1      11.208  13.047  16.784  0.00  0.00    +0.000 A 
ATOM     12  C   UNL     1      11.398  14.351  17.231  0.00  0.00    +0.000 A 
ATOM     13  C   UNL     1      11.141  14.696  18.557  0.00  0.00    +0.000 A 
ATOM     14  C   UNL     1      10.678  13.692  19.422  0.00  0.00    +0.000 A 
ATOM     15  S   UNL     1      10.314  13.801  21.085  0.00  0.00    +0.000 S 
ATOM     16  N   UNL     1       8.527  13.468  23.400  0.00  0.00    +0.000 NA
ATOM     17  C   UNL     1       7.710  14.055  24.304  0.00  0.00    +0.000 A 
ATOM     18  C   UNL     1       7.916  15.538  24.414  0.00  0.00    +0.000 C 
ATOM     19  H   UNL     1       8.854  10.608  22.021  0.00  0.00    +0.000 HD
ENDROOT
BRANCH   1  21
ATOM     20  C   UNL     1       6.202  14.129  27.435  0.00  0.00    +0.000 C 
ATOM     21  C   UNL     1       5.860  14.041  25.973  0.00  0.00    +0.000 C 
ATOM     22  O   UNL     1       4.830  14.565  25.552  0.00  0.00    +0.000 OA
ENDBRANCH   1  21
TORSDOF 1
ENDMDL
