MODEL 1
REMARK VINA RESULT:      -8.9      0.000      0.000
REMARK  Name = 
REMARK  4 active torsions:
REMARK  status: ('A' for Active; 'I' for Inactive)
REMARK    1  A    between atoms: C_1  and  C_2
REMARK    2  A    between atoms: C_11  and  N_12
REMARK    3  A    between atoms: N_12  and  C_13
REMARK    4  A    between atoms: C_15  and  C_16
REMARK                            x       y       z     vdW  Elec       q    Type
REMARK                         _______ _______ _______ _____ _____    ______ ____
ROOT
ATOM      1  C   UNL     1      -0.228  10.095  20.455  0.00  0.00    +0.000 A 
ATOM      2  C   UNL     1      -0.869  10.031  19.276  0.00  0.00    +0.000 A 
ATOM      3  C   UNL     1      -1.964  10.997  18.986  0.00  0.00    +0.000 A 
ATOM      4  N   UNL     1      -2.331  11.959  19.783  0.00  0.00    +0.000 NA
ATOM      5  N   UNL     1      -1.647  11.964  20.960  0.00  0.00    +0.000 N 
ATOM      6  C   UNL     1      -1.836  12.859  21.977  0.00  0.00    +0.000 A 
ATOM      7  C   UNL     1      -0.970  12.475  22.974  0.00  0.00    +0.000 A 
ATOM      8  N   UNL     1      -0.246  11.370  22.600  0.00  0.00    +0.000 NA
ATOM      9  C   UNL     1      -0.661  11.091  21.377  0.00  0.00    +0.000 A 
ENDROOT
BRANCH   3  10
ATOM     10  C   UNL     1      -2.648  10.835  17.670  0.00  0.00    +0.000 A 
ATOM     11  C   UNL     1      -3.827  11.522  17.368  0.00  0.00    +0.000 A 
ATOM     12  C   UNL     1      -4.402  11.304  16.128  0.00  0.00    +0.000 A 
ATOM     13  N   UNL     1      -3.885  10.482  15.196  0.00  0.00    +0.000 NA
ATOM     14  C   UNL     1      -2.730   9.852  15.503  0.00  0.00    +0.000 A 
ATOM     15  C   UNL     1      -2.078   9.997  16.716  0.00  0.00    +0.000 A 
ENDBRANCH   3  10
BRANCH   1  16
ATOM     16  N   UNL     1       0.813   9.240  20.805  0.00  0.00    +0.000 N 
ATOM     17  H   UNL     1       1.465   9.732  21.419  0.00  0.00    +0.000 HD
BRANCH  16  28
ATOM     18  C   UNL     1       0.987   4.316  20.436  0.00  0.00    +0.000 C 
ATOM     19  C   UNL     1       2.501   4.476  20.429  0.00  0.00    +0.000 C 
ATOM     20  C   UNL     1       3.179   3.118  20.177  0.00  0.00    +0.000 C 
ATOM     21  C   UNL     1       4.558   3.519  19.683  0.00  0.00    +0.000 C 
ATOM     22  C   UNL     1       4.291   4.763  18.835  0.00  0.00    +0.000 C 
ATOM     23  N   UNL     1       2.996   5.264  19.298  0.00  0.00    +0.000 N 
ATOM     24  C   UNL     1       2.661   6.589  19.104  0.00  0.00    +0.000 A 
ATOM     25  C   UNL     1       2.962   7.212  17.894  0.00  0.00    +0.000 A 
ATOM     26  C   UNL     1       2.558   8.520  17.656  0.00  0.00    +0.000 A 
ATOM     27  C   UNL     1       1.846   9.189  18.638  0.00  0.00    +0.000 A 
ATOM     28  C   UNL     1       1.559   8.528  19.829  0.00  0.00    +0.000 A 
ATOM     29  N   UNL     1       1.981   7.259  20.060  0.00  0.00    +0.000 NA
ENDBRANCH  16  28
ENDBRANCH   1  16
TORSDOF 3
ENDMDL
MODEL 2
REMARK VINA RESULT:      -8.9      2.106      7.713
REMARK  Name = 
REMARK  4 active torsions:
REMARK  status: ('A' for Active; 'I' for Inactive)
REMARK    1  A    between atoms: C_1  and  C_2
REMARK    2  A    between atoms: C_11  and  N_12
REMARK    3  A    between atoms: N_12  and  C_13
REMARK    4  A    between atoms: C_15  and  C_16
REMARK                            x       y       z     vdW  Elec       q    Type
REMARK                         _______ _______ _______ _____ _____    ______ ____
ROOT
ATOM      1  C   UNL     1      -0.143  10.684  19.581  0.00  0.00    +0.000 A 
ATOM      2  C   UNL     1       0.672   9.765  19.036  0.00  0.00    +0.000 A 
ATOM      3  C   UNL     1       1.276   8.718  19.903  0.00  0.00    +0.000 A 
ATOM      4  N   UNL     1       1.034   8.582  21.175  0.00  0.00    +0.000 NA
ATOM      5  N   UNL     1       0.207   9.546  21.665  0.00  0.00    +0.000 N 
ATOM      6  C   UNL     1      -0.204   9.645  22.966  0.00  0.00    +0.000 A 
ATOM      7  C   UNL     1      -0.991  10.771  23.021  0.00  0.00    +0.000 A 
ATOM      8  N   UNL     1      -1.083  11.370  21.789  0.00  0.00    +0.000 NA
ATOM      9  C   UNL     1      -0.365  10.604  20.986  0.00  0.00    +0.000 A 
ENDROOT
BRANCH   3  10
ATOM     10  C   UNL     1       2.197   7.759  19.226  0.00  0.00    +0.000 A 
ATOM     11  C   UNL     1       2.466   6.497  19.765  0.00  0.00    +0.000 A 
ATOM     12  C   UNL     1       3.343   5.675  19.078  0.00  0.00    +0.000 A 
ATOM     13  N   UNL     1       3.937   6.015  17.920  0.00  0.00    +0.000 NA
ATOM     14  C   UNL     1       3.637   7.228  17.407  0.00  0.00    +0.000 A 
ATOM     15  C   UNL     1       2.779   8.127  18.017  0.00  0.00    +0.000 A 
ENDBRANCH   3  10
BRANCH   1  16
ATOM     16  N   UNL     1      -0.759  11.691  18.844  0.00  0.00    +0.000 N 
ATOM     17  H   UNL     1      -0.765  12.556  19.389  0.00  0.00    +0.000 HD
BRANCH  16  28
ATOM     18  C   UNL     1      -4.915  13.802  20.483  0.00  0.00    +0.000 C 
ATOM     19  C   UNL     1      -5.511  12.401  20.458  0.00  0.00    +0.000 C 
ATOM     20  C   UNL     1      -7.011  12.454  20.792  0.00  0.00    +0.000 C 
ATOM     21  C   UNL     1      -7.528  11.145  20.222  0.00  0.00    +0.000 C 
ATOM     22  C   UNL     1      -6.716  10.964  18.938  0.00  0.00    +0.000 C 
ATOM     23  N   UNL     1      -5.529  11.801  19.123  0.00  0.00    +0.000 N 
ATOM     24  C   UNL     1      -4.381  11.535  18.404  0.00  0.00    +0.000 A 
ATOM     25  C   UNL     1      -4.468  11.192  17.055  0.00  0.00    +0.000 A 
ATOM     26  C   UNL     1      -3.317  11.002  16.302  0.00  0.00    +0.000 A 
ATOM     27  C   UNL     1      -2.084  11.165  16.912  0.00  0.00    +0.000 A 
ATOM     28  C   UNL     1      -2.040  11.515  18.258  0.00  0.00    +0.000 A 
ATOM     29  N   UNL     1      -3.172  11.674  18.991  0.00  0.00    +0.000 NA
ENDBRANCH  16  28
ENDBRANCH   1  16
TORSDOF 3
ENDMDL
MODEL 3
REMARK VINA RESULT:      -8.6      2.171      8.370
REMARK  Name = 
REMARK  4 active torsions:
REMARK  status: ('A' for Active; 'I' for Inactive)
REMARK    1  A    between atoms: C_1  and  C_2
REMARK    2  A    between atoms: C_11  and  N_12
REMARK    3  A    between atoms: N_12  and  C_13
REMARK    4  A    between atoms: C_15  and  C_16
REMARK                            x       y       z     vdW  Elec       q    Type
REMARK                         _______ _______ _______ _____ _____    ______ ____
ROOT
ATOM      1  C   UNL     1       2.606   5.883  19.729  0.00  0.00    +0.000 A 
ATOM      2  C   UNL     1       3.614   5.981  18.845  0.00  0.00    +0.000 A 
ATOM      3  C   UNL     1       4.169   4.744  18.230  0.00  0.00    +0.000 A 
ATOM      4  N   UNL     1       3.713   3.544  18.443  0.00  0.00    +0.000 NA
ATOM      5  N   UNL     1       2.697   3.514  19.351  0.00  0.00    +0.000 N 
ATOM      6  C   UNL     1       2.042   2.387  19.764  0.00  0.00    +0.000 A 
ATOM      7  C   UNL     1       1.128   2.811  20.699  0.00  0.00    +0.000 A 
ATOM      8  N   UNL     1       1.196   4.172  20.873  0.00  0.00    +0.000 NA
ATOM      9  C   UNL     1       2.138   4.574  20.038  0.00  0.00    +0.000 A 
ENDROOT
BRANCH   3  10
ATOM     10  C   UNL     1       5.309   4.937  17.287  0.00  0.00    +0.000 A 
ATOM     11  C   UNL     1       5.491   4.106  16.178  0.00  0.00    +0.000 A 
ATOM     12  C   UNL     1       6.583   4.348  15.362  0.00  0.00    +0.000 A 
ATOM     13  N   UNL     1       7.467   5.341  15.568  0.00  0.00    +0.000 NA
ATOM     14  C   UNL     1       7.251   6.147  16.632  0.00  0.00    +0.000 A 
ATOM     15  C   UNL     1       6.194   5.987  17.511  0.00  0.00    +0.000 A 
ENDBRANCH   3  10
BRANCH   1  16
ATOM     16  N   UNL     1       2.021   6.986  20.343  0.00  0.00    +0.000 N 
ATOM     17  H   UNL     1       1.196   6.686  20.868  0.00  0.00    +0.000 HD
BRANCH  16  28
ATOM     18  C   UNL     1       0.052  11.058  22.333  0.00  0.00    +0.000 C 
ATOM     19  C   UNL     1      -0.997  10.959  21.234  0.00  0.00    +0.000 C 
ATOM     20  C   UNL     1      -1.926  12.184  21.274  0.00  0.00    +0.000 C 
ATOM     21  C   UNL     1      -2.518  12.200  19.875  0.00  0.00    +0.000 C 
ATOM     22  C   UNL     1      -1.356  11.758  18.985  0.00  0.00    +0.000 C 
ATOM     23  N   UNL     1      -0.437  11.059  19.885  0.00  0.00    +0.000 N 
ATOM     24  C   UNL     1       0.461  10.144  19.377  0.00  0.00    +0.000 A 
ATOM     25  C   UNL     1       1.139  10.420  18.190  0.00  0.00    +0.000 A 
ATOM     26  C   UNL     1       2.105   9.544  17.711  0.00  0.00    +0.000 A 
ATOM     27  C   UNL     1       2.386   8.397  18.435  0.00  0.00    +0.000 A 
ATOM     28  C   UNL     1       1.693   8.162  19.619  0.00  0.00    +0.000 A 
ATOM     29  N   UNL     1       0.734   9.013  20.064  0.00  0.00    +0.000 NA
ENDBRANCH  16  28
ENDBRANCH   1  16
TORSDOF 3
ENDMDL
MODEL 4
REMARK VINA RESULT:      -8.6      1.215      1.219
REMARK  Name = 
REMARK  4 active torsions:
REMARK  status: ('A' for Active; 'I' for Inactive)
REMARK    1  A    between atoms: C_1  and  C_2
REMARK    2  A    between atoms: C_11  and  N_12
REMARK    3  A    between atoms: N_12  and  C_13
REMARK    4  A    between atoms: C_15  and  C_16
REMARK                            x       y       z     vdW  Elec       q    Type
REMARK                         _______ _______ _______ _____ _____    ______ ____
ROOT
ATOM      1  C   UNL     1       0.406  10.084  19.834  0.00  0.00    +0.000 A 
ATOM      2  C   UNL     1      -0.553   9.955  18.902  0.00  0.00    +0.000 A 
ATOM      3  C   UNL     1      -1.261  11.168  18.408  0.00  0.00    +0.000 A 
ATOM      4  N   UNL     1      -0.985  12.385  18.777  0.00  0.00    +0.000 NA
ATOM      5  N   UNL     1      -0.009  12.446  19.725  0.00  0.00    +0.000 N 
ATOM      6  C   UNL     1       0.468  13.595  20.292  0.00  0.00    +0.000 A 
ATOM      7  C   UNL     1       1.407  13.192  21.212  0.00  0.00    +0.000 A 
ATOM      8  N   UNL     1       1.529  11.825  21.227  0.00  0.00    +0.000 NA
ATOM      9  C   UNL     1       0.676  11.399  20.311  0.00  0.00    +0.000 A 
ENDROOT
BRANCH   3  10
ATOM     10  C   UNL     1      -2.336  10.933  17.401  0.00  0.00    +0.000 A 
ATOM     11  C   UNL     1      -3.571  11.582  17.484  0.00  0.00    +0.000 A 
ATOM     12  C   UNL     1      -4.517  11.297  16.514  0.00  0.00    +0.000 A 
ATOM     13  N   UNL     1      -4.311  10.443  15.495  0.00  0.00    +0.000 NA
ATOM     14  C   UNL     1      -3.099   9.850  15.423  0.00  0.00    +0.000 A 
ATOM     15  C   UNL     1      -2.087  10.063  16.343  0.00  0.00    +0.000 A 
ENDBRANCH   3  10
BRANCH   1  16
ATOM     16  N   UNL     1       1.125   9.007  20.344  0.00  0.00    +0.000 N 
ATOM     17  H   UNL     1       1.710   9.325  21.120  0.00  0.00    +0.000 HD
BRANCH  16  28
ATOM     18  C   UNL     1       0.854   4.073  20.315  0.00  0.00    +0.000 C 
ATOM     19  C   UNL     1       2.368   4.095  20.473  0.00  0.00    +0.000 C 
ATOM     20  C   UNL     1       2.932   2.667  20.390  0.00  0.00    +0.000 C 
ATOM     21  C   UNL     1       4.390   2.903  20.035  0.00  0.00    +0.000 C 
ATOM     22  C   UNL     1       4.341   4.099  19.083  0.00  0.00    +0.000 C 
ATOM     23  N   UNL     1       3.059   4.748  19.360  0.00  0.00    +0.000 N 
ATOM     24  C   UNL     1       2.879   6.079  19.044  0.00  0.00    +0.000 A 
ATOM     25  C   UNL     1       3.371   6.581  17.839  0.00  0.00    +0.000 A 
ATOM     26  C   UNL     1       3.125   7.898  17.473  0.00  0.00    +0.000 A 
ATOM     27  C   UNL     1       2.380   8.700  18.320  0.00  0.00    +0.000 A 
ATOM     28  C   UNL     1       1.900   8.160  19.509  0.00  0.00    +0.000 A 
ATOM     29  N   UNL     1       2.167   6.878  19.869  0.00  0.00    +0.000 NA
ENDBRANCH  16  28
ENDBRANCH   1  16
TORSDOF 3
ENDMDL
MODEL 5
REMARK VINA RESULT:      -8.6      2.158      3.408
REMARK  Name = 
REMARK  4 active torsions:
REMARK  status: ('A' for Active; 'I' for Inactive)
REMARK    1  A    between atoms: C_1  and  C_2
REMARK    2  A    between atoms: C_11  and  N_12
REMARK    3  A    between atoms: N_12  and  C_13
REMARK    4  A    between atoms: C_15  and  C_16
REMARK                            x       y       z     vdW  Elec       q    Type
REMARK                         _______ _______ _______ _____ _____    ______ ____
ROOT
ATOM      1  C   UNL     1       1.266   9.163  18.820  0.00  0.00    +0.000 A 
ATOM      2  C   UNL     1       0.270   9.538  18.000  0.00  0.00    +0.000 A 
ATOM      3  C   UNL     1      -1.009  10.031  18.580  0.00  0.00    +0.000 A 
ATOM      4  N   UNL     1      -1.232  10.182  19.853  0.00  0.00    +0.000 NA
ATOM      5  N   UNL     1      -0.187   9.780  20.628  0.00  0.00    +0.000 N 
ATOM      6  C   UNL     1      -0.157   9.822  21.995  0.00  0.00    +0.000 A 
ATOM      7  C   UNL     1       1.060   9.294  22.356  0.00  0.00    +0.000 A 
ATOM      8  N   UNL     1       1.787   8.929  21.249  0.00  0.00    +0.000 NA
ATOM      9  C   UNL     1       1.021   9.248  20.220  0.00  0.00    +0.000 A 
ENDROOT
BRANCH   3  10
ATOM     10  C   UNL     1      -2.075  10.393  17.602  0.00  0.00    +0.000 A 
ATOM     11  C   UNL     1      -2.080   9.880  16.301  0.00  0.00    +0.000 A 
ATOM     12  C   UNL     1      -3.100  10.277  15.454  0.00  0.00    +0.000 A 
ATOM     13  N   UNL     1      -4.089  11.116  15.814  0.00  0.00    +0.000 NA
ATOM     14  C   UNL     1      -4.076  11.574  17.085  0.00  0.00    +0.000 A 
ATOM     15  C   UNL     1      -3.100  11.242  18.008  0.00  0.00    +0.000 A 
ENDBRANCH   3  10
BRANCH   1  16
ATOM     16  N   UNL     1       2.497   8.701  18.364  0.00  0.00    +0.000 N 
ATOM     17  H   UNL     1       2.749   9.195  17.505  0.00  0.00    +0.000 HD
BRANCH  16  28
ATOM     18  C   UNL     1       6.958   6.776  17.464  0.00  0.00    +0.000 C 
ATOM     19  C   UNL     1       6.297   6.063  16.292  0.00  0.00    +0.000 C 
ATOM     20  C   UNL     1       7.291   5.097  15.627  0.00  0.00    +0.000 C 
ATOM     21  C   UNL     1       6.379   4.135  14.887  0.00  0.00    +0.000 C 
ATOM     22  C   UNL     1       5.185   3.972  15.828  0.00  0.00    +0.000 C 
ATOM     23  N   UNL     1       5.227   5.149  16.696  0.00  0.00    +0.000 N 
ATOM     24  C   UNL     1       4.079   5.574  17.335  0.00  0.00    +0.000 A 
ATOM     25  C   UNL     1       3.216   4.641  17.907  0.00  0.00    +0.000 A 
ATOM     26  C   UNL     1       2.101   5.060  18.623  0.00  0.00    +0.000 A 
ATOM     27  C   UNL     1       1.868   6.418  18.763  0.00  0.00    +0.000 A 
ATOM     28  C   UNL     1       2.758   7.317  18.184  0.00  0.00    +0.000 A 
ATOM     29  N   UNL     1       3.831   6.896  17.466  0.00  0.00    +0.000 NA
ENDBRANCH  16  28
ENDBRANCH   1  16
TORSDOF 3
ENDMDL
MODEL 6
REMARK VINA RESULT:      -8.5      4.255      8.990
REMARK  Name = 
REMARK  4 active torsions:
REMARK  status: ('A' for Active; 'I' for Inactive)
REMARK    1  A    between atoms: C_1  and  C_2
REMARK    2  A    between atoms: C_11  and  N_12
REMARK    3  A    between atoms: N_12  and  C_13
REMARK    4  A    between atoms: C_15  and  C_16
REMARK                            x       y       z     vdW  Elec       q    Type
REMARK                         _______ _______ _______ _____ _____    ______ ____
ROOT
ATOM      1  C   UNL     1       5.542   3.711  17.893  0.00  0.00    +0.000 A 
ATOM      2  C   UNL     1       5.559   3.580  16.556  0.00  0.00    +0.000 A 
ATOM      3  C   UNL     1       6.426   4.478  15.744  0.00  0.00    +0.000 A 
ATOM      4  N   UNL     1       7.232   5.371  16.239  0.00  0.00    +0.000 NA
ATOM      5  N   UNL     1       7.163   5.456  17.597  0.00  0.00    +0.000 N 
ATOM      6  C   UNL     1       7.894   6.315  18.371  0.00  0.00    +0.000 A 
ATOM      7  C   UNL     1       7.485   6.087  19.663  0.00  0.00    +0.000 A 
ATOM      8  N   UNL     1       6.524   5.108  19.713  0.00  0.00    +0.000 NA
ATOM      9  C   UNL     1       6.359   4.733  18.456  0.00  0.00    +0.000 A 
ENDROOT
BRANCH   3  10
ATOM     10  C   UNL     1       6.359   4.291  14.266  0.00  0.00    +0.000 A 
ATOM     11  C   UNL     1       5.268   3.663  13.656  0.00  0.00    +0.000 A 
ATOM     12  C   UNL     1       5.293   3.520  12.279  0.00  0.00    +0.000 A 
ATOM     13  N   UNL     1       6.296   3.960  11.498  0.00  0.00    +0.000 NA
ATOM     14  C   UNL     1       7.324   4.587  12.110  0.00  0.00    +0.000 A 
ATOM     15  C   UNL     1       7.399   4.777  13.479  0.00  0.00    +0.000 A 
ENDBRANCH   3  10
BRANCH   1  16
ATOM     16  N   UNL     1       4.771   2.909  18.728  0.00  0.00    +0.000 N 
ATOM     17  H   UNL     1       4.609   2.005  18.278  0.00  0.00    +0.000 HD
BRANCH  16  28
ATOM     18  C   UNL     1       2.650   7.249  17.687  0.00  0.00    +0.000 C 
ATOM     19  C   UNL     1       2.573   7.452  19.194  0.00  0.00    +0.000 C 
ATOM     20  C   UNL     1       1.796   8.739  19.519  0.00  0.00    +0.000 C 
ATOM     21  C   UNL     1       1.364   8.516  20.958  0.00  0.00    +0.000 C 
ATOM     22  C   UNL     1       1.043   7.022  21.011  0.00  0.00    +0.000 C 
ATOM     23  N   UNL     1       1.762   6.441  19.876  0.00  0.00    +0.000 N 
ATOM     24  C   UNL     1       2.085   5.099  19.879  0.00  0.00    +0.000 A 
ATOM     25  C   UNL     1       1.157   4.162  20.333  0.00  0.00    +0.000 A 
ATOM     26  C   UNL     1       1.438   2.804  20.265  0.00  0.00    +0.000 A 
ATOM     27  C   UNL     1       2.651   2.398  19.733  0.00  0.00    +0.000 A 
ATOM     28  C   UNL     1       3.545   3.363  19.283  0.00  0.00    +0.000 A 
ATOM     29  N   UNL     1       3.270   4.690  19.378  0.00  0.00    +0.000 NA
ENDBRANCH  16  28
ENDBRANCH   1  16
TORSDOF 3
ENDMDL
MODEL 7
REMARK VINA RESULT:      -8.4      2.588      8.394
REMARK  Name = 
REMARK  4 active torsions:
REMARK  status: ('A' for Active; 'I' for Inactive)
REMARK    1  A    between atoms: C_1  and  C_2
REMARK    2  A    between atoms: C_11  and  N_12
REMARK    3  A    between atoms: N_12  and  C_13
REMARK    4  A    between atoms: C_15  and  C_16
REMARK                            x       y       z     vdW  Elec       q    Type
REMARK                         _______ _______ _______ _____ _____    ______ ____
ROOT
ATOM      1  C   UNL     1       2.650   5.421  19.154  0.00  0.00    +0.000 A 
ATOM      2  C   UNL     1       3.691   5.573  18.318  0.00  0.00    +0.000 A 
ATOM      3  C   UNL     1       4.055   4.462  17.395  0.00  0.00    +0.000 A 
ATOM      4  N   UNL     1       3.399   3.344  17.291  0.00  0.00    +0.000 NA
ATOM      5  N   UNL     1       2.360   3.252  18.168  0.00  0.00    +0.000 N 
ATOM      6  C   UNL     1       1.513   2.184  18.277  0.00  0.00    +0.000 A 
ATOM      7  C   UNL     1       0.649   2.499  19.298  0.00  0.00    +0.000 A 
ATOM      8  N   UNL     1       0.934   3.736  19.822  0.00  0.00    +0.000 NA
ATOM      9  C   UNL     1       1.960   4.176  19.113  0.00  0.00    +0.000 A 
ENDROOT
BRANCH   3  10
ATOM     10  C   UNL     1       5.244   4.698  16.527  0.00  0.00    +0.000 A 
ATOM     11  C   UNL     1       6.350   5.424  16.979  0.00  0.00    +0.000 A 
ATOM     12  C   UNL     1       7.406   5.606  16.103  0.00  0.00    +0.000 A 
ATOM     13  N   UNL     1       7.434   5.114  14.851  0.00  0.00    +0.000 NA
ATOM     14  C   UNL     1       6.365   4.392  14.449  0.00  0.00    +0.000 A 
ATOM     15  C   UNL     1       5.257   4.157  15.244  0.00  0.00    +0.000 A 
ENDBRANCH   3  10
BRANCH   1  16
ATOM     16  N   UNL     1       2.234   6.409  20.041  0.00  0.00    +0.000 N 
ATOM     17  H   UNL     1       1.477   6.046  20.625  0.00  0.00    +0.000 HD
BRANCH  16  28
ATOM     18  C   UNL     1       0.691  10.054  22.998  0.00  0.00    +0.000 C 
ATOM     19  C   UNL     1      -0.480  10.197  22.035  0.00  0.00    +0.000 C 
ATOM     20  C   UNL     1      -1.341  11.411  22.420  0.00  0.00    +0.000 C 
ATOM     21  C   UNL     1      -2.087  11.715  21.133  0.00  0.00    +0.000 C 
ATOM     22  C   UNL     1      -1.054  11.430  20.041  0.00  0.00    +0.000 C 
ATOM     23  N   UNL     1      -0.073  10.548  20.673  0.00  0.00    +0.000 N 
ATOM     24  C   UNL     1       0.720   9.729  19.894  0.00  0.00    +0.000 A 
ATOM     25  C   UNL     1       1.271  10.218  18.710  0.00  0.00    +0.000 A 
ATOM     26  C   UNL     1       2.135   9.431  17.959  0.00  0.00    +0.000 A 
ATOM     27  C   UNL     1       2.444   8.159  18.410  0.00  0.00    +0.000 A 
ATOM     28  C   UNL     1       1.880   7.712  19.601  0.00  0.00    +0.000 A 
ATOM     29  N   UNL     1       1.017   8.480  20.314  0.00  0.00    +0.000 NA
ENDBRANCH  16  28
ENDBRANCH   1  16
TORSDOF 3
ENDMDL
MODEL 8
REMARK VINA RESULT:      -8.2      2.851      7.937
REMARK  Name = 
REMARK  4 active torsions:
REMARK  status: ('A' for Active; 'I' for Inactive)
REMARK    1  A    between atoms: C_1  and  C_2
REMARK    2  A    between atoms: C_11  and  N_12
REMARK    3  A    between atoms: N_12  and  C_13
REMARK    4  A    between atoms: C_15  and  C_16
REMARK                            x       y       z     vdW  Elec       q    Type
REMARK                         _______ _______ _______ _____ _____    ______ ____
ROOT
ATOM      1  C   UNL     1      -0.712  11.013  19.952  0.00  0.00    +0.000 A 
ATOM      2  C   UNL     1      -1.322  11.856  20.801  0.00  0.00    +0.000 A 
ATOM      3  C   UNL     1      -1.073  11.728  22.263  0.00  0.00    +0.000 A 
ATOM      4  N   UNL     1      -0.250  10.875  22.800  0.00  0.00    +0.000 NA
ATOM      5  N   UNL     1       0.330  10.048  21.887  0.00  0.00    +0.000 N 
ATOM      6  C   UNL     1       1.227   9.058  22.179  0.00  0.00    +0.000 A 
ATOM      7  C   UNL     1       1.521   8.459  20.977  0.00  0.00    +0.000 A 
ATOM      8  N   UNL     1       0.835   9.054  19.947  0.00  0.00    +0.000 NA
ATOM      9  C   UNL     1       0.136  10.020  20.520  0.00  0.00    +0.000 A 
ENDROOT
BRANCH   3  10
ATOM     10  C   UNL     1      -1.817  12.680  23.139  0.00  0.00    +0.000 A 
ATOM     11  C   UNL     1      -3.112  12.403  23.587  0.00  0.00    +0.000 A 
ATOM     12  C   UNL     1      -3.735  13.347  24.386  0.00  0.00    +0.000 A 
ATOM     13  N   UNL     1      -3.161  14.504  24.765  0.00  0.00    +0.000 NA
ATOM     14  C   UNL     1      -1.898  14.733  24.341  0.00  0.00    +0.000 A 
ATOM     15  C   UNL     1      -1.191  13.858  23.536  0.00  0.00    +0.000 A 
ENDBRANCH   3  10
BRANCH   1  16
ATOM     16  N   UNL     1      -0.879  11.067  18.572  0.00  0.00    +0.000 N 
ATOM     17  H   UNL     1      -0.296  11.814  18.187  0.00  0.00    +0.000 HD
BRANCH  16  28
ATOM     18  C   UNL     1      -4.693  13.610  20.418  0.00  0.00    +0.000 C 
ATOM     19  C   UNL     1      -5.491  12.323  20.257  0.00  0.00    +0.000 C 
ATOM     20  C   UNL     1      -6.970  12.569  20.598  0.00  0.00    +0.000 C 
ATOM     21  C   UNL     1      -7.671  11.415  19.903  0.00  0.00    +0.000 C 
ATOM     22  C   UNL     1      -6.879  11.239  18.607  0.00  0.00    +0.000 C 
ATOM     23  N   UNL     1      -5.582  11.866  18.870  0.00  0.00    +0.000 N 
ATOM     24  C   UNL     1      -4.478  11.502  18.126  0.00  0.00    +0.000 A 
ATOM     25  C   UNL     1      -4.598  11.309  16.750  0.00  0.00    +0.000 A 
ATOM     26  C   UNL     1      -3.479  11.022  15.980  0.00  0.00    +0.000 A 
ATOM     27  C   UNL     1      -2.243  10.938  16.600  0.00  0.00    +0.000 A 
ATOM     28  C   UNL     1      -2.165  11.144  17.974  0.00  0.00    +0.000 A 
ATOM     29  N   UNL     1      -3.269  11.400  18.721  0.00  0.00    +0.000 NA
ENDBRANCH  16  28
ENDBRANCH   1  16
TORSDOF 3
ENDMDL
MODEL 9
REMARK VINA RESULT:      -8.1      1.893      7.749
REMARK  Name = 
REMARK  4 active torsions:
REMARK  status: ('A' for Active; 'I' for Inactive)
REMARK    1  A    between atoms: C_1  and  C_2
REMARK    2  A    between atoms: C_11  and  N_12
REMARK    3  A    between atoms: N_12  and  C_13
REMARK    4  A    between atoms: C_15  and  C_16
REMARK                            x       y       z     vdW  Elec       q    Type
REMARK                         _______ _______ _______ _____ _____    ______ ____
ROOT
ATOM      1  C   UNL     1       0.761   9.922  18.850  0.00  0.00    +0.000 A 
ATOM      2  C   UNL     1       1.453   8.957  18.221  0.00  0.00    +0.000 A 
ATOM      3  C   UNL     1       2.067   7.860  19.018  0.00  0.00    +0.000 A 
ATOM      4  N   UNL     1       1.943   7.724  20.306  0.00  0.00    +0.000 NA
ATOM      5  N   UNL     1       1.236   8.736  20.882  0.00  0.00    +0.000 N 
ATOM      6  C   UNL     1       0.964   8.846  22.218  0.00  0.00    +0.000 A 
ATOM      7  C   UNL     1       0.266  10.023  22.357  0.00  0.00    +0.000 A 
ATOM      8  N   UNL     1       0.094  10.642  21.144  0.00  0.00    +0.000 NA
ATOM      9  C   UNL     1       0.674   9.839  20.269  0.00  0.00    +0.000 A 
ENDROOT
BRANCH   3  10
ATOM     10  C   UNL     1       2.847   6.849  18.247  0.00  0.00    +0.000 A 
ATOM     11  C   UNL     1       3.978   7.206  17.506  0.00  0.00    +0.000 A 
ATOM     12  C   UNL     1       4.637   6.207  16.810  0.00  0.00    +0.000 A 
ATOM     13  N   UNL     1       4.259   4.916  16.816  0.00  0.00    +0.000 NA
ATOM     14  C   UNL     1       3.179   4.593  17.562  0.00  0.00    +0.000 A 
ATOM     15  C   UNL     1       2.449   5.516  18.290  0.00  0.00    +0.000 A 
ENDBRANCH   3  10
BRANCH   1  16
ATOM     16  N   UNL     1       0.147  10.978  18.183  0.00  0.00    +0.000 N 
ATOM     17  H   UNL     1       0.542  11.862  18.509  0.00  0.00    +0.000 HD
BRANCH  16  28
ATOM     18  C   UNL     1      -2.444  14.546  20.413  0.00  0.00    +0.000 C 
ATOM     19  C   UNL     1      -3.295  13.422  20.988  0.00  0.00    +0.000 C 
ATOM     20  C   UNL     1      -4.489  14.003  21.764  0.00  0.00    +0.000 C 
ATOM     21  C   UNL     1      -5.466  12.840  21.796  0.00  0.00    +0.000 C 
ATOM     22  C   UNL     1      -5.289  12.182  20.427  0.00  0.00    +0.000 C 
ATOM     23  N   UNL     1      -3.973  12.624  19.964  0.00  0.00    +0.000 N 
ATOM     24  C   UNL     1      -3.291  11.885  19.018  0.00  0.00    +0.000 A 
ATOM     25  C   UNL     1      -3.978  11.346  17.931  0.00  0.00    +0.000 A 
ATOM     26  C   UNL     1      -3.290  10.670  16.930  0.00  0.00    +0.000 A 
ATOM     27  C   UNL     1      -1.914  10.548  17.029  0.00  0.00    +0.000 A 
ATOM     28  C   UNL     1      -1.266  11.107  18.125  0.00  0.00    +0.000 A 
ATOM     29  N   UNL     1      -1.951  11.744  19.110  0.00  0.00    +0.000 NA
ENDBRANCH  16  28
ENDBRANCH   1  16
TORSDOF 3
ENDMDL
