MODEL 1
REMARK VINA RESULT:      -8.0      0.000      0.000
REMARK  Name = 
REMARK  5 active torsions:
REMARK  status: ('A' for Active; 'I' for Inactive)
REMARK    1  A    between atoms: C_1  and  C_2
REMARK    2  A    between atoms: C_4  and  N_5
REMARK    3  A    between atoms: C_11  and  O_12
REMARK    4  A    between atoms: C_11  and  C_13
REMARK    5  A    between atoms: C_22  and  C_23
REMARK                            x       y       z     vdW  Elec       q    Type
REMARK                         _______ _______ _______ _____ _____    ______ ____
ROOT
ATOM      1  N   UNL     1       4.696   5.685  18.233  0.00  0.00    +0.000 N 
ATOM      2  C   UNL     1       4.478   4.817  17.096  0.00  0.00    +0.000 C 
ATOM      3  C   UNL     1       4.230   5.869  15.984  0.00  0.00    +0.000 C 
ATOM      4  C   UNL     1       4.979   7.137  16.413  0.00  0.00    +0.000 C 
ATOM      5  C   UNL     1       5.607   6.741  17.743  0.00  0.00    +0.000 C 
ATOM      6  C   UNL     1       7.017   6.130  17.471  0.00  0.00    +0.000 C 
ATOM      7  C   UNL     1       7.027   4.745  16.745  0.00  0.00    +0.000 C 
ATOM      8  C   UNL     1       5.757   3.965  17.153  0.00  0.00    +0.000 C 
ENDROOT
BRANCH   1  12
ATOM      9  C   UNL     1       1.621   3.540  21.304  0.00  0.00    +0.000 C 
ATOM     10  C   UNL     1       2.147   4.754  20.625  0.00  0.00    +0.000 A 
ATOM     11  C   UNL     1       3.224   4.653  19.774  0.00  0.00    +0.000 A 
ATOM     12  C   UNL     1       3.673   5.791  19.155  0.00  0.00    +0.000 A 
ATOM     13  N   UNL     1       3.054   6.982  19.376  0.00  0.00    +0.000 NA
ATOM     14  C   UNL     1       2.000   7.016  20.230  0.00  0.00    +0.000 A 
ATOM     15  N   UNL     1       1.524   5.926  20.862  0.00  0.00    +0.000 NA
BRANCH  14  16
ATOM     16  C   UNL     1       1.336   8.309  20.570  0.00  0.00    +0.000 A 
ATOM     17  C   UNL     1       0.904   8.663  21.863  0.00  0.00    +0.000 A 
ATOM     18  C   UNL     1       0.227   9.876  22.111  0.00  0.00    +0.000 A 
ATOM     19  C   UNL     1      -0.029  10.773  21.069  0.00  0.00    +0.000 A 
ATOM     20  C   UNL     1       0.415  10.471  19.786  0.00  0.00    +0.000 A 
ATOM     21  C   UNL     1       1.091   9.266  19.553  0.00  0.00    +0.000 A 
ENDBRANCH  14  16
ENDBRANCH   1  12
BRANCH   7  22
ATOM     22  C   UNL     1       7.181   4.611  15.225  0.00  0.00    +0.000 A 
ATOM     23  C   UNL     1       8.027   5.388  14.428  0.00  0.00    +0.000 A 
ATOM     24  C   UNL     1       7.910   5.353  13.030  0.00  0.00    +0.000 A 
ATOM     25  C   UNL     1       6.984   4.512  12.422  0.00  0.00    +0.000 A 
ATOM     26  F   UNL     1       6.830   4.539  11.092  0.00  0.00    +0.000 F 
ATOM     27  C   UNL     1       6.221   3.642  13.176  0.00  0.00    +0.000 A 
ATOM     28  C   UNL     1       6.351   3.669  14.560  0.00  0.00    +0.000 A 
ENDBRANCH   7  22
BRANCH   7  29
ATOM     29  O   UNL     1       8.180   4.045  17.267  0.00  0.00    +0.000 OA
ATOM     30  H   UNL     1       8.586   3.567  16.522  0.00  0.00    +0.000 HD
ENDBRANCH   7  29
TORSDOF 4
ENDMDL
MODEL 2
REMARK VINA RESULT:      -7.8      4.977      9.550
REMARK  Name = 
REMARK  5 active torsions:
REMARK  status: ('A' for Active; 'I' for Inactive)
REMARK    1  A    between atoms: C_1  and  C_2
REMARK    2  A    between atoms: C_4  and  N_5
REMARK    3  A    between atoms: C_11  and  O_12
REMARK    4  A    between atoms: C_11  and  C_13
REMARK    5  A    between atoms: C_22  and  C_23
REMARK                            x       y       z     vdW  Elec       q    Type
REMARK                         _______ _______ _______ _____ _____    ______ ____
ROOT
ATOM      1  N   UNL     1       1.045   9.746  18.911  0.00  0.00    +0.000 N 
ATOM      2  C   UNL     1      -0.326   9.584  19.342  0.00  0.00    +0.000 C 
ATOM      3  C   UNL     1      -0.203  10.000  20.830  0.00  0.00    +0.000 C 
ATOM      4  C   UNL     1       0.985  10.967  20.913  0.00  0.00    +0.000 C 
ATOM      5  C   UNL     1       1.475  11.044  19.473  0.00  0.00    +0.000 C 
ATOM      6  C   UNL     1       0.722  12.203  18.748  0.00  0.00    +0.000 C 
ATOM      7  C   UNL     1      -0.805  11.969  18.501  0.00  0.00    +0.000 C 
ATOM      8  C   UNL     1      -1.045  10.457  18.300  0.00  0.00    +0.000 C 
ENDROOT
BRANCH   1  12
ATOM      9  C   UNL     1       4.579   7.416  16.551  0.00  0.00    +0.000 C 
ATOM     10  C   UNL     1       3.485   7.444  17.559  0.00  0.00    +0.000 A 
ATOM     11  C   UNL     1       2.804   8.615  17.801  0.00  0.00    +0.000 A 
ATOM     12  C   UNL     1       1.792   8.600  18.726  0.00  0.00    +0.000 A 
ATOM     13  N   UNL     1       1.472   7.446  19.374  0.00  0.00    +0.000 NA
ATOM     14  C   UNL     1       2.185   6.327  19.093  0.00  0.00    +0.000 A 
ATOM     15  N   UNL     1       3.187   6.293  18.194  0.00  0.00    +0.000 NA
BRANCH  14  16
ATOM     16  C   UNL     1       1.930   5.056  19.834  0.00  0.00    +0.000 A 
ATOM     17  C   UNL     1       2.362   4.804  21.150  0.00  0.00    +0.000 A 
ATOM     18  C   UNL     1       2.143   3.558  21.775  0.00  0.00    +0.000 A 
ATOM     19  C   UNL     1       1.476   2.531  21.100  0.00  0.00    +0.000 A 
ATOM     20  C   UNL     1       1.004   2.758  19.812  0.00  0.00    +0.000 A 
ATOM     21  C   UNL     1       1.223   4.000  19.203  0.00  0.00    +0.000 A 
ENDBRANCH  14  16
ENDBRANCH   1  12
BRANCH   7  22
ATOM     22  C   UNL     1      -1.885  12.484  19.462  0.00  0.00    +0.000 A 
ATOM     23  C   UNL     1      -1.645  13.213  20.630  0.00  0.00    +0.000 A 
ATOM     24  C   UNL     1      -2.676  13.419  21.559  0.00  0.00    +0.000 A 
ATOM     25  C   UNL     1      -3.958  12.940  21.306  0.00  0.00    +0.000 A 
ATOM     26  F   UNL     1      -4.916  13.079  22.230  0.00  0.00    +0.000 F 
ATOM     27  C   UNL     1      -4.255  12.325  20.106  0.00  0.00    +0.000 A 
ATOM     28  C   UNL     1      -3.233  12.136  19.182  0.00  0.00    +0.000 A 
ENDBRANCH   7  22
BRANCH   7  29
ATOM     29  O   UNL     1      -1.102  12.649  17.260  0.00  0.00    +0.000 OA
ATOM     30  H   UNL     1      -0.275  13.065  16.957  0.00  0.00    +0.000 HD
ENDBRANCH   7  29
TORSDOF 4
ENDMDL
MODEL 3
REMARK VINA RESULT:      -7.6      4.996      9.630
REMARK  Name = 
REMARK  5 active torsions:
REMARK  status: ('A' for Active; 'I' for Inactive)
REMARK    1  A    between atoms: C_1  and  C_2
REMARK    2  A    between atoms: C_4  and  N_5
REMARK    3  A    between atoms: C_11  and  O_12
REMARK    4  A    between atoms: C_11  and  C_13
REMARK    5  A    between atoms: C_22  and  C_23
REMARK                            x       y       z     vdW  Elec       q    Type
REMARK                         _______ _______ _______ _____ _____    ______ ____
ROOT
ATOM      1  N   UNL     1       1.066   9.694  18.911  0.00  0.00    +0.000 N 
ATOM      2  C   UNL     1      -0.332   9.513  19.235  0.00  0.00    +0.000 C 
ATOM      3  C   UNL     1      -0.312   9.832  20.751  0.00  0.00    +0.000 C 
ATOM      4  C   UNL     1       0.869  10.785  20.979  0.00  0.00    +0.000 C 
ATOM      5  C   UNL     1       1.458  10.951  19.584  0.00  0.00    +0.000 C 
ATOM      6  C   UNL     1       0.760  12.159  18.884  0.00  0.00    +0.000 C 
ATOM      7  C   UNL     1      -0.747  11.950  18.518  0.00  0.00    +0.000 C 
ATOM      8  C   UNL     1      -0.976  10.455  18.203  0.00  0.00    +0.000 C 
ENDROOT
BRANCH   1  12
ATOM      9  C   UNL     1       4.645   7.449  16.537  0.00  0.00    +0.000 C 
ATOM     10  C   UNL     1       3.538   7.443  17.530  0.00  0.00    +0.000 A 
ATOM     11  C   UNL     1       2.846   8.603  17.795  0.00  0.00    +0.000 A 
ATOM     12  C   UNL     1       1.822   8.557  18.705  0.00  0.00    +0.000 A 
ATOM     13  N   UNL     1       1.500   7.385  19.317  0.00  0.00    +0.000 NA
ATOM     14  C   UNL     1       2.223   6.277  19.016  0.00  0.00    +0.000 A 
ATOM     15  N   UNL     1       3.238   6.274  18.130  0.00  0.00    +0.000 NA
BRANCH  14  16
ATOM     16  C   UNL     1       1.965   4.985  19.718  0.00  0.00    +0.000 A 
ATOM     17  C   UNL     1       1.256   3.905  19.156  0.00  0.00    +0.000 A 
ATOM     18  C   UNL     1       0.991   2.731  19.893  0.00  0.00    +0.000 A 
ATOM     19  C   UNL     1       1.437   2.604  21.213  0.00  0.00    +0.000 A 
ATOM     20  C   UNL     1       2.171   3.637  21.785  0.00  0.00    +0.000 A 
ATOM     21  C   UNL     1       2.432   4.795  21.043  0.00  0.00    +0.000 A 
ENDBRANCH  14  16
ENDBRANCH   1  12
BRANCH   7  22
ATOM     22  C   UNL     1      -1.890  12.409  19.432  0.00  0.00    +0.000 A 
ATOM     23  C   UNL     1      -3.229  12.032  19.301  0.00  0.00    +0.000 A 
ATOM     24  C   UNL     1      -4.226  12.699  20.030  0.00  0.00    +0.000 A 
ATOM     25  C   UNL     1      -3.887  13.709  20.925  0.00  0.00    +0.000 A 
ATOM     26  F   UNL     1      -4.850  14.387  21.562  0.00  0.00    +0.000 F 
ATOM     27  C   UNL     1      -2.563  14.019  21.168  0.00  0.00    +0.000 A 
ATOM     28  C   UNL     1      -1.579  13.345  20.454  0.00  0.00    +0.000 A 
ENDBRANCH   7  22
BRANCH   7  29
ATOM     29  O   UNL     1      -0.956  12.709  17.305  0.00  0.00    +0.000 OA
ATOM     30  H   UNL     1      -1.172  13.621  17.572  0.00  0.00    +0.000 HD
ENDBRANCH   7  29
TORSDOF 4
ENDMDL
MODEL 4
REMARK VINA RESULT:      -7.5      4.422      9.542
REMARK  Name = 
REMARK  5 active torsions:
REMARK  status: ('A' for Active; 'I' for Inactive)
REMARK    1  A    between atoms: C_1  and  C_2
REMARK    2  A    between atoms: C_4  and  N_5
REMARK    3  A    between atoms: C_11  and  O_12
REMARK    4  A    between atoms: C_11  and  C_13
REMARK    5  A    between atoms: C_22  and  C_23
REMARK                            x       y       z     vdW  Elec       q    Type
REMARK                         _______ _______ _______ _____ _____    ______ ____
ROOT
ATOM      1  N   UNL     1       1.203   8.641  20.514  0.00  0.00    +0.000 N 
ATOM      2  C   UNL     1      -0.230   8.821  20.457  0.00  0.00    +0.000 C 
ATOM      3  C   UNL     1      -0.581   8.762  21.966  0.00  0.00    +0.000 C 
ATOM      4  C   UNL     1       0.669   9.236  22.720  0.00  0.00    +0.000 C 
ATOM      5  C   UNL     1       1.661   9.532  21.601  0.00  0.00    +0.000 C 
ATOM      6  C   UNL     1       1.494  11.020  21.164  0.00  0.00    +0.000 C 
ATOM      7  C   UNL     1       0.154  11.366  20.434  0.00  0.00    +0.000 C 
ATOM      8  C   UNL     1      -0.311  10.123  19.643  0.00  0.00    +0.000 C 
ENDROOT
BRANCH   1  12
ATOM      9  C   UNL     1       1.703   3.908  21.429  0.00  0.00    +0.000 C 
ATOM     10  C   UNL     1       1.985   5.110  20.599  0.00  0.00    +0.000 A 
ATOM     11  C   UNL     1       1.410   6.318  20.923  0.00  0.00    +0.000 A 
ATOM     12  C   UNL     1       1.703   7.408  20.145  0.00  0.00    +0.000 A 
ATOM     13  N   UNL     1       2.551   7.287  19.087  0.00  0.00    +0.000 NA
ATOM     14  C   UNL     1       3.081   6.068  18.817  0.00  0.00    +0.000 A 
ATOM     15  N   UNL     1       2.822   4.969  19.552  0.00  0.00    +0.000 NA
BRANCH  14  16
ATOM     16  C   UNL     1       3.952   5.863  17.622  0.00  0.00    +0.000 A 
ATOM     17  C   UNL     1       4.506   6.907  16.856  0.00  0.00    +0.000 A 
ATOM     18  C   UNL     1       5.272   6.650  15.699  0.00  0.00    +0.000 A 
ATOM     19  C   UNL     1       5.510   5.337  15.281  0.00  0.00    +0.000 A 
ATOM     20  C   UNL     1       5.007   4.282  16.034  0.00  0.00    +0.000 A 
ATOM     21  C   UNL     1       4.252   4.548  17.184  0.00  0.00    +0.000 A 
ENDBRANCH  14  16
ENDBRANCH   1  12
BRANCH   7  22
ATOM     22  C   UNL     1      -1.068  11.926  21.174  0.00  0.00    +0.000 A 
ATOM     23  C   UNL     1      -1.188  12.042  22.561  0.00  0.00    +0.000 A 
ATOM     24  C   UNL     1      -2.433  12.332  23.141  0.00  0.00    +0.000 A 
ATOM     25  C   UNL     1      -3.549  12.552  22.340  0.00  0.00    +0.000 A 
ATOM     26  F   UNL     1      -4.745  12.757  22.904  0.00  0.00    +0.000 F 
ATOM     27  C   UNL     1      -3.435  12.567  20.963  0.00  0.00    +0.000 A 
ATOM     28  C   UNL     1      -2.197  12.293  20.393  0.00  0.00    +0.000 A 
ENDBRANCH   7  22
BRANCH   7  29
ATOM     29  O   UNL     1       0.488  12.409  19.491  0.00  0.00    +0.000 OA
ATOM     30  H   UNL     1       0.676  13.213  20.008  0.00  0.00    +0.000 HD
ENDBRANCH   7  29
TORSDOF 4
ENDMDL
MODEL 5
REMARK VINA RESULT:      -7.3      4.224      9.284
REMARK  Name = 
REMARK  5 active torsions:
REMARK  status: ('A' for Active; 'I' for Inactive)
REMARK    1  A    between atoms: C_1  and  C_2
REMARK    2  A    between atoms: C_4  and  N_5
REMARK    3  A    between atoms: C_11  and  O_12
REMARK    4  A    between atoms: C_11  and  C_13
REMARK    5  A    between atoms: C_22  and  C_23
REMARK                            x       y       z     vdW  Elec       q    Type
REMARK                         _______ _______ _______ _____ _____    ______ ____
ROOT
ATOM      1  N   UNL     1       1.384   8.410  20.640  0.00  0.00    +0.000 N 
ATOM      2  C   UNL     1       0.103   8.846  20.129  0.00  0.00    +0.000 C 
ATOM      3  C   UNL     1      -0.786   8.632  21.380  0.00  0.00    +0.000 C 
ATOM      4  C   UNL     1       0.139   8.764  22.597  0.00  0.00    +0.000 C 
ATOM      5  C   UNL     1       1.501   9.040  21.972  0.00  0.00    +0.000 C 
ATOM      6  C   UNL     1       1.675  10.582  21.809  0.00  0.00    +0.000 C 
ATOM      7  C   UNL     1       0.749  11.259  20.746  0.00  0.00    +0.000 C 
ATOM      8  C   UNL     1       0.476  10.246  19.613  0.00  0.00    +0.000 C 
ENDROOT
BRANCH   1  12
ATOM      9  C   UNL     1       1.839   3.655  21.456  0.00  0.00    +0.000 C 
ATOM     10  C   UNL     1       2.104   4.866  20.634  0.00  0.00    +0.000 A 
ATOM     11  C   UNL     1       1.567   6.078  21.003  0.00  0.00    +0.000 A 
ATOM     12  C   UNL     1       1.844   7.175  20.229  0.00  0.00    +0.000 A 
ATOM     13  N   UNL     1       2.642   7.057  19.132  0.00  0.00    +0.000 NA
ATOM     14  C   UNL     1       3.137   5.834  18.820  0.00  0.00    +0.000 A 
ATOM     15  N   UNL     1       2.891   4.728  19.548  0.00  0.00    +0.000 NA
BRANCH  14  16
ATOM     16  C   UNL     1       3.950   5.634  17.584  0.00  0.00    +0.000 A 
ATOM     17  C   UNL     1       4.285   4.375  17.050  0.00  0.00    +0.000 A 
ATOM     18  C   UNL     1       5.109   4.250  15.911  0.00  0.00    +0.000 A 
ATOM     19  C   UNL     1       5.614   5.386  15.270  0.00  0.00    +0.000 A 
ATOM     20  C   UNL     1       5.272   6.645  15.750  0.00  0.00    +0.000 A 
ATOM     21  C   UNL     1       4.450   6.758  16.878  0.00  0.00    +0.000 A 
ENDBRANCH  14  16
ENDBRANCH   1  12
BRANCH   7  22
ATOM     22  C   UNL     1      -0.590  11.912  21.114  0.00  0.00    +0.000 A 
ATOM     23  C   UNL     1      -1.025  12.182  22.414  0.00  0.00    +0.000 A 
ATOM     24  C   UNL     1      -2.359  12.550  22.650  0.00  0.00    +0.000 A 
ATOM     25  C   UNL     1      -3.248  12.694  21.590  0.00  0.00    +0.000 A 
ATOM     26  F   UNL     1      -4.535  12.975  21.831  0.00  0.00    +0.000 F 
ATOM     27  C   UNL     1      -2.816  12.556  20.285  0.00  0.00    +0.000 A 
ATOM     28  C   UNL     1      -1.490  12.206  20.055  0.00  0.00    +0.000 A 
ENDBRANCH   7  22
BRANCH   7  29
ATOM     29  O   UNL     1       1.523  12.353  20.203  0.00  0.00    +0.000 OA
ATOM     30  H   UNL     1       2.141  12.640  20.899  0.00  0.00    +0.000 HD
ENDBRANCH   7  29
TORSDOF 4
ENDMDL
MODEL 6
REMARK VINA RESULT:      -7.1      0.881      1.341
REMARK  Name = 
REMARK  5 active torsions:
REMARK  status: ('A' for Active; 'I' for Inactive)
REMARK    1  A    between atoms: C_1  and  C_2
REMARK    2  A    between atoms: C_4  and  N_5
REMARK    3  A    between atoms: C_11  and  O_12
REMARK    4  A    between atoms: C_11  and  C_13
REMARK    5  A    between atoms: C_22  and  C_23
REMARK                            x       y       z     vdW  Elec       q    Type
REMARK                         _______ _______ _______ _____ _____    ______ ____
ROOT
ATOM      1  N   UNL     1       4.529   5.129  18.018  0.00  0.00    +0.000 N 
ATOM      2  C   UNL     1       4.026   5.237  16.666  0.00  0.00    +0.000 C 
ATOM      3  C   UNL     1       4.674   6.577  16.232  0.00  0.00    +0.000 C 
ATOM      4  C   UNL     1       5.956   6.728  17.062  0.00  0.00    +0.000 C 
ATOM      5  C   UNL     1       5.964   5.471  17.924  0.00  0.00    +0.000 C 
ATOM      6  C   UNL     1       6.723   4.343  17.158  0.00  0.00    +0.000 C 
ATOM      7  C   UNL     1       6.005   3.790  15.883  0.00  0.00    +0.000 C 
ATOM      8  C   UNL     1       4.478   3.882  16.097  0.00  0.00    +0.000 C 
ENDROOT
BRANCH   1  12
ATOM      9  C   UNL     1       1.895   3.536  21.761  0.00  0.00    +0.000 C 
ATOM     10  C   UNL     1       2.333   4.625  20.847  0.00  0.00    +0.000 A 
ATOM     11  C   UNL     1       3.279   4.372  19.880  0.00  0.00    +0.000 A 
ATOM     12  C   UNL     1       3.648   5.396  19.046  0.00  0.00    +0.000 A 
ATOM     13  N   UNL     1       3.076   6.625  19.175  0.00  0.00    +0.000 NA
ATOM     14  C   UNL     1       2.153   6.811  20.151  0.00  0.00    +0.000 A 
ATOM     15  N   UNL     1       1.760   5.836  20.994  0.00  0.00    +0.000 NA
BRANCH  14  16
ATOM     16  C   UNL     1       1.556   8.159  20.388  0.00  0.00    +0.000 A 
ATOM     17  C   UNL     1       1.102   8.616  21.640  0.00  0.00    +0.000 A 
ATOM     18  C   UNL     1       0.490   9.879  21.789  0.00  0.00    +0.000 A 
ATOM     19  C   UNL     1       0.322  10.723  20.686  0.00  0.00    +0.000 A 
ATOM     20  C   UNL     1       0.792  10.316  19.442  0.00  0.00    +0.000 A 
ATOM     21  C   UNL     1       1.402   9.063  19.307  0.00  0.00    +0.000 A 
ENDBRANCH  14  16
ENDBRANCH   1  12
BRANCH   7  22
ATOM     22  C   UNL     1       6.305   4.315  14.473  0.00  0.00    +0.000 A 
ATOM     23  C   UNL     1       5.623   3.944  13.311  0.00  0.00    +0.000 A 
ATOM     24  C   UNL     1       6.134   4.290  12.051  0.00  0.00    +0.000 A 
ATOM     25  C   UNL     1       7.298   5.045  11.946  0.00  0.00    +0.000 A 
ATOM     26  F   UNL     1       7.816   5.309  10.740  0.00  0.00    +0.000 F 
ATOM     27  C   UNL     1       7.926   5.532  13.076  0.00  0.00    +0.000 A 
ATOM     28  C   UNL     1       7.408   5.198  14.322  0.00  0.00    +0.000 A 
ENDBRANCH   7  22
BRANCH   7  29
ATOM     29  O   UNL     1       6.373   2.393  15.810  0.00  0.00    +0.000 OA
ATOM     30  H   UNL     1       7.346   2.354  15.795  0.00  0.00    +0.000 HD
ENDBRANCH   7  29
TORSDOF 4
ENDMDL
MODEL 7
REMARK VINA RESULT:      -7.0      5.882     10.088
REMARK  Name = 
REMARK  5 active torsions:
REMARK  status: ('A' for Active; 'I' for Inactive)
REMARK    1  A    between atoms: C_1  and  C_2
REMARK    2  A    between atoms: C_4  and  N_5
REMARK    3  A    between atoms: C_11  and  O_12
REMARK    4  A    between atoms: C_11  and  C_13
REMARK    5  A    between atoms: C_22  and  C_23
REMARK                            x       y       z     vdW  Elec       q    Type
REMARK                         _______ _______ _______ _____ _____    ______ ____
ROOT
ATOM      1  N   UNL     1       0.782  13.149  20.482  0.00  0.00    +0.000 N 
ATOM      2  C   UNL     1       1.256  13.507  19.163  0.00  0.00    +0.000 C 
ATOM      3  C   UNL     1      -0.064  13.999  18.515  0.00  0.00    +0.000 C 
ATOM      4  C   UNL     1      -0.947  14.506  19.663  0.00  0.00    +0.000 C 
ATOM      5  C   UNL     1      -0.086  14.271  20.898  0.00  0.00    +0.000 C 
ATOM      6  C   UNL     1       0.785  15.540  21.151  0.00  0.00    +0.000 C 
ATOM      7  C   UNL     1       1.903  15.818  20.092  0.00  0.00    +0.000 C 
ATOM      8  C   UNL     1       2.399  14.466  19.534  0.00  0.00    +0.000 C 
ENDROOT
BRANCH   1  12
ATOM      9  C   UNL     1      -0.901   9.657  23.391  0.00  0.00    +0.000 C 
ATOM     10  C   UNL     1      -0.140  10.097  22.191  0.00  0.00    +0.000 A 
ATOM     11  C   UNL     1      -0.080  11.434  21.868  0.00  0.00    +0.000 A 
ATOM     12  C   UNL     1       0.643  11.804  20.763  0.00  0.00    +0.000 A 
ATOM     13  N   UNL     1       1.290  10.865  20.020  0.00  0.00    +0.000 NA
ATOM     14  C   UNL     1       1.188   9.564  20.390  0.00  0.00    +0.000 A 
ATOM     15  N   UNL     1       0.489   9.152  21.465  0.00  0.00    +0.000 NA
BRANCH  14  16
ATOM     16  C   UNL     1       1.810   8.487  19.564  0.00  0.00    +0.000 A 
ATOM     17  C   UNL     1       2.059   7.179  20.023  0.00  0.00    +0.000 A 
ATOM     18  C   UNL     1       2.707   6.221  19.214  0.00  0.00    +0.000 A 
ATOM     19  C   UNL     1       3.117   6.547  17.916  0.00  0.00    +0.000 A 
ATOM     20  C   UNL     1       2.855   7.819  17.420  0.00  0.00    +0.000 A 
ATOM     21  C   UNL     1       2.207   8.760  18.230  0.00  0.00    +0.000 A 
ENDBRANCH  14  16
ENDBRANCH   1  12
BRANCH   7  22
ATOM     22  C   UNL     1       1.694  16.761  18.900  0.00  0.00    +0.000 A 
ATOM     23  C   UNL     1       0.601  17.614  18.728  0.00  0.00    +0.000 A 
ATOM     24  C   UNL     1       0.385  18.246  17.493  0.00  0.00    +0.000 A 
ATOM     25  C   UNL     1       1.281  18.067  16.444  0.00  0.00    +0.000 A 
ATOM     26  F   UNL     1       1.029  18.615  15.250  0.00  0.00    +0.000 F 
ATOM     27  C   UNL     1       2.436  17.330  16.623  0.00  0.00    +0.000 A 
ATOM     28  C   UNL     1       2.653  16.718  17.853  0.00  0.00    +0.000 A 
ENDBRANCH   7  22
BRANCH   7  29
ATOM     29  O   UNL     1       2.985  16.434  20.828  0.00  0.00    +0.000 OA
ATOM     30  H   UNL     1       3.362  15.749  21.409  0.00  0.00    +0.000 HD
ENDBRANCH   7  29
TORSDOF 4
ENDMDL
MODEL 8
REMARK VINA RESULT:      -6.9      7.467     13.188
REMARK  Name = 
REMARK  5 active torsions:
REMARK  status: ('A' for Active; 'I' for Inactive)
REMARK    1  A    between atoms: C_1  and  C_2
REMARK    2  A    between atoms: C_4  and  N_5
REMARK    3  A    between atoms: C_11  and  O_12
REMARK    4  A    between atoms: C_11  and  C_13
REMARK    5  A    between atoms: C_22  and  C_23
REMARK                            x       y       z     vdW  Elec       q    Type
REMARK                         _______ _______ _______ _____ _____    ______ ____
ROOT
ATOM      1  N   UNL     1      -3.176  13.131  21.248  0.00  0.00    +0.000 N 
ATOM      2  C   UNL     1      -2.116  13.637  22.092  0.00  0.00    +0.000 C 
ATOM      3  C   UNL     1      -2.098  15.125  21.658  0.00  0.00    +0.000 C 
ATOM      4  C   UNL     1      -3.516  15.450  21.169  0.00  0.00    +0.000 C 
ATOM      5  C   UNL     1      -4.259  14.132  21.346  0.00  0.00    +0.000 C 
ATOM      6  C   UNL     1      -4.879  14.094  22.777  0.00  0.00    +0.000 C 
ATOM      7  C   UNL     1      -3.855  13.987  23.956  0.00  0.00    +0.000 C 
ATOM      8  C   UNL     1      -2.626  13.187  23.471  0.00  0.00    +0.000 C 
ENDROOT
BRANCH   1  12
ATOM      9  C   UNL     1      -4.196  11.419  16.830  0.00  0.00    +0.000 C 
ATOM     10  C   UNL     1      -3.312  11.496  18.024  0.00  0.00    +0.000 A 
ATOM     11  C   UNL     1      -3.640  12.330  19.068  0.00  0.00    +0.000 A 
ATOM     12  C   UNL     1      -2.809  12.365  20.159  0.00  0.00    +0.000 A 
ATOM     13  N   UNL     1      -1.697  11.582  20.199  0.00  0.00    +0.000 NA
ATOM     14  C   UNL     1      -1.427  10.784  19.135  0.00  0.00    +0.000 A 
ATOM     15  N   UNL     1      -2.212  10.717  18.042  0.00  0.00    +0.000 NA
BRANCH  14  16
ATOM     16  C   UNL     1      -0.179   9.967  19.093  0.00  0.00    +0.000 A 
ATOM     17  C   UNL     1       0.565   9.714  17.924  0.00  0.00    +0.000 A 
ATOM     18  C   UNL     1       1.705   8.882  17.938  0.00  0.00    +0.000 A 
ATOM     19  C   UNL     1       2.135   8.285  19.128  0.00  0.00    +0.000 A 
ATOM     20  C   UNL     1       1.444   8.542  20.306  0.00  0.00    +0.000 A 
ATOM     21  C   UNL     1       0.318   9.374  20.282  0.00  0.00    +0.000 A 
ENDBRANCH  14  16
ENDBRANCH   1  12
BRANCH   7  22
ATOM     22  C   UNL     1      -3.336  15.217  24.712  0.00  0.00    +0.000 A 
ATOM     23  C   UNL     1      -3.950  16.472  24.730  0.00  0.00    +0.000 A 
ATOM     24  C   UNL     1      -3.268  17.586  25.244  0.00  0.00    +0.000 A 
ATOM     25  C   UNL     1      -1.993  17.444  25.782  0.00  0.00    +0.000 A 
ATOM     26  F   UNL     1      -1.323  18.523  26.204  0.00  0.00    +0.000 F 
ATOM     27  C   UNL     1      -1.411  16.196  25.892  0.00  0.00    +0.000 A 
ATOM     28  C   UNL     1      -2.097  15.094  25.395  0.00  0.00    +0.000 A 
ENDBRANCH   7  22
BRANCH   7  29
ATOM     29  O   UNL     1      -4.527  13.218  24.979  0.00  0.00    +0.000 OA
ATOM     30  H   UNL     1      -4.957  13.853  25.580  0.00  0.00    +0.000 HD
ENDBRANCH   7  29
TORSDOF 4
ENDMDL
MODEL 9
REMARK VINA RESULT:      -6.9      8.663     13.177
REMARK  Name = 
REMARK  5 active torsions:
REMARK  status: ('A' for Active; 'I' for Inactive)
REMARK    1  A    between atoms: C_1  and  C_2
REMARK    2  A    between atoms: C_4  and  N_5
REMARK    3  A    between atoms: C_11  and  O_12
REMARK    4  A    between atoms: C_11  and  C_13
REMARK    5  A    between atoms: C_22  and  C_23
REMARK                            x       y       z     vdW  Elec       q    Type
REMARK                         _______ _______ _______ _____ _____    ______ ____
ROOT
ATOM      1  N   UNL     1      -2.071  13.358  21.911  0.00  0.00    +0.000 N 
ATOM      2  C   UNL     1      -1.315  13.560  23.127  0.00  0.00    +0.000 C 
ATOM      3  C   UNL     1      -0.450  14.780  22.720  0.00  0.00    +0.000 C 
ATOM      4  C   UNL     1      -1.247  15.539  21.651  0.00  0.00    +0.000 C 
ATOM      5  C   UNL     1      -2.516  14.708  21.506  0.00  0.00    +0.000 C 
ATOM      6  C   UNL     1      -3.580  15.235  22.518  0.00  0.00    +0.000 C 
ATOM      7  C   UNL     1      -3.263  14.979  24.028  0.00  0.00    +0.000 C 
ATOM      8  C   UNL     1      -2.460  13.665  24.148  0.00  0.00    +0.000 C 
ENDROOT
BRANCH   1  12
ATOM      9  C   UNL     1       0.832   9.569  21.077  0.00  0.00    +0.000 C 
ATOM     10  C   UNL     1      -0.280  10.470  20.673  0.00  0.00    +0.000 A 
ATOM     11  C   UNL     1      -0.692  11.474  21.519  0.00  0.00    +0.000 A 
ATOM     12  C   UNL     1      -1.711  12.295  21.108  0.00  0.00    +0.000 A 
ATOM     13  N   UNL     1      -2.283  12.117  19.886  0.00  0.00    +0.000 NA
ATOM     14  C   UNL     1      -1.834  11.106  19.100  0.00  0.00    +0.000 A 
ATOM     15  N   UNL     1      -0.838  10.275  19.462  0.00  0.00    +0.000 NA
BRANCH  14  16
ATOM     16  C   UNL     1      -2.482  10.817  17.787  0.00  0.00    +0.000 A 
ATOM     17  C   UNL     1      -1.954   9.942  16.818  0.00  0.00    +0.000 A 
ATOM     18  C   UNL     1      -2.582   9.756  15.568  0.00  0.00    +0.000 A 
ATOM     19  C   UNL     1      -3.763  10.439  15.257  0.00  0.00    +0.000 A 
ATOM     20  C   UNL     1      -4.330  11.284  16.204  0.00  0.00    +0.000 A 
ATOM     21  C   UNL     1      -3.700  11.456  17.443  0.00  0.00    +0.000 A 
ENDBRANCH  14  16
ENDBRANCH   1  12
BRANCH   7  22
ATOM     22  C   UNL     1      -2.573  16.024  24.915  0.00  0.00    +0.000 A 
ATOM     23  C   UNL     1      -2.649  17.408  24.740  0.00  0.00    +0.000 A 
ATOM     24  C   UNL     1      -1.787  18.259  25.449  0.00  0.00    +0.000 A 
ATOM     25  C   UNL     1      -0.881  17.737  26.367  0.00  0.00    +0.000 A 
ATOM     26  F   UNL     1      -0.014  18.549  26.985  0.00  0.00    +0.000 F 
ATOM     27  C   UNL     1      -0.868  16.386  26.653  0.00  0.00    +0.000 A 
ATOM     28  C   UNL     1      -1.734  15.549  25.958  0.00  0.00    +0.000 A 
ENDBRANCH   7  22
BRANCH   7  29
ATOM     29  O   UNL     1      -4.547  14.789  24.664  0.00  0.00    +0.000 OA
ATOM     30  H   UNL     1      -4.503  15.223  25.535  0.00  0.00    +0.000 HD
ENDBRANCH   7  29
TORSDOF 4
ENDMDL
