MODEL 1
REMARK VINA RESULT:      -7.4      0.000      0.000
REMARK  Name = 
REMARK  11 active torsions:
REMARK  status: ('A' for Active; 'I' for Inactive)
REMARK    1  A    between atoms: C_1  and  C_2
REMARK    2  A    between atoms: C_2  and  C_3
REMARK    3  A    between atoms: C_3  and  C_4
REMARK    4  A    between atoms: C_9  and  C_11
REMARK    5  A    between atoms: C_11  and  C_12
REMARK    6  A    between atoms: C_12  and  C_13
REMARK    7  A    between atoms: N_18  and  C_19
REMARK    8  A    between atoms: C_19  and  C_20
REMARK    9  A    between atoms: C_20  and  N_21
REMARK   10  A    between atoms: C_22  and  C_23
REMARK   11  A    between atoms: C_26  and  C_27
REMARK                            x       y       z     vdW  Elec       q    Type
REMARK                         _______ _______ _______ _____ _____    ______ ____
ROOT
ATOM      1  C   UNL     1       2.745   7.150  18.715  0.00  0.00    +0.000 C 
ATOM      2  O   UNL     1       3.317   7.437  17.662  0.00  0.00    +0.000 OA
ATOM      3  N   UNL     1       1.887   8.028  19.355  0.00  0.00    +0.000 N 
ATOM      4  C   UNL     1       1.665   9.327  18.722  0.00  0.00    +0.000 C 
ATOM      5  C   UNL     1       0.275   9.889  19.058  0.00  0.00    +0.000 C 
ATOM      6  N   UNL     1      -0.007   9.975  20.507  0.00  0.00    +0.000 NA
ATOM      7  C   UNL     1       0.184   8.624  21.092  0.00  0.00    +0.000 C 
ATOM      8  C   UNL     1       1.554   7.974  20.790  0.00  0.00    +0.000 C 
ENDROOT
BRANCH   1   9
ATOM      9  C   UNL     1       2.914   5.769  19.297  0.00  0.00    +0.000 C 
BRANCH   9  10
ATOM     10  C   UNL     1       4.350   5.289  19.148  0.00  0.00    +0.000 C 
BRANCH  10  16
ATOM     11  C   UNL     1       6.761   4.447  13.743  0.00  0.00    +0.000 A 
ATOM     12  N   UNL     1       7.534   5.439  14.139  0.00  0.00    +0.000 NA
ATOM     13  N   UNL     1       7.263   5.814  15.443  0.00  0.00    +0.000 NA
ATOM     14  C   UNL     1       6.262   5.132  15.954  0.00  0.00    +0.000 A 
ATOM     15  N   UNL     1       5.794   5.341  17.228  0.00  0.00    +0.000 N 
ATOM     16  C   UNL     1       4.594   4.884  17.717  0.00  0.00    +0.000 C 
ATOM     17  O   UNL     1       3.759   4.199  17.134  0.00  0.00    +0.000 OA
ATOM     18  S   UNL     1       5.640   3.923  14.929  0.00  0.00    +0.000 S 
ATOM     19  H   UNL     1       6.335   6.012  17.755  0.00  0.00    +0.000 HD
BRANCH  11  20
ATOM     20  C   UNL     1       6.824   3.780  12.409  0.00  0.00    +0.000 C 
BRANCH  20  22
ATOM     21  C   UNL     1       4.505   3.433  11.492  0.00  0.00    +0.000 C 
ATOM     22  C   UNL     1       5.677   2.788  12.216  0.00  0.00    +0.000 C 
ENDBRANCH  20  22
ENDBRANCH  11  20
ENDBRANCH  10  16
ENDBRANCH   9  10
ENDBRANCH   1   9
BRANCH   6  23
ATOM     23  C   UNL     1       0.831  10.982  21.196  0.00  0.00    +0.000 C 
BRANCH  23  24
ATOM     24  C   UNL     1       0.087  12.285  21.538  0.00  0.00    +0.000 C 
BRANCH  24  25
ATOM     25  N   UNL     1       0.186  13.270  20.466  0.00  0.00    +0.000 N 
ATOM     26  C   UNL     1      -0.734  13.462  19.449  0.00  0.00    +0.000 A 
ATOM     27  C   UNL     1      -1.980  12.668  19.245  0.00  0.00    +0.000 C 
ATOM     28  C   UNL     1      -0.284  14.519  18.685  0.00  0.00    +0.000 A 
ATOM     29  C   UNL     1       0.935  14.964  19.230  0.00  0.00    +0.000 A 
ATOM     30  C   UNL     1       1.219  14.178  20.327  0.00  0.00    +0.000 A 
ATOM     31  C   UNL     1       2.395  14.245  21.237  0.00  0.00    +0.000 C 
ENDBRANCH  24  25
ENDBRANCH  23  24
ENDBRANCH   6  23
TORSDOF 8
ENDMDL
MODEL 2
REMARK VINA RESULT:      -7.4      2.851      4.458
REMARK  Name = 
REMARK  11 active torsions:
REMARK  status: ('A' for Active; 'I' for Inactive)
REMARK    1  A    between atoms: C_1  and  C_2
REMARK    2  A    between atoms: C_2  and  C_3
REMARK    3  A    between atoms: C_3  and  C_4
REMARK    4  A    between atoms: C_9  and  C_11
REMARK    5  A    between atoms: C_11  and  C_12
REMARK    6  A    between atoms: C_12  and  C_13
REMARK    7  A    between atoms: N_18  and  C_19
REMARK    8  A    between atoms: C_19  and  C_20
REMARK    9  A    between atoms: C_20  and  N_21
REMARK   10  A    between atoms: C_22  and  C_23
REMARK   11  A    between atoms: C_26  and  C_27
REMARK                            x       y       z     vdW  Elec       q    Type
REMARK                         _______ _______ _______ _____ _____    ______ ____
ROOT
ATOM      1  C   UNL     1       1.613   3.088  19.167  0.00  0.00    +0.000 C 
ATOM      2  O   UNL     1       1.079   2.381  20.024  0.00  0.00    +0.000 OA
ATOM      3  N   UNL     1       1.856   4.436  19.366  0.00  0.00    +0.000 N 
ATOM      4  C   UNL     1       1.467   5.003  20.656  0.00  0.00    +0.000 C 
ATOM      5  C   UNL     1       2.356   6.196  21.042  0.00  0.00    +0.000 C 
ATOM      6  N   UNL     1       2.416   7.259  20.017  0.00  0.00    +0.000 NA
ATOM      7  C   UNL     1       2.863   6.643  18.742  0.00  0.00    +0.000 C 
ATOM      8  C   UNL     1       2.032   5.423  18.285  0.00  0.00    +0.000 C 
ENDROOT
BRANCH   1   9
ATOM      9  C   UNL     1       2.094   2.460  17.883  0.00  0.00    +0.000 C 
BRANCH   9  10
ATOM     10  C   UNL     1       3.437   1.774  18.084  0.00  0.00    +0.000 C 
BRANCH  10  16
ATOM     11  C   UNL     1       7.324   6.308  17.811  0.00  0.00    +0.000 A 
ATOM     12  N   UNL     1       7.204   6.087  16.518  0.00  0.00    +0.000 NA
ATOM     13  N   UNL     1       6.267   5.107  16.247  0.00  0.00    +0.000 NA
ATOM     14  C   UNL     1       5.763   4.590  17.345  0.00  0.00    +0.000 A 
ATOM     15  N   UNL     1       4.828   3.584  17.333  0.00  0.00    +0.000 N 
ATOM     16  C   UNL     1       4.480   2.810  18.414  0.00  0.00    +0.000 C 
ATOM     17  O   UNL     1       4.905   2.894  19.563  0.00  0.00    +0.000 OA
ATOM     18  S   UNL     1       6.314   5.319  18.782  0.00  0.00    +0.000 S 
ATOM     19  H   UNL     1       4.514   3.332  16.406  0.00  0.00    +0.000 HD
BRANCH  11  20
ATOM     20  C   UNL     1       8.215   7.329  18.437  0.00  0.00    +0.000 C 
BRANCH  20  22
ATOM     21  C   UNL     1       8.779   9.780  18.556  0.00  0.00    +0.000 C 
ATOM     22  C   UNL     1       8.095   8.688  17.748  0.00  0.00    +0.000 C 
ENDBRANCH  20  22
ENDBRANCH  11  20
ENDBRANCH  10  16
ENDBRANCH   9  10
ENDBRANCH   1   9
BRANCH   6  23
ATOM     23  C   UNL     1       1.127   7.968  19.848  0.00  0.00    +0.000 C 
BRANCH  23  24
ATOM     24  C   UNL     1       0.871   9.058  20.902  0.00  0.00    +0.000 C 
BRANCH  24  25
ATOM     25  N   UNL     1       0.326  10.275  20.309  0.00  0.00    +0.000 N 
ATOM     26  C   UNL     1       0.599  10.756  19.039  0.00  0.00    +0.000 A 
ATOM     27  C   UNL     1       1.534  10.134  18.059  0.00  0.00    +0.000 C 
ATOM     28  C   UNL     1      -0.157  11.897  18.862  0.00  0.00    +0.000 A 
ATOM     29  C   UNL     1      -0.885  12.125  20.045  0.00  0.00    +0.000 A 
ATOM     30  C   UNL     1      -0.573  11.119  20.935  0.00  0.00    +0.000 A 
ATOM     31  C   UNL     1      -1.075  10.918  22.322  0.00  0.00    +0.000 C 
ENDBRANCH  24  25
ENDBRANCH  23  24
ENDBRANCH   6  23
TORSDOF 8
ENDMDL
MODEL 3
REMARK VINA RESULT:      -7.3      2.818      4.496
REMARK  Name = 
REMARK  11 active torsions:
REMARK  status: ('A' for Active; 'I' for Inactive)
REMARK    1  A    between atoms: C_1  and  C_2
REMARK    2  A    between atoms: C_2  and  C_3
REMARK    3  A    between atoms: C_3  and  C_4
REMARK    4  A    between atoms: C_9  and  C_11
REMARK    5  A    between atoms: C_11  and  C_12
REMARK    6  A    between atoms: C_12  and  C_13
REMARK    7  A    between atoms: N_18  and  C_19
REMARK    8  A    between atoms: C_19  and  C_20
REMARK    9  A    between atoms: C_20  and  N_21
REMARK   10  A    between atoms: C_22  and  C_23
REMARK   11  A    between atoms: C_26  and  C_27
REMARK                            x       y       z     vdW  Elec       q    Type
REMARK                         _______ _______ _______ _____ _____    ______ ____
ROOT
ATOM      1  C   UNL     1       1.553   3.497  18.851  0.00  0.00    +0.000 C 
ATOM      2  O   UNL     1       0.837   2.905  19.661  0.00  0.00    +0.000 OA
ATOM      3  N   UNL     1       1.805   4.856  18.939  0.00  0.00    +0.000 N 
ATOM      4  C   UNL     1       1.196   5.578  20.055  0.00  0.00    +0.000 C 
ATOM      5  C   UNL     1       2.039   6.794  20.469  0.00  0.00    +0.000 C 
ATOM      6  N   UNL     1       2.336   7.727  19.362  0.00  0.00    +0.000 NA
ATOM      7  C   UNL     1       2.997   6.957  18.278  0.00  0.00    +0.000 C 
ATOM      8  C   UNL     1       2.224   5.704  17.808  0.00  0.00    +0.000 C 
ENDROOT
BRANCH   1   9
ATOM      9  C   UNL     1       2.248   2.713  17.766  0.00  0.00    +0.000 C 
BRANCH   9  10
ATOM     10  C   UNL     1       3.492   2.024  18.307  0.00  0.00    +0.000 C 
BRANCH  10  16
ATOM     11  C   UNL     1       7.420   6.510  17.870  0.00  0.00    +0.000 A 
ATOM     12  N   UNL     1       7.284   6.254  16.584  0.00  0.00    +0.000 NA
ATOM     13  N   UNL     1       6.335   5.276  16.350  0.00  0.00    +0.000 NA
ATOM     14  C   UNL     1       5.837   4.794  17.467  0.00  0.00    +0.000 A 
ATOM     15  N   UNL     1       4.893   3.798  17.492  0.00  0.00    +0.000 N 
ATOM     16  C   UNL     1       4.549   3.058  18.597  0.00  0.00    +0.000 C 
ATOM     17  O   UNL     1       4.986   3.169  19.739  0.00  0.00    +0.000 OA
ATOM     18  S   UNL     1       6.411   5.557  18.877  0.00  0.00    +0.000 S 
ATOM     19  H   UNL     1       4.567   3.523  16.575  0.00  0.00    +0.000 HD
BRANCH  11  20
ATOM     20  C   UNL     1       8.327   7.538  18.458  0.00  0.00    +0.000 C 
BRANCH  20  22
ATOM     21  C   UNL     1       8.894   9.988  18.586  0.00  0.00    +0.000 C 
ATOM     22  C   UNL     1       8.059   8.929  17.884  0.00  0.00    +0.000 C 
ENDBRANCH  20  22
ENDBRANCH  11  20
ENDBRANCH  10  16
ENDBRANCH   9  10
ENDBRANCH   1   9
BRANCH   6  23
ATOM     23  C   UNL     1       1.132   8.430  18.864  0.00  0.00    +0.000 C 
BRANCH  23  24
ATOM     24  C   UNL     1       0.505   9.394  19.885  0.00  0.00    +0.000 C 
BRANCH  24  25
ATOM     25  N   UNL     1       0.039  10.627  19.259  0.00  0.00    +0.000 N 
ATOM     26  C   UNL     1       0.659  11.863  19.334  0.00  0.00    +0.000 A 
ATOM     27  C   UNL     1       1.901  12.166  20.102  0.00  0.00    +0.000 C 
ATOM     28  C   UNL     1      -0.080  12.738  18.564  0.00  0.00    +0.000 A 
ATOM     29  C   UNL     1      -1.174  12.033  18.030  0.00  0.00    +0.000 A 
ATOM     30  C   UNL     1      -1.094  10.729  18.473  0.00  0.00    +0.000 A 
ATOM     31  C   UNL     1      -2.016   9.595  18.192  0.00  0.00    +0.000 C 
ENDBRANCH  24  25
ENDBRANCH  23  24
ENDBRANCH   6  23
TORSDOF 8
ENDMDL
MODEL 4
REMARK VINA RESULT:      -7.2      1.778      2.657
REMARK  Name = 
REMARK  11 active torsions:
REMARK  status: ('A' for Active; 'I' for Inactive)
REMARK    1  A    between atoms: C_1  and  C_2
REMARK    2  A    between atoms: C_2  and  C_3
REMARK    3  A    between atoms: C_3  and  C_4
REMARK    4  A    between atoms: C_9  and  C_11
REMARK    5  A    between atoms: C_11  and  C_12
REMARK    6  A    between atoms: C_12  and  C_13
REMARK    7  A    between atoms: N_18  and  C_19
REMARK    8  A    between atoms: C_19  and  C_20
REMARK    9  A    between atoms: C_20  and  N_21
REMARK   10  A    between atoms: C_22  and  C_23
REMARK   11  A    between atoms: C_26  and  C_27
REMARK                            x       y       z     vdW  Elec       q    Type
REMARK                         _______ _______ _______ _____ _____    ______ ____
ROOT
ATOM      1  C   UNL     1       1.970   7.289  19.918  0.00  0.00    +0.000 C 
ATOM      2  O   UNL     1       1.727   6.436  20.773  0.00  0.00    +0.000 OA
ATOM      3  N   UNL     1       1.432   8.564  19.970  0.00  0.00    +0.000 N 
ATOM      4  C   UNL     1       0.561   8.877  21.102  0.00  0.00    +0.000 C 
ATOM      5  C   UNL     1       0.605  10.373  21.452  0.00  0.00    +0.000 C 
ATOM      6  N   UNL     1       0.301  11.267  20.315  0.00  0.00    +0.000 NA
ATOM      7  C   UNL     1       1.242  10.944  19.213  0.00  0.00    +0.000 C 
ATOM      8  C   UNL     1       1.276   9.453  18.805  0.00  0.00    +0.000 C 
ENDROOT
BRANCH   1   9
ATOM      9  C   UNL     1       2.948   6.974  18.814  0.00  0.00    +0.000 C 
BRANCH   9  10
ATOM     10  C   UNL     1       3.479   5.555  18.948  0.00  0.00    +0.000 C 
BRANCH  10  16
ATOM     11  C   UNL     1       6.472   4.420  13.899  0.00  0.00    +0.000 A 
ATOM     12  N   UNL     1       7.141   5.492  14.275  0.00  0.00    +0.000 NA
ATOM     13  N   UNL     1       6.718   5.958  15.506  0.00  0.00    +0.000 NA
ATOM     14  C   UNL     1       5.712   5.256  15.980  0.00  0.00    +0.000 A 
ATOM     15  N   UNL     1       5.105   5.541  17.179  0.00  0.00    +0.000 N 
ATOM     16  C   UNL     1       3.891   5.047  17.591  0.00  0.00    +0.000 C 
ATOM     17  O   UNL     1       3.161   4.260  16.995  0.00  0.00    +0.000 OA
ATOM     18  S   UNL     1       5.270   3.924  15.016  0.00  0.00    +0.000 S 
ATOM     19  H   UNL     1       5.550   6.290  17.691  0.00  0.00    +0.000 HD
BRANCH  11  20
ATOM     20  C   UNL     1       6.709   3.647  12.645  0.00  0.00    +0.000 C 
BRANCH  20  22
ATOM     21  C   UNL     1       4.525   3.433  11.411  0.00  0.00    +0.000 C 
ATOM     22  C   UNL     1       5.532   2.732  12.310  0.00  0.00    +0.000 C 
ENDBRANCH  20  22
ENDBRANCH  11  20
ENDBRANCH  10  16
ENDBRANCH   9  10
ENDBRANCH   1   9
BRANCH   6  23
ATOM     23  C   UNL     1      -1.106  11.168  19.866  0.00  0.00    +0.000 C 
BRANCH  23  24
ATOM     24  C   UNL     1      -1.814  12.526  19.724  0.00  0.00    +0.000 C 
BRANCH  24  25
ATOM     25  N   UNL     1      -2.953  12.647  20.629  0.00  0.00    +0.000 N 
ATOM     26  C   UNL     1      -4.282  12.448  20.296  0.00  0.00    +0.000 A 
ATOM     27  C   UNL     1      -4.795  12.109  18.937  0.00  0.00    +0.000 C 
ATOM     28  C   UNL     1      -5.022  12.612  21.449  0.00  0.00    +0.000 A 
ATOM     29  C   UNL     1      -4.135  12.935  22.493  0.00  0.00    +0.000 A 
ATOM     30  C   UNL     1      -2.859  12.960  21.972  0.00  0.00    +0.000 A 
ATOM     31  C   UNL     1      -1.577  13.257  22.669  0.00  0.00    +0.000 C 
ENDBRANCH  24  25
ENDBRANCH  23  24
ENDBRANCH   6  23
TORSDOF 8
ENDMDL
MODEL 5
REMARK VINA RESULT:      -7.1      4.095     11.200
REMARK  Name = 
REMARK  11 active torsions:
REMARK  status: ('A' for Active; 'I' for Inactive)
REMARK    1  A    between atoms: C_1  and  C_2
REMARK    2  A    between atoms: C_2  and  C_3
REMARK    3  A    between atoms: C_3  and  C_4
REMARK    4  A    between atoms: C_9  and  C_11
REMARK    5  A    between atoms: C_11  and  C_12
REMARK    6  A    between atoms: C_12  and  C_13
REMARK    7  A    between atoms: N_18  and  C_19
REMARK    8  A    between atoms: C_19  and  C_20
REMARK    9  A    between atoms: C_20  and  N_21
REMARK   10  A    between atoms: C_22  and  C_23
REMARK   11  A    between atoms: C_26  and  C_27
REMARK                            x       y       z     vdW  Elec       q    Type
REMARK                         _______ _______ _______ _____ _____    ______ ____
ROOT
ATOM      1  C   UNL     1       0.872   9.020  20.554  0.00  0.00    +0.000 C 
ATOM      2  O   UNL     1       0.538   9.120  21.737  0.00  0.00    +0.000 OA
ATOM      3  N   UNL     1       1.520   7.901  20.059  0.00  0.00    +0.000 N 
ATOM      4  C   UNL     1       1.788   6.813  20.998  0.00  0.00    +0.000 C 
ATOM      5  C   UNL     1       1.827   5.450  20.288  0.00  0.00    +0.000 C 
ATOM      6  N   UNL     1       2.773   5.388  19.155  0.00  0.00    +0.000 NA
ATOM      7  C   UNL     1       2.429   6.479  18.209  0.00  0.00    +0.000 C 
ATOM      8  C   UNL     1       2.351   7.887  18.842  0.00  0.00    +0.000 C 
ENDROOT
BRANCH   1   9
ATOM      9  C   UNL     1       0.498  10.113  19.585  0.00  0.00    +0.000 C 
BRANCH   9  10
ATOM     10  C   UNL     1       0.286  11.433  20.310  0.00  0.00    +0.000 C 
BRANCH  10  16
ATOM     11  C   UNL     1      -5.276  12.951  21.893  0.00  0.00    +0.000 A 
ATOM     12  N   UNL     1      -4.845  12.563  23.076  0.00  0.00    +0.000 NA
ATOM     13  N   UNL     1      -3.506  12.218  23.049  0.00  0.00    +0.000 NA
ATOM     14  C   UNL     1      -2.999  12.303  21.839  0.00  0.00    +0.000 A 
ATOM     15  N   UNL     1      -1.692  11.990  21.556  0.00  0.00    +0.000 N 
ATOM     16  C   UNL     1      -1.181  11.778  20.299  0.00  0.00    +0.000 C 
ATOM     17  O   UNL     1      -1.773  11.858  19.226  0.00  0.00    +0.000 OA
ATOM     18  S   UNL     1      -4.080  12.899  20.666  0.00  0.00    +0.000 S 
ATOM     19  H   UNL     1      -1.143  11.760  22.373  0.00  0.00    +0.000 HD
BRANCH  11  20
ATOM     20  C   UNL     1      -6.657  13.428  21.587  0.00  0.00    +0.000 C 
BRANCH  20  22
ATOM     21  C   UNL     1      -7.589  11.258  20.714  0.00  0.00    +0.000 C 
ATOM     22  C   UNL     1      -7.255  12.705  20.381  0.00  0.00    +0.000 C 
ENDBRANCH  20  22
ENDBRANCH  11  20
ENDBRANCH  10  16
ENDBRANCH   9  10
ENDBRANCH   1   9
BRANCH   6  23
ATOM     23  C   UNL     1       4.188   5.475  19.582  0.00  0.00    +0.000 C 
BRANCH  23  24
ATOM     24  C   UNL     1       5.040   4.262  19.173  0.00  0.00    +0.000 C 
BRANCH  24  25
ATOM     25  N   UNL     1       5.538   4.378  17.806  0.00  0.00    +0.000 N 
ATOM     26  C   UNL     1       6.725   4.978  17.420  0.00  0.00    +0.000 A 
ATOM     27  C   UNL     1       7.694   5.651  18.332  0.00  0.00    +0.000 C 
ATOM     28  C   UNL     1       6.835   4.825  16.053  0.00  0.00    +0.000 A 
ATOM     29  C   UNL     1       5.692   4.141  15.598  0.00  0.00    +0.000 A 
ATOM     30  C   UNL     1       4.894   3.876  16.691  0.00  0.00    +0.000 A 
ATOM     31  C   UNL     1       3.578   3.181  16.733  0.00  0.00    +0.000 C 
ENDBRANCH  24  25
ENDBRANCH  23  24
ENDBRANCH   6  23
TORSDOF 8
ENDMDL
MODEL 6
REMARK VINA RESULT:      -7.1      1.154      1.963
REMARK  Name = 
REMARK  11 active torsions:
REMARK  status: ('A' for Active; 'I' for Inactive)
REMARK    1  A    between atoms: C_1  and  C_2
REMARK    2  A    between atoms: C_2  and  C_3
REMARK    3  A    between atoms: C_3  and  C_4
REMARK    4  A    between atoms: C_9  and  C_11
REMARK    5  A    between atoms: C_11  and  C_12
REMARK    6  A    between atoms: C_12  and  C_13
REMARK    7  A    between atoms: N_18  and  C_19
REMARK    8  A    between atoms: C_19  and  C_20
REMARK    9  A    between atoms: C_20  and  N_21
REMARK   10  A    between atoms: C_22  and  C_23
REMARK   11  A    between atoms: C_26  and  C_27
REMARK                            x       y       z     vdW  Elec       q    Type
REMARK                         _______ _______ _______ _____ _____    ______ ____
ROOT
ATOM      1  C   UNL     1       2.478   7.340  19.100  0.00  0.00    +0.000 C 
ATOM      2  O   UNL     1       3.109   7.571  18.067  0.00  0.00    +0.000 OA
ATOM      3  N   UNL     1       1.619   8.267  19.666  0.00  0.00    +0.000 N 
ATOM      4  C   UNL     1       1.468   9.548  18.977  0.00  0.00    +0.000 C 
ATOM      5  C   UNL     1       0.082  10.163  19.225  0.00  0.00    +0.000 C 
ATOM      6  N   UNL     1      -0.265  10.311  20.654  0.00  0.00    +0.000 NA
ATOM      7  C   UNL     1      -0.145   8.978  21.296  0.00  0.00    +0.000 C 
ATOM      8  C   UNL     1       1.216   8.276  21.084  0.00  0.00    +0.000 C 
ENDROOT
BRANCH   1   9
ATOM      9  C   UNL     1       2.575   5.978  19.738  0.00  0.00    +0.000 C 
BRANCH   9  10
ATOM     10  C   UNL     1       3.996   5.440  19.657  0.00  0.00    +0.000 C 
BRANCH  10  16
ATOM     11  C   UNL     1       6.628   4.573  14.360  0.00  0.00    +0.000 A 
ATOM     12  N   UNL     1       7.400   5.548  14.795  0.00  0.00    +0.000 NA
ATOM     13  N   UNL     1       7.079   5.924  16.086  0.00  0.00    +0.000 NA
ATOM     14  C   UNL     1       6.044   5.259  16.550  0.00  0.00    +0.000 A 
ATOM     15  N   UNL     1       5.524   5.472  17.803  0.00  0.00    +0.000 N 
ATOM     16  C   UNL     1       4.295   5.036  18.237  0.00  0.00    +0.000 C 
ATOM     17  O   UNL     1       3.474   4.369  17.614  0.00  0.00    +0.000 OA
ATOM     18  S   UNL     1       5.446   4.066  15.493  0.00  0.00    +0.000 S 
ATOM     19  H   UNL     1       6.054   6.131  18.356  0.00  0.00    +0.000 HD
BRANCH  11  20
ATOM     20  C   UNL     1       6.737   3.909  13.027  0.00  0.00    +0.000 C 
BRANCH  20  22
ATOM     21  C   UNL     1       5.572   2.331  11.449  0.00  0.00    +0.000 C 
ATOM     22  C   UNL     1       5.391   3.360  12.554  0.00  0.00    +0.000 C 
ENDBRANCH  20  22
ENDBRANCH  11  20
ENDBRANCH  10  16
ENDBRANCH   9  10
ENDBRANCH   1   9
BRANCH   6  23
ATOM     23  C   UNL     1       0.570  11.318  21.347  0.00  0.00    +0.000 C 
BRANCH  23  24
ATOM     24  C   UNL     1      -0.099  12.696  21.486  0.00  0.00    +0.000 C 
BRANCH  24  25
ATOM     25  N   UNL     1      -1.515  12.655  21.132  0.00  0.00    +0.000 N 
ATOM     26  C   UNL     1      -2.041  12.813  19.861  0.00  0.00    +0.000 A 
ATOM     27  C   UNL     1      -1.256  13.093  18.625  0.00  0.00    +0.000 C 
ATOM     28  C   UNL     1      -3.408  12.655  19.962  0.00  0.00    +0.000 A 
ATOM     29  C   UNL     1      -3.721  12.416  21.313  0.00  0.00    +0.000 A 
ATOM     30  C   UNL     1      -2.542  12.426  22.028  0.00  0.00    +0.000 A 
ATOM     31  C   UNL     1      -2.341  12.229  23.490  0.00  0.00    +0.000 C 
ENDBRANCH  24  25
ENDBRANCH  23  24
ENDBRANCH   6  23
TORSDOF 8
ENDMDL
MODEL 7
REMARK VINA RESULT:      -7.0      3.585      5.436
REMARK  Name = 
REMARK  11 active torsions:
REMARK  status: ('A' for Active; 'I' for Inactive)
REMARK    1  A    between atoms: C_1  and  C_2
REMARK    2  A    between atoms: C_2  and  C_3
REMARK    3  A    between atoms: C_3  and  C_4
REMARK    4  A    between atoms: C_9  and  C_11
REMARK    5  A    between atoms: C_11  and  C_12
REMARK    6  A    between atoms: C_12  and  C_13
REMARK    7  A    between atoms: N_18  and  C_19
REMARK    8  A    between atoms: C_19  and  C_20
REMARK    9  A    between atoms: C_20  and  N_21
REMARK   10  A    between atoms: C_22  and  C_23
REMARK   11  A    between atoms: C_26  and  C_27
REMARK                            x       y       z     vdW  Elec       q    Type
REMARK                         _______ _______ _______ _____ _____    ______ ____
ROOT
ATOM      1  C   UNL     1       0.539   9.842  21.511  0.00  0.00    +0.000 C 
ATOM      2  O   UNL     1       0.944   9.457  22.609  0.00  0.00    +0.000 OA
ATOM      3  N   UNL     1      -0.362  10.885  21.379  0.00  0.00    +0.000 N 
ATOM      4  C   UNL     1      -0.814  11.539  22.606  0.00  0.00    +0.000 C 
ATOM      5  C   UNL     1      -1.185  13.010  22.360  0.00  0.00    +0.000 C 
ATOM      6  N   UNL     1      -2.178  13.209  21.283  0.00  0.00    +0.000 NA
ATOM      7  C   UNL     1      -1.651  12.572  20.049  0.00  0.00    +0.000 C 
ATOM      8  C   UNL     1      -1.236  11.092  20.210  0.00  0.00    +0.000 C 
ENDROOT
BRANCH   1   9
ATOM      9  C   UNL     1       1.093   9.217  20.255  0.00  0.00    +0.000 C 
BRANCH   9  10
ATOM     10  C   UNL     1       1.434   7.753  20.483  0.00  0.00    +0.000 C 
BRANCH  10  16
ATOM     11  C   UNL     1       5.860   4.852  17.700  0.00  0.00    +0.000 A 
ATOM     12  N   UNL     1       6.017   4.326  18.898  0.00  0.00    +0.000 NA
ATOM     13  N   UNL     1       5.044   4.757  19.782  0.00  0.00    +0.000 NA
ATOM     14  C   UNL     1       4.231   5.632  19.232  0.00  0.00    +0.000 A 
ATOM     15  N   UNL     1       3.197   6.220  19.918  0.00  0.00    +0.000 N 
ATOM     16  C   UNL     1       2.504   7.333  19.507  0.00  0.00    +0.000 C 
ATOM     17  O   UNL     1       2.655   7.969  18.469  0.00  0.00    +0.000 OA
ATOM     18  S   UNL     1       4.526   5.923  17.580  0.00  0.00    +0.000 S 
ATOM     19  H   UNL     1       3.077   5.864  20.856  0.00  0.00    +0.000 HD
BRANCH  11  20
ATOM     20  C   UNL     1       6.711   4.563  16.509  0.00  0.00    +0.000 C 
BRANCH  20  22
ATOM     21  C   UNL     1       5.606   4.356  14.256  0.00  0.00    +0.000 C 
ATOM     22  C   UNL     1       6.012   3.624  15.525  0.00  0.00    +0.000 C 
ENDBRANCH  20  22
ENDBRANCH  11  20
ENDBRANCH  10  16
ENDBRANCH   9  10
ENDBRANCH   1   9
BRANCH   6  23
ATOM     23  C   UNL     1      -3.516  12.680  21.631  0.00  0.00    +0.000 C 
BRANCH  23  24
ATOM     24  C   UNL     1      -4.672  13.639  21.298  0.00  0.00    +0.000 C 
BRANCH  24  25
ATOM     25  N   UNL     1      -5.759  13.543  22.267  0.00  0.00    +0.000 N 
ATOM     26  C   UNL     1      -5.871  14.271  23.440  0.00  0.00    +0.000 A 
ATOM     27  C   UNL     1      -4.878  15.261  23.945  0.00  0.00    +0.000 C 
ATOM     28  C   UNL     1      -7.065  13.912  24.032  0.00  0.00    +0.000 A 
ATOM     29  C   UNL     1      -7.679  12.939  23.220  0.00  0.00    +0.000 A 
ATOM     30  C   UNL     1      -6.858  12.714  22.136  0.00  0.00    +0.000 A 
ATOM     31  C   UNL     1      -7.058  11.774  20.998  0.00  0.00    +0.000 C 
ENDBRANCH  24  25
ENDBRANCH  23  24
ENDBRANCH   6  23
TORSDOF 8
ENDMDL
MODEL 8
REMARK VINA RESULT:      -7.0      4.188     11.167
REMARK  Name = 
REMARK  11 active torsions:
REMARK  status: ('A' for Active; 'I' for Inactive)
REMARK    1  A    between atoms: C_1  and  C_2
REMARK    2  A    between atoms: C_2  and  C_3
REMARK    3  A    between atoms: C_3  and  C_4
REMARK    4  A    between atoms: C_9  and  C_11
REMARK    5  A    between atoms: C_11  and  C_12
REMARK    6  A    between atoms: C_12  and  C_13
REMARK    7  A    between atoms: N_18  and  C_19
REMARK    8  A    between atoms: C_19  and  C_20
REMARK    9  A    between atoms: C_20  and  N_21
REMARK   10  A    between atoms: C_22  and  C_23
REMARK   11  A    between atoms: C_26  and  C_27
REMARK                            x       y       z     vdW  Elec       q    Type
REMARK                         _______ _______ _______ _____ _____    ______ ____
ROOT
ATOM      1  C   UNL     1       0.778   9.241  20.256  0.00  0.00    +0.000 C 
ATOM      2  O   UNL     1       0.455   9.417  21.432  0.00  0.00    +0.000 OA
ATOM      3  N   UNL     1       1.492   8.129  19.842  0.00  0.00    +0.000 N 
ATOM      4  C   UNL     1       1.843   7.142  20.862  0.00  0.00    +0.000 C 
ATOM      5  C   UNL     1       1.962   5.730  20.266  0.00  0.00    +0.000 C 
ATOM      6  N   UNL     1       2.895   5.635  19.124  0.00  0.00    +0.000 NA
ATOM      7  C   UNL     1       2.467   6.619  18.097  0.00  0.00    +0.000 C 
ATOM      8  C   UNL     1       2.306   8.067  18.615  0.00  0.00    +0.000 C 
ENDROOT
BRANCH   1   9
ATOM      9  C   UNL     1       0.320  10.223  19.207  0.00  0.00    +0.000 C 
BRANCH   9  10
ATOM     10  C   UNL     1       0.347  11.645  19.746  0.00  0.00    +0.000 C 
BRANCH  10  16
ATOM     11  C   UNL     1      -4.712  13.018  22.620  0.00  0.00    +0.000 A 
ATOM     12  N   UNL     1      -4.158  12.279  23.561  0.00  0.00    +0.000 NA
ATOM     13  N   UNL     1      -2.886  11.866  23.209  0.00  0.00    +0.000 NA
ATOM     14  C   UNL     1      -2.556  12.260  21.999  0.00  0.00    +0.000 A 
ATOM     15  N   UNL     1      -1.349  11.954  21.420  0.00  0.00    +0.000 N 
ATOM     16  C   UNL     1      -1.057  12.077  20.083  0.00  0.00    +0.000 C 
ATOM     17  O   UNL     1      -1.787  12.500  19.192  0.00  0.00    +0.000 OA
ATOM     18  S   UNL     1      -3.723  13.239  21.237  0.00  0.00    +0.000 S 
ATOM     19  H   UNL     1      -0.716  11.463  22.036  0.00  0.00    +0.000 HD
BRANCH  11  20
ATOM     20  C   UNL     1      -6.059  13.655  22.700  0.00  0.00    +0.000 C 
BRANCH  20  22
ATOM     21  C   UNL     1      -7.906  12.018  23.202  0.00  0.00    +0.000 C 
ATOM     22  C   UNL     1      -7.148  12.759  22.111  0.00  0.00    +0.000 C 
ENDBRANCH  20  22
ENDBRANCH  11  20
ENDBRANCH  10  16
ENDBRANCH   9  10
ENDBRANCH   1   9
BRANCH   6  23
ATOM     23  C   UNL     1       4.307   5.848  19.516  0.00  0.00    +0.000 C 
BRANCH  23  24
ATOM     24  C   UNL     1       5.249   4.705  19.103  0.00  0.00    +0.000 C 
BRANCH  24  25
ATOM     25  N   UNL     1       5.487   4.683  17.663  0.00  0.00    +0.000 N 
ATOM     26  C   UNL     1       4.806   3.912  16.737  0.00  0.00    +0.000 A 
ATOM     27  C   UNL     1       3.728   2.930  17.049  0.00  0.00    +0.000 C 
ATOM     28  C   UNL     1       5.307   4.232  15.491  0.00  0.00    +0.000 A 
ATOM     29  C   UNL     1       6.318   5.196  15.662  0.00  0.00    +0.000 A 
ATOM     30  C   UNL     1       6.425   5.462  17.011  0.00  0.00    +0.000 A 
ATOM     31  C   UNL     1       7.351   6.401  17.701  0.00  0.00    +0.000 C 
ENDBRANCH  24  25
ENDBRANCH  23  24
ENDBRANCH   6  23
TORSDOF 8
ENDMDL
MODEL 9
REMARK VINA RESULT:      -6.9      5.713     10.509
REMARK  Name = 
REMARK  11 active torsions:
REMARK  status: ('A' for Active; 'I' for Inactive)
REMARK    1  A    between atoms: C_1  and  C_2
REMARK    2  A    between atoms: C_2  and  C_3
REMARK    3  A    between atoms: C_3  and  C_4
REMARK    4  A    between atoms: C_9  and  C_11
REMARK    5  A    between atoms: C_11  and  C_12
REMARK    6  A    between atoms: C_12  and  C_13
REMARK    7  A    between atoms: N_18  and  C_19
REMARK    8  A    between atoms: C_19  and  C_20
REMARK    9  A    between atoms: C_20  and  N_21
REMARK   10  A    between atoms: C_22  and  C_23
REMARK   11  A    between atoms: C_26  and  C_27
REMARK                            x       y       z     vdW  Elec       q    Type
REMARK                         _______ _______ _______ _____ _____    ______ ____
ROOT
ATOM      1  C   UNL     1       7.929   8.798  17.942  0.00  0.00    +0.000 C 
ATOM      2  O   UNL     1       7.357   9.619  17.223  0.00  0.00    +0.000 OA
ATOM      3  N   UNL     1       7.639   7.445  17.898  0.00  0.00    +0.000 N 
ATOM      4  C   UNL     1       6.623   7.010  16.940  0.00  0.00    +0.000 C 
ATOM      5  C   UNL     1       6.870   5.567  16.471  0.00  0.00    +0.000 C 
ATOM      6  N   UNL     1       6.984   4.587  17.571  0.00  0.00    +0.000 NA
ATOM      7  C   UNL     1       8.059   5.047  18.487  0.00  0.00    +0.000 C 
ATOM      8  C   UNL     1       7.900   6.497  18.996  0.00  0.00    +0.000 C 
ENDROOT
BRANCH   1   9
ATOM      9  C   UNL     1       9.041   9.258  18.851  0.00  0.00    +0.000 C 
BRANCH   9  10
ATOM     10  C   UNL     1       9.590  10.603  18.401  0.00  0.00    +0.000 C 
BRANCH  10  16
ATOM     11  C   UNL     1       8.491  13.332  23.606  0.00  0.00    +0.000 A 
ATOM     12  N   UNL     1       8.093  12.121  23.942  0.00  0.00    +0.000 NA
ATOM     13  N   UNL     1       8.311  11.206  22.928  0.00  0.00    +0.000 NA
ATOM     14  C   UNL     1       8.808  11.773  21.851  0.00  0.00    +0.000 A 
ATOM     15  N   UNL     1       9.089  11.073  20.704  0.00  0.00    +0.000 N 
ATOM     16  C   UNL     1       9.328  11.631  19.472  0.00  0.00    +0.000 C 
ATOM     17  O   UNL     1       9.365  12.824  19.184  0.00  0.00    +0.000 OA
ATOM     18  S   UNL     1       9.137  13.435  22.021  0.00  0.00    +0.000 S 
ATOM     19  H   UNL     1       8.947  10.076  20.792  0.00  0.00    +0.000 HD
BRANCH  11  20
ATOM     20  C   UNL     1       8.437  14.537  24.485  0.00  0.00    +0.000 C 
BRANCH  20  22
ATOM     21  C   UNL     1       6.849  16.133  25.612  0.00  0.00    +0.000 C 
ATOM     22  C   UNL     1       7.083  15.241  24.402  0.00  0.00    +0.000 C 
ENDBRANCH  20  22
ENDBRANCH  11  20
ENDBRANCH  10  16
ENDBRANCH   9  10
ENDBRANCH   1   9
BRANCH   6  23
ATOM     23  C   UNL     1       5.709   4.387  18.298  0.00  0.00    +0.000 C 
BRANCH  23  24
ATOM     24  C   UNL     1       4.493   4.177  17.380  0.00  0.00    +0.000 C 
BRANCH  24  25
ATOM     25  N   UNL     1       3.273   3.916  18.138  0.00  0.00    +0.000 N 
ATOM     26  C   UNL     1       2.861   2.684  18.616  0.00  0.00    +0.000 A 
ATOM     27  C   UNL     1       3.572   1.390  18.410  0.00  0.00    +0.000 C 
ATOM     28  C   UNL     1       1.689   2.889  19.316  0.00  0.00    +0.000 A 
ATOM     29  C   UNL     1       1.373   4.259  19.246  0.00  0.00    +0.000 A 
ATOM     30  C   UNL     1       2.358   4.882  18.509  0.00  0.00    +0.000 A 
ATOM     31  C   UNL     1       2.475   6.322  18.147  0.00  0.00    +0.000 C 
ENDBRANCH  24  25
ENDBRANCH  23  24
ENDBRANCH   6  23
TORSDOF 8
ENDMDL
