MODEL 1
REMARK VINA RESULT:      -7.3      0.000      0.000
REMARK  Name = 
REMARK  9 active torsions:
REMARK  status: ('A' for Active; 'I' for Inactive)
REMARK    1  A    between atoms: C_1  and  C_2
REMARK    2  A    between atoms: C_2  and  N_3
REMARK    3  A    between atoms: C_5  and  C_6
REMARK    4  A    between atoms: C_7  and  N_8
REMARK    5  A    between atoms: C_9  and  C_11
REMARK    6  A    between atoms: C_12  and  C_13
REMARK    7  A    between atoms: N_16  and  C_17
REMARK    8  A    between atoms: C_18  and  C_19
REMARK    9  A    between atoms: C_20  and  C_21
REMARK                            x       y       z     vdW  Elec       q    Type
REMARK                         _______ _______ _______ _____ _____    ______ ____
ROOT
ATOM      1  N   UNL     1       6.372   7.389  16.939  0.00  0.00    +0.000 N 
ATOM      2  C   UNL     1       7.474   7.554  17.768  0.00  0.00    +0.000 C 
ATOM      3  O   UNL     1       7.874   6.739  18.577  0.00  0.00    +0.000 OA
ATOM      4  H   UNL     1       6.226   8.020  16.166  0.00  0.00    +0.000 HD
ENDROOT
BRANCH   1   9
ATOM      5  N   UNL     1       3.999   4.798  17.445  0.00  0.00    +0.000 N 
ATOM      6  N   UNL     1       4.940   4.062  16.828  0.00  0.00    +0.000 NA
ATOM      7  C   UNL     1       5.898   4.945  16.517  0.00  0.00    +0.000 A 
ATOM      8  C   UNL     1       7.133   4.503  15.819  0.00  0.00    +0.000 C 
ATOM      9  C   UNL     1       5.591   6.246  16.997  0.00  0.00    +0.000 A 
ATOM     10  C   UNL     1       4.318   6.135  17.532  0.00  0.00    +0.000 A 
ATOM     11  C   UNL     1       3.333   7.136  18.016  0.00  0.00    +0.000 C 
BRANCH   5  13
ATOM     12  C   UNL     1       2.618   2.731  17.398  0.00  0.00    +0.000 C 
ATOM     13  C   UNL     1       2.796   4.141  17.936  0.00  0.00    +0.000 C 
ENDBRANCH   5  13
ENDBRANCH   1   9
BRANCH   2  14
ATOM     14  C   UNL     1       8.251   8.801  17.486  0.00  0.00    +0.000 C 
ATOM     15  C   UNL     1       8.580   9.537  18.558  0.00  0.00    +0.000 C 
BRANCH  15  16
ATOM     16  C   UNL     1       9.451  10.657  18.613  0.00  0.00    +0.000 A 
ATOM     17  C   UNL     1      10.288  11.218  17.636  0.00  0.00    +0.000 A 
ATOM     18  N   UNL     1      11.016  12.231  18.116  0.00  0.00    +0.000 NA
ATOM     19  N   UNL     1      10.638  12.312  19.408  0.00  0.00    +0.000 N 
ATOM     20  C   UNL     1      11.271  13.286  20.269  0.00  0.00    +0.000 C 
ATOM     21  C   UNL     1       9.681  11.394  19.760  0.00  0.00    +0.000 A 
ATOM     22  C   UNL     1       9.085  11.278  21.119  0.00  0.00    +0.000 C 
ENDBRANCH  15  16
ENDBRANCH   2  14
TORSDOF 4
ENDMDL
MODEL 2
REMARK VINA RESULT:      -7.3      1.145      1.405
REMARK  Name = 
REMARK  9 active torsions:
REMARK  status: ('A' for Active; 'I' for Inactive)
REMARK    1  A    between atoms: C_1  and  C_2
REMARK    2  A    between atoms: C_2  and  N_3
REMARK    3  A    between atoms: C_5  and  C_6
REMARK    4  A    between atoms: C_7  and  N_8
REMARK    5  A    between atoms: C_9  and  C_11
REMARK    6  A    between atoms: C_12  and  C_13
REMARK    7  A    between atoms: N_16  and  C_17
REMARK    8  A    between atoms: C_18  and  C_19
REMARK    9  A    between atoms: C_20  and  C_21
REMARK                            x       y       z     vdW  Elec       q    Type
REMARK                         _______ _______ _______ _____ _____    ______ ____
ROOT
ATOM      1  N   UNL     1       6.529   7.325  16.828  0.00  0.00    +0.000 N 
ATOM      2  C   UNL     1       7.553   7.647  17.710  0.00  0.00    +0.000 C 
ATOM      3  O   UNL     1       8.009   6.906  18.559  0.00  0.00    +0.000 OA
ATOM      4  H   UNL     1       6.347   7.917  16.033  0.00  0.00    +0.000 HD
ENDROOT
BRANCH   1   9
ATOM      5  N   UNL     1       4.661   4.374  17.461  0.00  0.00    +0.000 N 
ATOM      6  N   UNL     1       5.398   3.905  16.438  0.00  0.00    +0.000 NA
ATOM      7  C   UNL     1       6.129   4.957  16.048  0.00  0.00    +0.000 A 
ATOM      8  C   UNL     1       7.092   4.830  14.924  0.00  0.00    +0.000 C 
ATOM      9  C   UNL     1       5.900   6.091  16.872  0.00  0.00    +0.000 A 
ATOM     10  C   UNL     1       4.889   5.704  17.736  0.00  0.00    +0.000 A 
ATOM     11  C   UNL     1       4.048   6.449  18.707  0.00  0.00    +0.000 C 
BRANCH   5  13
ATOM     12  C   UNL     1       2.526   3.110  17.310  0.00  0.00    +0.000 C 
ATOM     13  C   UNL     1       3.743   3.473  18.144  0.00  0.00    +0.000 C 
ENDBRANCH   5  13
ENDBRANCH   1   9
BRANCH   2  14
ATOM     14  C   UNL     1       8.176   8.980  17.438  0.00  0.00    +0.000 C 
ATOM     15  C   UNL     1       8.592   9.658  18.518  0.00  0.00    +0.000 C 
BRANCH  15  16
ATOM     16  C   UNL     1       9.368  10.847  18.555  0.00  0.00    +0.000 A 
ATOM     17  C   UNL     1      10.603  11.119  19.164  0.00  0.00    +0.000 A 
ATOM     18  N   UNL     1      10.959  12.400  19.032  0.00  0.00    +0.000 NA
ATOM     19  N   UNL     1       9.942  12.946  18.335  0.00  0.00    +0.000 N 
ATOM     20  C   UNL     1       9.963  14.361  18.046  0.00  0.00    +0.000 C 
ATOM     21  C   UNL     1       8.958  12.047  18.005  0.00  0.00    +0.000 A 
ATOM     22  C   UNL     1       7.733  12.388  17.230  0.00  0.00    +0.000 C 
ENDBRANCH  15  16
ENDBRANCH   2  14
TORSDOF 4
ENDMDL
MODEL 3
REMARK VINA RESULT:      -7.1      1.197      1.736
REMARK  Name = 
REMARK  9 active torsions:
REMARK  status: ('A' for Active; 'I' for Inactive)
REMARK    1  A    between atoms: C_1  and  C_2
REMARK    2  A    between atoms: C_2  and  N_3
REMARK    3  A    between atoms: C_5  and  C_6
REMARK    4  A    between atoms: C_7  and  N_8
REMARK    5  A    between atoms: C_9  and  C_11
REMARK    6  A    between atoms: C_12  and  C_13
REMARK    7  A    between atoms: N_16  and  C_17
REMARK    8  A    between atoms: C_18  and  C_19
REMARK    9  A    between atoms: C_20  and  C_21
REMARK                            x       y       z     vdW  Elec       q    Type
REMARK                         _______ _______ _______ _____ _____    ______ ____
ROOT
ATOM      1  N   UNL     1       7.282   6.200  18.217  0.00  0.00    +0.000 N 
ATOM      2  C   UNL     1       7.553   7.493  17.786  0.00  0.00    +0.000 C 
ATOM      3  O   UNL     1       6.962   8.076  16.898  0.00  0.00    +0.000 OA
ATOM      4  H   UNL     1       7.680   5.865  19.081  0.00  0.00    +0.000 HD
ENDROOT
BRANCH   1   9
ATOM      5  N   UNL     1       4.487   4.240  17.243  0.00  0.00    +0.000 N 
ATOM      6  N   UNL     1       5.211   4.094  16.119  0.00  0.00    +0.000 NA
ATOM      7  C   UNL     1       6.298   4.849  16.324  0.00  0.00    +0.000 A 
ATOM      8  C   UNL     1       7.359   4.939  15.290  0.00  0.00    +0.000 C 
ATOM      9  C   UNL     1       6.296   5.432  17.620  0.00  0.00    +0.000 A 
ATOM     10  C   UNL     1       5.073   5.078  18.167  0.00  0.00    +0.000 A 
ATOM     11  C   UNL     1       4.350   5.507  19.391  0.00  0.00    +0.000 C 
BRANCH   5  13
ATOM     12  C   UNL     1       3.370   2.125  17.918  0.00  0.00    +0.000 C 
ATOM     13  C   UNL     1       3.221   3.533  17.367  0.00  0.00    +0.000 C 
ENDBRANCH   5  13
ENDBRANCH   1   9
BRANCH   2  14
ATOM     14  C   UNL     1       8.576   8.197  18.620  0.00  0.00    +0.000 C 
ATOM     15  C   UNL     1       8.598   9.533  18.507  0.00  0.00    +0.000 C 
BRANCH  15  16
ATOM     16  C   UNL     1       9.327  10.463  19.295  0.00  0.00    +0.000 A 
ATOM     17  C   UNL     1       9.259  10.757  20.666  0.00  0.00    +0.000 A 
ATOM     18  N   UNL     1      10.067  11.766  21.006  0.00  0.00    +0.000 NA
ATOM     19  N   UNL     1      10.652  12.114  19.842  0.00  0.00    +0.000 N 
ATOM     20  C   UNL     1      11.571  13.229  19.819  0.00  0.00    +0.000 C 
ATOM     21  C   UNL     1      10.254  11.347  18.775  0.00  0.00    +0.000 A 
ATOM     22  C   UNL     1      10.756  11.516  17.384  0.00  0.00    +0.000 C 
ENDBRANCH  15  16
ENDBRANCH   2  14
TORSDOF 4
ENDMDL
MODEL 4
REMARK VINA RESULT:      -7.1      1.464      1.780
REMARK  Name = 
REMARK  9 active torsions:
REMARK  status: ('A' for Active; 'I' for Inactive)
REMARK    1  A    between atoms: C_1  and  C_2
REMARK    2  A    between atoms: C_2  and  N_3
REMARK    3  A    between atoms: C_5  and  C_6
REMARK    4  A    between atoms: C_7  and  N_8
REMARK    5  A    between atoms: C_9  and  C_11
REMARK    6  A    between atoms: C_12  and  C_13
REMARK    7  A    between atoms: N_16  and  C_17
REMARK    8  A    between atoms: C_18  and  C_19
REMARK    9  A    between atoms: C_20  and  C_21
REMARK                            x       y       z     vdW  Elec       q    Type
REMARK                         _______ _______ _______ _____ _____    ______ ____
ROOT
ATOM      1  N   UNL     1       7.434   6.097  17.723  0.00  0.00    +0.000 N 
ATOM      2  C   UNL     1       7.264   7.459  17.514  0.00  0.00    +0.000 C 
ATOM      3  O   UNL     1       6.283   7.977  17.017  0.00  0.00    +0.000 OA
ATOM      4  H   UNL     1       8.181   5.769  18.316  0.00  0.00    +0.000 HD
ENDROOT
BRANCH   1   9
ATOM      5  N   UNL     1       4.803   3.748  17.321  0.00  0.00    +0.000 N 
ATOM      6  N   UNL     1       5.325   3.647  16.085  0.00  0.00    +0.000 NA
ATOM      7  C   UNL     1       6.318   4.546  16.072  0.00  0.00    +0.000 A 
ATOM      8  C   UNL     1       7.153   4.729  14.858  0.00  0.00    +0.000 C 
ATOM      9  C   UNL     1       6.470   5.181  17.334  0.00  0.00    +0.000 A 
ATOM     10  C   UNL     1       5.426   4.695  18.104  0.00  0.00    +0.000 A 
ATOM     11  C   UNL     1       4.884   5.080  19.432  0.00  0.00    +0.000 C 
BRANCH   5  13
ATOM     12  C   UNL     1       2.330   3.509  17.408  0.00  0.00    +0.000 C 
ATOM     13  C   UNL     1       3.688   2.888  17.691  0.00  0.00    +0.000 C 
ENDBRANCH   5  13
ENDBRANCH   1   9
BRANCH   2  14
ATOM     14  C   UNL     1       8.361   8.293  18.096  0.00  0.00    +0.000 C 
ATOM     15  C   UNL     1       8.258   9.614  17.893  0.00  0.00    +0.000 C 
BRANCH  15  16
ATOM     16  C   UNL     1       9.041  10.650  18.469  0.00  0.00    +0.000 A 
ATOM     17  C   UNL     1      10.050  10.603  19.444  0.00  0.00    +0.000 A 
ATOM     18  N   UNL     1      10.489  11.822  19.775  0.00  0.00    +0.000 NA
ATOM     19  N   UNL     1       9.752  12.647  19.004  0.00  0.00    +0.000 N 
ATOM     20  C   UNL     1       9.924  14.076  19.134  0.00  0.00    +0.000 C 
ATOM     21  C   UNL     1       8.871  11.991  18.181  0.00  0.00    +0.000 A 
ATOM     22  C   UNL     1       7.950  12.665  17.225  0.00  0.00    +0.000 C 
ENDBRANCH  15  16
ENDBRANCH   2  14
TORSDOF 4
ENDMDL
MODEL 5
REMARK VINA RESULT:      -7.0      5.171      7.590
REMARK  Name = 
REMARK  9 active torsions:
REMARK  status: ('A' for Active; 'I' for Inactive)
REMARK    1  A    between atoms: C_1  and  C_2
REMARK    2  A    between atoms: C_2  and  N_3
REMARK    3  A    between atoms: C_5  and  C_6
REMARK    4  A    between atoms: C_7  and  N_8
REMARK    5  A    between atoms: C_9  and  C_11
REMARK    6  A    between atoms: C_12  and  C_13
REMARK    7  A    between atoms: N_16  and  C_17
REMARK    8  A    between atoms: C_18  and  C_19
REMARK    9  A    between atoms: C_20  and  C_21
REMARK                            x       y       z     vdW  Elec       q    Type
REMARK                         _______ _______ _______ _____ _____    ______ ____
ROOT
ATOM      1  N   UNL     1       3.140   5.899  19.788  0.00  0.00    +0.000 N 
ATOM      2  C   UNL     1       2.445   7.082  19.570  0.00  0.00    +0.000 C 
ATOM      3  O   UNL     1       2.236   7.584  18.482  0.00  0.00    +0.000 OA
ATOM      4  H   UNL     1       3.099   5.452  20.691  0.00  0.00    +0.000 HD
ENDROOT
BRANCH   1   9
ATOM      5  N   UNL     1       5.095   4.376  17.247  0.00  0.00    +0.000 N 
ATOM      6  N   UNL     1       3.897   3.904  16.859  0.00  0.00    +0.000 NA
ATOM      7  C   UNL     1       3.046   4.362  17.787  0.00  0.00    +0.000 A 
ATOM      8  C   UNL     1       1.596   4.052  17.698  0.00  0.00    +0.000 C 
ATOM      9  C   UNL     1       3.701   5.187  18.740  0.00  0.00    +0.000 A 
ATOM     10  C   UNL     1       5.043   5.120  18.405  0.00  0.00    +0.000 A 
ATOM     11  C   UNL     1       6.280   5.574  19.089  0.00  0.00    +0.000 C 
BRANCH   5  13
ATOM     12  C   UNL     1       6.110   4.450  14.978  0.00  0.00    +0.000 C 
ATOM     13  C   UNL     1       6.270   4.072  16.442  0.00  0.00    +0.000 C 
ENDBRANCH   5  13
ENDBRANCH   1   9
BRANCH   2  14
ATOM     14  C   UNL     1       1.825   7.647  20.809  0.00  0.00    +0.000 C 
ATOM     15  C   UNL     1       1.333   8.889  20.698  0.00  0.00    +0.000 C 
BRANCH  15  16
ATOM     16  C   UNL     1       0.543   9.601  21.640  0.00  0.00    +0.000 A 
ATOM     17  C   UNL     1       0.377   9.421  23.022  0.00  0.00    +0.000 A 
ATOM     18  N   UNL     1      -0.528  10.260  23.535  0.00  0.00    +0.000 NA
ATOM     19  N   UNL     1      -0.939  10.978  22.469  0.00  0.00    +0.000 N 
ATOM     20  C   UNL     1      -1.976  11.970  22.644  0.00  0.00    +0.000 C 
ATOM     21  C   UNL     1      -0.312  10.633  21.299  0.00  0.00    +0.000 A 
ATOM     22  C   UNL     1      -0.573  11.277  19.982  0.00  0.00    +0.000 C 
ENDBRANCH  15  16
ENDBRANCH   2  14
TORSDOF 4
ENDMDL
MODEL 6
REMARK VINA RESULT:      -6.8      4.936      7.345
REMARK  Name = 
REMARK  9 active torsions:
REMARK  status: ('A' for Active; 'I' for Inactive)
REMARK    1  A    between atoms: C_1  and  C_2
REMARK    2  A    between atoms: C_2  and  N_3
REMARK    3  A    between atoms: C_5  and  C_6
REMARK    4  A    between atoms: C_7  and  N_8
REMARK    5  A    between atoms: C_9  and  C_11
REMARK    6  A    between atoms: C_12  and  C_13
REMARK    7  A    between atoms: N_16  and  C_17
REMARK    8  A    between atoms: C_18  and  C_19
REMARK    9  A    between atoms: C_20  and  C_21
REMARK                            x       y       z     vdW  Elec       q    Type
REMARK                         _______ _______ _______ _____ _____    ______ ____
ROOT
ATOM      1  N   UNL     1       2.919   6.874  18.766  0.00  0.00    +0.000 N 
ATOM      2  C   UNL     1       2.540   8.053  18.137  0.00  0.00    +0.000 C 
ATOM      3  O   UNL     1       2.581   8.255  16.939  0.00  0.00    +0.000 OA
ATOM      4  H   UNL     1       2.670   6.717  19.730  0.00  0.00    +0.000 HD
ENDROOT
BRANCH   1   9
ATOM      5  N   UNL     1       4.678   4.513  16.782  0.00  0.00    +0.000 N 
ATOM      6  N   UNL     1       3.555   3.795  16.964  0.00  0.00    +0.000 NA
ATOM      7  C   UNL     1       2.801   4.558  17.766  0.00  0.00    +0.000 A 
ATOM      8  C   UNL     1       1.455   4.100  18.194  0.00  0.00    +0.000 C 
ATOM      9  C   UNL     1       3.425   5.803  18.047  0.00  0.00    +0.000 A 
ATOM     10  C   UNL     1       4.674   5.716  17.453  0.00  0.00    +0.000 A 
ATOM     11  C   UNL     1       5.889   6.568  17.524  0.00  0.00    +0.000 C 
BRANCH   5  13
ATOM     12  C   UNL     1       5.603   4.392  14.478  0.00  0.00    +0.000 C 
ATOM     13  C   UNL     1       5.733   3.976  15.934  0.00  0.00    +0.000 C 
ENDBRANCH   5  13
ENDBRANCH   1   9
BRANCH   2  14
ATOM     14  C   UNL     1       1.920   9.051  19.063  0.00  0.00    +0.000 C 
ATOM     15  C   UNL     1       1.281   8.539  20.125  0.00  0.00    +0.000 C 
BRANCH  15  16
ATOM     16  C   UNL     1       0.759   9.236  21.248  0.00  0.00    +0.000 A 
ATOM     17  C   UNL     1       1.029   9.100  22.619  0.00  0.00    +0.000 A 
ATOM     18  N   UNL     1       0.261   9.899  23.366  0.00  0.00    +0.000 NA
ATOM     19  N   UNL     1      -0.502  10.547  22.461  0.00  0.00    +0.000 N 
ATOM     20  C   UNL     1      -1.508  11.476  22.922  0.00  0.00    +0.000 C 
ATOM     21  C   UNL     1      -0.231  10.197  21.162  0.00  0.00    +0.000 A 
ATOM     22  C   UNL     1      -0.921  10.770  19.975  0.00  0.00    +0.000 C 
ENDBRANCH  15  16
ENDBRANCH   2  14
TORSDOF 4
ENDMDL
MODEL 7
REMARK VINA RESULT:      -6.7      4.944      7.170
REMARK  Name = 
REMARK  9 active torsions:
REMARK  status: ('A' for Active; 'I' for Inactive)
REMARK    1  A    between atoms: C_1  and  C_2
REMARK    2  A    between atoms: C_2  and  N_3
REMARK    3  A    between atoms: C_5  and  C_6
REMARK    4  A    between atoms: C_7  and  N_8
REMARK    5  A    between atoms: C_9  and  C_11
REMARK    6  A    between atoms: C_12  and  C_13
REMARK    7  A    between atoms: N_16  and  C_17
REMARK    8  A    between atoms: C_18  and  C_19
REMARK    9  A    between atoms: C_20  and  C_21
REMARK                            x       y       z     vdW  Elec       q    Type
REMARK                         _______ _______ _______ _____ _____    ______ ____
ROOT
ATOM      1  N   UNL     1       2.765   5.839  18.452  0.00  0.00    +0.000 N 
ATOM      2  C   UNL     1       2.653   5.542  19.804  0.00  0.00    +0.000 C 
ATOM      3  O   UNL     1       3.314   4.713  20.399  0.00  0.00    +0.000 OA
ATOM      4  H   UNL     1       2.326   6.668  18.082  0.00  0.00    +0.000 HD
ENDROOT
BRANCH   1   9
ATOM      5  N   UNL     1       5.314   4.654  16.284  0.00  0.00    +0.000 N 
ATOM      6  N   UNL     1       4.579   3.528  16.331  0.00  0.00    +0.000 NA
ATOM      7  C   UNL     1       3.587   3.817  17.183  0.00  0.00    +0.000 A 
ATOM      8  C   UNL     1       2.544   2.806  17.495  0.00  0.00    +0.000 C 
ATOM      9  C   UNL     1       3.656   5.162  17.635  0.00  0.00    +0.000 A 
ATOM     10  C   UNL     1       4.829   5.659  17.091  0.00  0.00    +0.000 A 
ATOM     11  C   UNL     1       5.596   6.911  17.314  0.00  0.00    +0.000 C 
BRANCH   5  13
ATOM     12  C   UNL     1       6.283   4.004  14.089  0.00  0.00    +0.000 C 
ATOM     13  C   UNL     1       6.490   4.697  15.426  0.00  0.00    +0.000 C 
ENDBRANCH   5  13
ENDBRANCH   1   9
BRANCH   2  14
ATOM     14  C   UNL     1       1.717   6.449  20.538  0.00  0.00    +0.000 C 
ATOM     15  C   UNL     1       1.861   7.759  20.288  0.00  0.00    +0.000 C 
BRANCH  15  16
ATOM     16  C   UNL     1       1.012   8.823  20.695  0.00  0.00    +0.000 A 
ATOM     17  C   UNL     1       0.499   9.155  21.959  0.00  0.00    +0.000 A 
ATOM     18  N   UNL     1      -0.337  10.197  21.905  0.00  0.00    +0.000 NA
ATOM     19  N   UNL     1      -0.353  10.528  20.598  0.00  0.00    +0.000 N 
ATOM     20  C   UNL     1      -1.208  11.604  20.153  0.00  0.00    +0.000 C 
ATOM     21  C   UNL     1       0.459   9.739  19.821  0.00  0.00    +0.000 A 
ATOM     22  C   UNL     1       0.630   9.900  18.351  0.00  0.00    +0.000 C 
ENDBRANCH  15  16
ENDBRANCH   2  14
TORSDOF 4
ENDMDL
MODEL 8
REMARK VINA RESULT:      -6.6      1.206      2.288
REMARK  Name = 
REMARK  9 active torsions:
REMARK  status: ('A' for Active; 'I' for Inactive)
REMARK    1  A    between atoms: C_1  and  C_2
REMARK    2  A    between atoms: C_2  and  N_3
REMARK    3  A    between atoms: C_5  and  C_6
REMARK    4  A    between atoms: C_7  and  N_8
REMARK    5  A    between atoms: C_9  and  C_11
REMARK    6  A    between atoms: C_12  and  C_13
REMARK    7  A    between atoms: N_16  and  C_17
REMARK    8  A    between atoms: C_18  and  C_19
REMARK    9  A    between atoms: C_20  and  C_21
REMARK                            x       y       z     vdW  Elec       q    Type
REMARK                         _______ _______ _______ _____ _____    ______ ____
ROOT
ATOM      1  N   UNL     1       6.415   7.592  16.999  0.00  0.00    +0.000 N 
ATOM      2  C   UNL     1       7.538   7.710  17.808  0.00  0.00    +0.000 C 
ATOM      3  O   UNL     1       7.880   6.909  18.657  0.00  0.00    +0.000 OA
ATOM      4  H   UNL     1       6.311   8.190  16.193  0.00  0.00    +0.000 HD
ENDROOT
BRANCH   1   9
ATOM      5  N   UNL     1       4.628   4.525  17.051  0.00  0.00    +0.000 N 
ATOM      6  N   UNL     1       3.626   5.324  17.457  0.00  0.00    +0.000 NA
ATOM      7  C   UNL     1       4.185   6.538  17.543  0.00  0.00    +0.000 A 
ATOM      8  C   UNL     1       3.378   7.713  17.961  0.00  0.00    +0.000 C 
ATOM      9  C   UNL     1       5.543   6.522  17.126  0.00  0.00    +0.000 A 
ATOM     10  C   UNL     1       5.823   5.188  16.880  0.00  0.00    +0.000 A 
ATOM     11  C   UNL     1       7.085   4.452  16.610  0.00  0.00    +0.000 C 
BRANCH   5  13
ATOM     12  C   UNL     1       3.675   2.443  18.020  0.00  0.00    +0.000 C 
ATOM     13  C   UNL     1       4.362   3.109  16.839  0.00  0.00    +0.000 C 
ENDBRANCH   5  13
ENDBRANCH   1   9
BRANCH   2  14
ATOM     14  C   UNL     1       8.410   8.871  17.451  0.00  0.00    +0.000 C 
ATOM     15  C   UNL     1       8.487   9.845  18.369  0.00  0.00    +0.000 C 
BRANCH  15  16
ATOM     16  C   UNL     1       9.362  10.964  18.383  0.00  0.00    +0.000 A 
ATOM     17  C   UNL     1      10.647  11.118  18.925  0.00  0.00    +0.000 A 
ATOM     18  N   UNL     1      11.103  12.368  18.795  0.00  0.00    +0.000 NA
ATOM     19  N   UNL     1      10.098  13.012  18.166  0.00  0.00    +0.000 N 
ATOM     20  C   UNL     1      10.223  14.426  17.899  0.00  0.00    +0.000 C 
ATOM     21  C   UNL     1       9.025  12.206  17.876  0.00  0.00    +0.000 A 
ATOM     22  C   UNL     1       7.793  12.664  17.178  0.00  0.00    +0.000 C 
ENDBRANCH  15  16
ENDBRANCH   2  14
TORSDOF 4
ENDMDL
MODEL 9
REMARK VINA RESULT:      -6.6      5.780      9.266
REMARK  Name = 
REMARK  9 active torsions:
REMARK  status: ('A' for Active; 'I' for Inactive)
REMARK    1  A    between atoms: C_1  and  C_2
REMARK    2  A    between atoms: C_2  and  N_3
REMARK    3  A    between atoms: C_5  and  C_6
REMARK    4  A    between atoms: C_7  and  N_8
REMARK    5  A    between atoms: C_9  and  C_11
REMARK    6  A    between atoms: C_12  and  C_13
REMARK    7  A    between atoms: N_16  and  C_17
REMARK    8  A    between atoms: C_18  and  C_19
REMARK    9  A    between atoms: C_20  and  C_21
REMARK                            x       y       z     vdW  Elec       q    Type
REMARK                         _______ _______ _______ _____ _____    ______ ____
ROOT
ATOM      1  N   UNL     1       0.695   9.653  19.249  0.00  0.00    +0.000 N 
ATOM      2  C   UNL     1       1.659   9.025  18.472  0.00  0.00    +0.000 C 
ATOM      3  O   UNL     1       2.128   9.465  17.440  0.00  0.00    +0.000 OA
ATOM      4  H   UNL     1       0.507   9.320  20.182  0.00  0.00    +0.000 HD
ENDROOT
BRANCH   1   9
ATOM      5  N   UNL     1      -0.277  13.015  18.651  0.00  0.00    +0.000 N 
ATOM      6  N   UNL     1      -1.315  12.415  18.041  0.00  0.00    +0.000 NA
ATOM      7  C   UNL     1      -1.046  11.107  18.139  0.00  0.00    +0.000 A 
ATOM      8  C   UNL     1      -1.983  10.100  17.580  0.00  0.00    +0.000 C 
ATOM      9  C   UNL     1       0.146  10.869  18.874  0.00  0.00    +0.000 A 
ATOM     10  C   UNL     1       0.662  12.129  19.132  0.00  0.00    +0.000 A 
ATOM     11  C   UNL     1       1.962  12.598  19.675  0.00  0.00    +0.000 C 
BRANCH   5  13
ATOM     12  C   UNL     1      -0.910  15.006  19.998  0.00  0.00    +0.000 C 
ATOM     13  C   UNL     1      -0.250  14.468  18.739  0.00  0.00    +0.000 C 
ENDBRANCH   5  13
ENDBRANCH   1   9
BRANCH   2  14
ATOM     14  C   UNL     1       2.206   7.778  19.093  0.00  0.00    +0.000 C 
ATOM     15  C   UNL     1       2.588   6.821  18.236  0.00  0.00    +0.000 C 
BRANCH  15  16
ATOM     16  C   UNL     1       3.296   5.623  18.524  0.00  0.00    +0.000 A 
ATOM     17  C   UNL     1       4.624   5.417  18.930  0.00  0.00    +0.000 A 
ATOM     18  N   UNL     1       4.928   4.118  19.019  0.00  0.00    +0.000 NA
ATOM     19  N   UNL     1       3.784   3.497  18.666  0.00  0.00    +0.000 N 
ATOM     20  C   UNL     1       3.756   2.053  18.599  0.00  0.00    +0.000 C 
ATOM     21  C   UNL     1       2.757   4.359  18.372  0.00  0.00    +0.000 A 
ATOM     22  C   UNL     1       1.390   3.933  17.967  0.00  0.00    +0.000 C 
ENDBRANCH  15  16
ENDBRANCH   2  14
TORSDOF 4
ENDMDL
