MODEL 1
REMARK VINA RESULT:      -7.9      0.000      0.000
REMARK  Name = 
REMARK  8 active torsions:
REMARK  status: ('A' for Active; 'I' for Inactive)
REMARK    1  A    between atoms: C_1  and  C_2
REMARK    2  A    between atoms: C_2  and  O_3
REMARK    3  A    between atoms: O_3  and  C_4
REMARK    4  A    between atoms: C_4  and  C_6
REMARK    5  A    between atoms: C_6  and  N_7
REMARK    6  A    between atoms: N_17  and  C_18
REMARK    7  A    between atoms: C_21  and  C_22
REMARK    8  A    between atoms: N_25  and  C_26
REMARK                            x       y       z     vdW  Elec       q    Type
REMARK                         _______ _______ _______ _____ _____    ______ ____
ROOT
ATOM      1  N   UNL     1       3.650   4.972  18.016  0.00  0.00    +0.000 N 
ATOM      2  C   UNL     1       3.492   6.330  17.788  0.00  0.00    +0.000 A 
ATOM      3  O   UNL     1       3.976   6.940  16.839  0.00  0.00    +0.000 OA
ATOM      4  C   UNL     1       2.700   6.948  18.777  0.00  0.00    +0.000 A 
ATOM      5  C   UNL     1       2.255   6.352  19.919  0.00  0.00    +0.000 A 
ATOM      6  N   UNL     1       1.493   7.219  20.688  0.00  0.00    +0.000 NA
ATOM      7  C   UNL     1       1.496   8.344  20.000  0.00  0.00    +0.000 A 
ATOM      8  N   UNL     1       2.215   8.190  18.850  0.00  0.00    +0.000 N 
ATOM      9  C   UNL     1       2.211   9.341  17.986  0.00  0.00    +0.000 C 
ATOM     10  C   UNL     1       1.646  10.392  18.943  0.00  0.00    +0.000 C 
ATOM     11  N   UNL     1       1.047   9.620  20.060  0.00  0.00    +0.000 N 
ATOM     12  N   UNL     1       2.592   5.037  20.174  0.00  0.00    +0.000 N 
ATOM     13  C   UNL     1       2.304   4.385  21.433  0.00  0.00    +0.000 C 
ATOM     14  C   UNL     1       3.287   4.302  19.199  0.00  0.00    +0.000 A 
ATOM     15  O   UNL     1       3.588   3.117  19.372  0.00  0.00    +0.000 OA
ENDROOT
BRANCH  11  16
ATOM     16  C   UNL     1       0.079  10.232  20.859  0.00  0.00    +0.000 A 
ATOM     17  C   UNL     1      -0.770  11.235  20.374  0.00  0.00    +0.000 A 
ATOM     18  C   UNL     1      -1.684  11.892  21.219  0.00  0.00    +0.000 A 
ATOM     19  C   UNL     1      -1.793  11.544  22.570  0.00  0.00    +0.000 A 
ATOM     20  C   UNL     1      -2.779  12.212  23.482  0.00  0.00    +0.000 C 
ATOM     21  C   UNL     1      -0.967  10.538  23.066  0.00  0.00    +0.000 A 
ATOM     22  C   UNL     1      -0.051   9.901  22.222  0.00  0.00    +0.000 A 
ENDBRANCH  11  16
BRANCH   1  23
ATOM     23  C   UNL     1       4.394   4.224  17.010  0.00  0.00    +0.000 C 
BRANCH  23  24
ATOM     24  C   UNL     1       5.900   4.264  17.219  0.00  0.00    +0.000 C 
ATOM     25  O   UNL     1       6.416   4.445  18.316  0.00  0.00    +0.000 OA
BRANCH  24  26
ATOM     26  O   UNL     1       6.584   4.170  16.044  0.00  0.00    +0.000 OA
BRANCH  26  28
ATOM     27  C   UNL     1       6.195   3.875  13.703  0.00  0.00    +0.000 C 
ATOM     28  C   UNL     1       5.940   4.762  14.910  0.00  0.00    +0.000 C 
ENDBRANCH  26  28
ENDBRANCH  24  26
ENDBRANCH  23  24
ENDBRANCH   1  23
TORSDOF 5
ENDMDL
MODEL 2
REMARK VINA RESULT:      -7.8      0.825      1.543
REMARK  Name = 
REMARK  8 active torsions:
REMARK  status: ('A' for Active; 'I' for Inactive)
REMARK    1  A    between atoms: C_1  and  C_2
REMARK    2  A    between atoms: C_2  and  O_3
REMARK    3  A    between atoms: O_3  and  C_4
REMARK    4  A    between atoms: C_4  and  C_6
REMARK    5  A    between atoms: C_6  and  N_7
REMARK    6  A    between atoms: N_17  and  C_18
REMARK    7  A    between atoms: C_21  and  C_22
REMARK    8  A    between atoms: N_25  and  C_26
REMARK                            x       y       z     vdW  Elec       q    Type
REMARK                         _______ _______ _______ _____ _____    ______ ____
ROOT
ATOM      1  N   UNL     1       3.647   4.509  18.062  0.00  0.00    +0.000 N 
ATOM      2  C   UNL     1       3.513   5.862  17.789  0.00  0.00    +0.000 A 
ATOM      3  O   UNL     1       3.985   6.427  16.807  0.00  0.00    +0.000 OA
ATOM      4  C   UNL     1       2.759   6.532  18.774  0.00  0.00    +0.000 A 
ATOM      5  C   UNL     1       2.331   5.987  19.948  0.00  0.00    +0.000 A 
ATOM      6  N   UNL     1       1.608   6.898  20.704  0.00  0.00    +0.000 NA
ATOM      7  C   UNL     1       1.618   7.997  19.975  0.00  0.00    +0.000 A 
ATOM      8  N   UNL     1       2.304   7.786  18.814  0.00  0.00    +0.000 N 
ATOM      9  C   UNL     1       2.302   8.906  17.910  0.00  0.00    +0.000 C 
ATOM     10  C   UNL     1       1.784  10.003  18.842  0.00  0.00    +0.000 C 
ATOM     11  N   UNL     1       1.197   9.284  20.001  0.00  0.00    +0.000 N 
ATOM     12  N   UNL     1       2.647   4.675  20.242  0.00  0.00    +0.000 N 
ATOM     13  C   UNL     1       2.376   4.074  21.530  0.00  0.00    +0.000 C 
ATOM     14  C   UNL     1       3.301   3.890  19.277  0.00  0.00    +0.000 A 
ATOM     15  O   UNL     1       3.580   2.706  19.485  0.00  0.00    +0.000 OA
ENDROOT
BRANCH  11  16
ATOM     16  C   UNL     1       0.264   9.946  20.801  0.00  0.00    +0.000 A 
ATOM     17  C   UNL     1      -0.519  11.004  20.322  0.00  0.00    +0.000 A 
ATOM     18  C   UNL     1      -1.397  11.707  21.169  0.00  0.00    +0.000 A 
ATOM     19  C   UNL     1      -1.536  11.351  22.515  0.00  0.00    +0.000 A 
ATOM     20  C   UNL     1      -2.485  12.068  23.429  0.00  0.00    +0.000 C 
ATOM     21  C   UNL     1      -0.776  10.291  23.004  0.00  0.00    +0.000 A 
ATOM     22  C   UNL     1       0.104   9.608  22.159  0.00  0.00    +0.000 A 
ENDBRANCH  11  16
BRANCH   1  23
ATOM     23  C   UNL     1       4.349   3.710  17.066  0.00  0.00    +0.000 C 
BRANCH  23  24
ATOM     24  C   UNL     1       5.820   4.070  16.928  0.00  0.00    +0.000 C 
ATOM     25  O   UNL     1       6.412   4.058  15.855  0.00  0.00    +0.000 OA
BRANCH  24  26
ATOM     26  O   UNL     1       6.405   4.311  18.135  0.00  0.00    +0.000 OA
BRANCH  26  28
ATOM     27  C   UNL     1       7.798   5.715  19.480  0.00  0.00    +0.000 C 
ATOM     28  C   UNL     1       7.581   5.128  18.095  0.00  0.00    +0.000 C 
ENDBRANCH  26  28
ENDBRANCH  24  26
ENDBRANCH  23  24
ENDBRANCH   1  23
TORSDOF 5
ENDMDL
MODEL 3
REMARK VINA RESULT:      -7.4      5.339      9.696
REMARK  Name = 
REMARK  8 active torsions:
REMARK  status: ('A' for Active; 'I' for Inactive)
REMARK    1  A    between atoms: C_1  and  C_2
REMARK    2  A    between atoms: C_2  and  O_3
REMARK    3  A    between atoms: O_3  and  C_4
REMARK    4  A    between atoms: C_4  and  C_6
REMARK    5  A    between atoms: C_6  and  N_7
REMARK    6  A    between atoms: N_17  and  C_18
REMARK    7  A    between atoms: C_21  and  C_22
REMARK    8  A    between atoms: N_25  and  C_26
REMARK                            x       y       z     vdW  Elec       q    Type
REMARK                         _______ _______ _______ _____ _____    ______ ____
ROOT
ATOM      1  N   UNL     1      -4.340  12.210  18.992  0.00  0.00    +0.000 N 
ATOM      2  C   UNL     1      -3.211  12.145  19.793  0.00  0.00    +0.000 A 
ATOM      3  O   UNL     1      -3.076  12.736  20.860  0.00  0.00    +0.000 OA
ATOM      4  C   UNL     1      -2.217  11.309  19.245  0.00  0.00    +0.000 A 
ATOM      5  C   UNL     1      -2.256  10.742  18.006  0.00  0.00    +0.000 A 
ATOM      6  N   UNL     1      -1.132   9.968  17.759  0.00  0.00    +0.000 NA
ATOM      7  C   UNL     1      -0.413  10.087  18.859  0.00  0.00    +0.000 A 
ATOM      8  N   UNL     1      -1.058  10.888  19.758  0.00  0.00    +0.000 N 
ATOM      9  C   UNL     1      -0.392  11.015  21.027  0.00  0.00    +0.000 C 
ATOM     10  C   UNL     1       0.977  10.432  20.671  0.00  0.00    +0.000 C 
ATOM     11  N   UNL     1       0.770   9.704  19.394  0.00  0.00    +0.000 N 
ATOM     12  N   UNL     1      -3.337  10.986  17.182  0.00  0.00    +0.000 N 
ATOM     13  C   UNL     1      -3.379  10.561  15.799  0.00  0.00    +0.000 C 
ATOM     14  C   UNL     1      -4.430  11.717  17.677  0.00  0.00    +0.000 A 
ATOM     15  O   UNL     1      -5.429  11.938  16.986  0.00  0.00    +0.000 OA
ENDROOT
BRANCH  11  16
ATOM     16  C   UNL     1       1.680   8.709  19.031  0.00  0.00    +0.000 A 
ATOM     17  C   UNL     1       2.339   8.709  17.795  0.00  0.00    +0.000 A 
ATOM     18  C   UNL     1       3.192   7.654  17.420  0.00  0.00    +0.000 A 
ATOM     19  C   UNL     1       3.432   6.581  18.285  0.00  0.00    +0.000 A 
ATOM     20  C   UNL     1       4.358   5.460  17.917  0.00  0.00    +0.000 C 
ATOM     21  C   UNL     1       2.797   6.573  19.525  0.00  0.00    +0.000 A 
ATOM     22  C   UNL     1       1.939   7.618  19.883  0.00  0.00    +0.000 A 
ENDBRANCH  11  16
BRANCH   1  23
ATOM     23  C   UNL     1      -5.459  12.992  19.504  0.00  0.00    +0.000 C 
BRANCH  23  24
ATOM     24  C   UNL     1      -6.371  12.206  20.434  0.00  0.00    +0.000 C 
ATOM     25  O   UNL     1      -6.287  12.266  21.656  0.00  0.00    +0.000 OA
BRANCH  24  26
ATOM     26  O   UNL     1      -7.208  11.376  19.752  0.00  0.00    +0.000 OA
BRANCH  26  28
ATOM     27  C   UNL     1      -6.990   9.003  19.550  0.00  0.00    +0.000 C 
ATOM     28  C   UNL     1      -7.516  10.141  20.410  0.00  0.00    +0.000 C 
ENDBRANCH  26  28
ENDBRANCH  24  26
ENDBRANCH  23  24
ENDBRANCH   1  23
TORSDOF 5
ENDMDL
MODEL 4
REMARK VINA RESULT:      -7.2      5.267     10.010
REMARK  Name = 
REMARK  8 active torsions:
REMARK  status: ('A' for Active; 'I' for Inactive)
REMARK    1  A    between atoms: C_1  and  C_2
REMARK    2  A    between atoms: C_2  and  O_3
REMARK    3  A    between atoms: O_3  and  C_4
REMARK    4  A    between atoms: C_4  and  C_6
REMARK    5  A    between atoms: C_6  and  N_7
REMARK    6  A    between atoms: N_17  and  C_18
REMARK    7  A    between atoms: C_21  and  C_22
REMARK    8  A    between atoms: N_25  and  C_26
REMARK                            x       y       z     vdW  Elec       q    Type
REMARK                         _______ _______ _______ _____ _____    ______ ____
ROOT
ATOM      1  N   UNL     1      -4.332  12.181  18.793  0.00  0.00    +0.000 N 
ATOM      2  C   UNL     1      -3.226  12.119  19.626  0.00  0.00    +0.000 A 
ATOM      3  O   UNL     1      -3.124  12.712  20.696  0.00  0.00    +0.000 OA
ATOM      4  C   UNL     1      -2.215  11.285  19.108  0.00  0.00    +0.000 A 
ATOM      5  C   UNL     1      -2.217  10.717  17.869  0.00  0.00    +0.000 A 
ATOM      6  N   UNL     1      -1.084   9.945  17.655  0.00  0.00    +0.000 NA
ATOM      7  C   UNL     1      -0.398  10.068  18.776  0.00  0.00    +0.000 A 
ATOM      8  N   UNL     1      -1.070  10.867  19.654  0.00  0.00    +0.000 N 
ATOM      9  C   UNL     1      -0.441  10.998  20.942  0.00  0.00    +0.000 C 
ATOM     10  C   UNL     1       0.939  10.417  20.626  0.00  0.00    +0.000 C 
ATOM     11  N   UNL     1       0.771   9.687  19.345  0.00  0.00    +0.000 N 
ATOM     12  N   UNL     1      -3.274  10.958  17.014  0.00  0.00    +0.000 N 
ATOM     13  C   UNL     1      -3.275  10.532  15.631  0.00  0.00    +0.000 C 
ATOM     14  C   UNL     1      -4.383  11.687  17.476  0.00  0.00    +0.000 A 
ATOM     15  O   UNL     1      -5.361  11.905  16.756  0.00  0.00    +0.000 OA
ENDROOT
BRANCH  11  16
ATOM     16  C   UNL     1       1.693   8.694  19.009  0.00  0.00    +0.000 A 
ATOM     17  C   UNL     1       2.382   8.691  17.790  0.00  0.00    +0.000 A 
ATOM     18  C   UNL     1       3.248   7.638  17.441  0.00  0.00    +0.000 A 
ATOM     19  C   UNL     1       3.470   6.570  18.317  0.00  0.00    +0.000 A 
ATOM     20  C   UNL     1       4.410   5.450  17.978  0.00  0.00    +0.000 C 
ATOM     21  C   UNL     1       2.805   6.565  19.541  0.00  0.00    +0.000 A 
ATOM     22  C   UNL     1       1.935   7.609  19.873  0.00  0.00    +0.000 A 
ENDBRANCH  11  16
BRANCH   1  23
ATOM     23  C   UNL     1      -5.467  12.961  19.271  0.00  0.00    +0.000 C 
BRANCH  23  24
ATOM     24  C   UNL     1      -6.554  12.114  19.915  0.00  0.00    +0.000 C 
ATOM     25  O   UNL     1      -7.565  11.761  19.317  0.00  0.00    +0.000 OA
BRANCH  24  26
ATOM     26  O   UNL     1      -6.312  11.884  21.236  0.00  0.00    +0.000 OA
BRANCH  26  28
ATOM     27  C   UNL     1      -7.171  13.682  22.558  0.00  0.00    +0.000 C 
ATOM     28  C   UNL     1      -7.377  12.240  22.125  0.00  0.00    +0.000 C 
ENDBRANCH  26  28
ENDBRANCH  24  26
ENDBRANCH  23  24
ENDBRANCH   1  23
TORSDOF 5
ENDMDL
MODEL 5
REMARK VINA RESULT:      -7.0      3.001      8.845
REMARK  Name = 
REMARK  8 active torsions:
REMARK  status: ('A' for Active; 'I' for Inactive)
REMARK    1  A    between atoms: C_1  and  C_2
REMARK    2  A    between atoms: C_2  and  O_3
REMARK    3  A    between atoms: O_3  and  C_4
REMARK    4  A    between atoms: C_4  and  C_6
REMARK    5  A    between atoms: C_6  and  N_7
REMARK    6  A    between atoms: N_17  and  C_18
REMARK    7  A    between atoms: C_21  and  C_22
REMARK    8  A    between atoms: N_25  and  C_26
REMARK                            x       y       z     vdW  Elec       q    Type
REMARK                         _______ _______ _______ _____ _____    ______ ____
ROOT
ATOM      1  N   UNL     1       0.267   9.282  20.694  0.00  0.00    +0.000 N 
ATOM      2  C   UNL     1       0.911   8.063  20.840  0.00  0.00    +0.000 A 
ATOM      3  O   UNL     1       0.743   7.293  21.781  0.00  0.00    +0.000 OA
ATOM      4  C   UNL     1       1.791   7.795  19.772  0.00  0.00    +0.000 A 
ATOM      5  C   UNL     1       2.119   8.669  18.779  0.00  0.00    +0.000 A 
ATOM      6  N   UNL     1       3.005   8.107  17.872  0.00  0.00    +0.000 NA
ATOM      7  C   UNL     1       3.214   6.892  18.339  0.00  0.00    +0.000 A 
ATOM      8  N   UNL     1       2.487   6.694  19.478  0.00  0.00    +0.000 N 
ATOM      9  C   UNL     1       2.583   5.365  20.022  0.00  0.00    +0.000 C 
ATOM     10  C   UNL     1       3.777   4.835  19.226  0.00  0.00    +0.000 C 
ATOM     11  N   UNL     1       3.932   5.772  18.085  0.00  0.00    +0.000 N 
ATOM     12  N   UNL     1       1.573   9.937  18.785  0.00  0.00    +0.000 N 
ATOM     13  C   UNL     1       1.994  10.975  17.868  0.00  0.00    +0.000 C 
ATOM     14  C   UNL     1       0.601  10.266  19.745  0.00  0.00    +0.000 A 
ATOM     15  O   UNL     1       0.067  11.379  19.773  0.00  0.00    +0.000 OA
ENDROOT
BRANCH  11  16
ATOM     16  C   UNL     1       4.622   5.343  16.950  0.00  0.00    +0.000 A 
ATOM     17  C   UNL     1       5.078   6.231  15.968  0.00  0.00    +0.000 A 
ATOM     18  C   UNL     1       5.701   5.768  14.794  0.00  0.00    +0.000 A 
ATOM     19  C   UNL     1       5.911   4.401  14.583  0.00  0.00    +0.000 A 
ATOM     20  C   UNL     1       6.598   3.887  13.352  0.00  0.00    +0.000 C 
ATOM     21  C   UNL     1       5.478   3.504  15.556  0.00  0.00    +0.000 A 
ATOM     22  C   UNL     1       4.846   3.973  16.713  0.00  0.00    +0.000 A 
ENDBRANCH  11  16
BRANCH   1  23
ATOM     23  C   UNL     1      -0.721   9.624  21.710  0.00  0.00    +0.000 C 
BRANCH  23  24
ATOM     24  C   UNL     1      -0.120  10.287  22.940  0.00  0.00    +0.000 C 
ATOM     25  O   UNL     1       0.570   9.682  23.753  0.00  0.00    +0.000 OA
BRANCH  24  26
ATOM     26  O   UNL     1      -0.514  11.584  23.068  0.00  0.00    +0.000 OA
BRANCH  26  28
ATOM     27  C   UNL     1      -2.038  13.340  22.508  0.00  0.00    +0.000 C 
ATOM     28  C   UNL     1      -1.883  11.845  22.737  0.00  0.00    +0.000 C 
ENDBRANCH  26  28
ENDBRANCH  24  26
ENDBRANCH  23  24
ENDBRANCH   1  23
TORSDOF 5
ENDMDL
MODEL 6
REMARK VINA RESULT:      -7.0      5.449     10.465
REMARK  Name = 
REMARK  8 active torsions:
REMARK  status: ('A' for Active; 'I' for Inactive)
REMARK    1  A    between atoms: C_1  and  C_2
REMARK    2  A    between atoms: C_2  and  O_3
REMARK    3  A    between atoms: O_3  and  C_4
REMARK    4  A    between atoms: C_4  and  C_6
REMARK    5  A    between atoms: C_6  and  N_7
REMARK    6  A    between atoms: N_17  and  C_18
REMARK    7  A    between atoms: C_21  and  C_22
REMARK    8  A    between atoms: N_25  and  C_26
REMARK                            x       y       z     vdW  Elec       q    Type
REMARK                         _______ _______ _______ _____ _____    ______ ____
ROOT
ATOM      1  N   UNL     1      -4.508  12.815  20.095  0.00  0.00    +0.000 N 
ATOM      2  C   UNL     1      -3.297  12.669  20.754  0.00  0.00    +0.000 A 
ATOM      3  O   UNL     1      -3.010  13.211  21.816  0.00  0.00    +0.000 OA
ATOM      4  C   UNL     1      -2.416  11.813  20.062  0.00  0.00    +0.000 A 
ATOM      5  C   UNL     1      -2.628  11.297  18.819  0.00  0.00    +0.000 A 
ATOM      6  N   UNL     1      -1.579  10.485  18.413  0.00  0.00    +0.000 NA
ATOM      7  C   UNL     1      -0.731  10.529  19.423  0.00  0.00    +0.000 A 
ATOM      8  N   UNL     1      -1.226  11.321  20.419  0.00  0.00    +0.000 N 
ATOM      9  C   UNL     1      -0.410  11.369  21.603  0.00  0.00    +0.000 C 
ATOM     10  C   UNL     1       0.877  10.741  21.067  0.00  0.00    +0.000 C 
ATOM     11  N   UNL     1       0.487  10.073  19.800  0.00  0.00    +0.000 N 
ATOM     12  N   UNL     1      -3.785  11.621  18.138  0.00  0.00    +0.000 N 
ATOM     13  C   UNL     1      -4.009  11.254  16.756  0.00  0.00    +0.000 C 
ATOM     14  C   UNL     1      -4.775  12.380  18.784  0.00  0.00    +0.000 A 
ATOM     15  O   UNL     1      -5.836  12.672  18.225  0.00  0.00    +0.000 OA
ENDROOT
BRANCH  11  16
ATOM     16  C   UNL     1       1.299   9.054  19.297  0.00  0.00    +0.000 A 
ATOM     17  C   UNL     1       1.692   7.957  20.073  0.00  0.00    +0.000 A 
ATOM     18  C   UNL     1       2.574   6.982  19.569  0.00  0.00    +0.000 A 
ATOM     19  C   UNL     1       3.067   7.066  18.263  0.00  0.00    +0.000 A 
ATOM     20  C   UNL     1       3.987   6.025  17.696  0.00  0.00    +0.000 C 
ATOM     21  C   UNL     1       2.674   8.143  17.472  0.00  0.00    +0.000 A 
ATOM     22  C   UNL     1       1.808   9.114  17.986  0.00  0.00    +0.000 A 
ENDBRANCH  11  16
BRANCH   1  23
ATOM     23  C   UNL     1      -5.520  13.625  20.763  0.00  0.00    +0.000 C 
BRANCH  23  24
ATOM     24  C   UNL     1      -6.585  12.801  21.469  0.00  0.00    +0.000 C 
ATOM     25  O   UNL     1      -7.652  12.502  20.946  0.00  0.00    +0.000 OA
BRANCH  24  26
ATOM     26  O   UNL     1      -6.248  12.524  22.760  0.00  0.00    +0.000 OA
BRANCH  26  28
ATOM     27  C   UNL     1      -7.633  13.675  24.333  0.00  0.00    +0.000 C 
ATOM     28  C   UNL     1      -7.351  12.343  23.657  0.00  0.00    +0.000 C 
ENDBRANCH  26  28
ENDBRANCH  24  26
ENDBRANCH  23  24
ENDBRANCH   1  23
TORSDOF 5
ENDMDL
MODEL 7
REMARK VINA RESULT:      -6.9      4.005      8.467
REMARK  Name = 
REMARK  8 active torsions:
REMARK  status: ('A' for Active; 'I' for Inactive)
REMARK    1  A    between atoms: C_1  and  C_2
REMARK    2  A    between atoms: C_2  and  O_3
REMARK    3  A    between atoms: O_3  and  C_4
REMARK    4  A    between atoms: C_4  and  C_6
REMARK    5  A    between atoms: C_6  and  N_7
REMARK    6  A    between atoms: N_17  and  C_18
REMARK    7  A    between atoms: C_21  and  C_22
REMARK    8  A    between atoms: N_25  and  C_26
REMARK                            x       y       z     vdW  Elec       q    Type
REMARK                         _______ _______ _______ _____ _____    ______ ____
ROOT
ATOM      1  N   UNL     1       0.143  12.330  20.936  0.00  0.00    +0.000 N 
ATOM      2  C   UNL     1       0.608  11.695  19.795  0.00  0.00    +0.000 A 
ATOM      3  O   UNL     1       0.754  12.238  18.704  0.00  0.00    +0.000 OA
ATOM      4  C   UNL     1       0.904  10.336  20.025  0.00  0.00    +0.000 A 
ATOM      5  C   UNL     1       0.632   9.651  21.171  0.00  0.00    +0.000 A 
ATOM      6  N   UNL     1       1.049   8.330  21.092  0.00  0.00    +0.000 NA
ATOM      7  C   UNL     1       1.564   8.229  19.881  0.00  0.00    +0.000 A 
ATOM      8  N   UNL     1       1.484   9.429  19.235  0.00  0.00    +0.000 N 
ATOM      9  C   UNL     1       2.095   9.445  17.932  0.00  0.00    +0.000 C 
ATOM     10  C   UNL     1       2.281   7.943  17.705  0.00  0.00    +0.000 C 
ATOM     11  N   UNL     1       2.125   7.324  19.045  0.00  0.00    +0.000 N 
ATOM     12  N   UNL     1       0.007  10.300  22.217  0.00  0.00    +0.000 N 
ATOM     13  C   UNL     1      -0.465   9.608  23.398  0.00  0.00    +0.000 C 
ATOM     14  C   UNL     1      -0.232  11.682  22.128  0.00  0.00    +0.000 A 
ATOM     15  O   UNL     1      -0.765  12.309  23.048  0.00  0.00    +0.000 OA
ENDROOT
BRANCH  11  16
ATOM     16  C   UNL     1       2.663   6.055  19.268  0.00  0.00    +0.000 A 
ATOM     17  C   UNL     1       2.011   5.089  20.044  0.00  0.00    +0.000 A 
ATOM     18  C   UNL     1       2.609   3.845  20.319  0.00  0.00    +0.000 A 
ATOM     19  C   UNL     1       3.868   3.522  19.801  0.00  0.00    +0.000 A 
ATOM     20  C   UNL     1       4.513   2.192  20.058  0.00  0.00    +0.000 C 
ATOM     21  C   UNL     1       4.524   4.466  19.014  0.00  0.00    +0.000 A 
ATOM     22  C   UNL     1       3.928   5.705  18.757  0.00  0.00    +0.000 A 
ENDBRANCH  11  16
BRANCH   1  23
ATOM     23  C   UNL     1      -0.125  13.758  20.825  0.00  0.00    +0.000 C 
BRANCH  23  24
ATOM     24  C   UNL     1       1.077  14.627  21.162  0.00  0.00    +0.000 C 
ATOM     25  O   UNL     1       1.913  14.311  22.001  0.00  0.00    +0.000 OA
BRANCH  24  26
ATOM     26  O   UNL     1       1.055  15.816  20.496  0.00  0.00    +0.000 OA
BRANCH  26  28
ATOM     27  C   UNL     1       0.862  17.069  18.469  0.00  0.00    +0.000 C 
ATOM     28  C   UNL     1       1.236  15.728  19.078  0.00  0.00    +0.000 C 
ENDBRANCH  26  28
ENDBRANCH  24  26
ENDBRANCH  23  24
ENDBRANCH   1  23
TORSDOF 5
ENDMDL
MODEL 8
REMARK VINA RESULT:      -6.9      3.086      8.948
REMARK  Name = 
REMARK  8 active torsions:
REMARK  status: ('A' for Active; 'I' for Inactive)
REMARK    1  A    between atoms: C_1  and  C_2
REMARK    2  A    between atoms: C_2  and  O_3
REMARK    3  A    between atoms: O_3  and  C_4
REMARK    4  A    between atoms: C_4  and  C_6
REMARK    5  A    between atoms: C_6  and  N_7
REMARK    6  A    between atoms: N_17  and  C_18
REMARK    7  A    between atoms: C_21  and  C_22
REMARK    8  A    between atoms: N_25  and  C_26
REMARK                            x       y       z     vdW  Elec       q    Type
REMARK                         _______ _______ _______ _____ _____    ______ ____
ROOT
ATOM      1  N   UNL     1       0.092   9.669  20.595  0.00  0.00    +0.000 N 
ATOM      2  C   UNL     1       0.650   8.412  20.774  0.00  0.00    +0.000 A 
ATOM      3  O   UNL     1       0.388   7.658  21.706  0.00  0.00    +0.000 OA
ATOM      4  C   UNL     1       1.563   8.085  19.751  0.00  0.00    +0.000 A 
ATOM      5  C   UNL     1       1.993   8.933  18.774  0.00  0.00    +0.000 A 
ATOM      6  N   UNL     1       2.887   8.313  17.913  0.00  0.00    +0.000 NA
ATOM      7  C   UNL     1       2.996   7.089  18.391  0.00  0.00    +0.000 A 
ATOM      8  N   UNL     1       2.203   6.942  19.493  0.00  0.00    +0.000 N 
ATOM      9  C   UNL     1       2.189   5.612  20.042  0.00  0.00    +0.000 C 
ATOM     10  C   UNL     1       3.385   5.005  19.308  0.00  0.00    +0.000 C 
ATOM     11  N   UNL     1       3.655   5.926  18.175  0.00  0.00    +0.000 N 
ATOM     12  N   UNL     1       1.528  10.233  18.751  0.00  0.00    +0.000 N 
ATOM     13  C   UNL     1       2.058  11.238  17.855  0.00  0.00    +0.000 C 
ATOM     14  C   UNL     1       0.532  10.625  19.662  0.00  0.00    +0.000 A 
ATOM     15  O   UNL     1       0.069  11.769  19.662  0.00  0.00    +0.000 OA
ENDROOT
BRANCH  11  16
ATOM     16  C   UNL     1       4.372   5.450  17.075  0.00  0.00    +0.000 A 
ATOM     17  C   UNL     1       4.523   4.082  16.814  0.00  0.00    +0.000 A 
ATOM     18  C   UNL     1       5.315   3.625  15.744  0.00  0.00    +0.000 A 
ATOM     19  C   UNL     1       5.957   4.526  14.888  0.00  0.00    +0.000 A 
ATOM     20  C   UNL     1       6.785   4.062  13.726  0.00  0.00    +0.000 C 
ATOM     21  C   UNL     1       5.805   5.890  15.125  0.00  0.00    +0.000 A 
ATOM     22  C   UNL     1       5.027   6.336  16.199  0.00  0.00    +0.000 A 
ENDBRANCH  11  16
BRANCH   1  23
ATOM     23  C   UNL     1      -0.922  10.075  21.560  0.00  0.00    +0.000 C 
BRANCH  23  24
ATOM     24  C   UNL     1      -0.340  10.647  22.843  0.00  0.00    +0.000 C 
ATOM     25  O   UNL     1       0.168   9.949  23.713  0.00  0.00    +0.000 OA
BRANCH  24  26
ATOM     26  O   UNL     1      -0.537  11.992  22.942  0.00  0.00    +0.000 OA
BRANCH  26  28
ATOM     27  C   UNL     1      -2.401  13.356  23.562  0.00  0.00    +0.000 C 
ATOM     28  C   UNL     1      -1.811  12.461  22.485  0.00  0.00    +0.000 C 
ENDBRANCH  26  28
ENDBRANCH  24  26
ENDBRANCH  23  24
ENDBRANCH   1  23
TORSDOF 5
ENDMDL
MODEL 9
REMARK VINA RESULT:      -6.8      3.343      9.065
REMARK  Name = 
REMARK  8 active torsions:
REMARK  status: ('A' for Active; 'I' for Inactive)
REMARK    1  A    between atoms: C_1  and  C_2
REMARK    2  A    between atoms: C_2  and  O_3
REMARK    3  A    between atoms: O_3  and  C_4
REMARK    4  A    between atoms: C_4  and  C_6
REMARK    5  A    between atoms: C_6  and  N_7
REMARK    6  A    between atoms: N_17  and  C_18
REMARK    7  A    between atoms: C_21  and  C_22
REMARK    8  A    between atoms: N_25  and  C_26
REMARK                            x       y       z     vdW  Elec       q    Type
REMARK                         _______ _______ _______ _____ _____    ______ ____
ROOT
ATOM      1  N   UNL     1      -0.175  10.551  20.369  0.00  0.00    +0.000 N 
ATOM      2  C   UNL     1       0.264   9.268  20.659  0.00  0.00    +0.000 A 
ATOM      3  O   UNL     1      -0.139   8.587  21.596  0.00  0.00    +0.000 OA
ATOM      4  C   UNL     1       1.238   8.819  19.744  0.00  0.00    +0.000 A 
ATOM      5  C   UNL     1       1.821   9.579  18.774  0.00  0.00    +0.000 A 
ATOM      6  N   UNL     1       2.738   8.850  18.031  0.00  0.00    +0.000 NA
ATOM      7  C   UNL     1       2.706   7.648  18.574  0.00  0.00    +0.000 A 
ATOM      8  N   UNL     1       1.807   7.619  19.601  0.00  0.00    +0.000 N 
ATOM      9  C   UNL     1       1.638   6.326  20.209  0.00  0.00    +0.000 C 
ATOM     10  C   UNL     1       2.845   5.593  19.620  0.00  0.00    +0.000 C 
ATOM     11  N   UNL     1       3.288   6.429  18.476  0.00  0.00    +0.000 N 
ATOM     12  N   UNL     1       1.464  10.907  18.646  0.00  0.00    +0.000 N 
ATOM     13  C   UNL     1       2.150  11.820  17.758  0.00  0.00    +0.000 C 
ATOM     14  C   UNL     1       0.423  11.421  19.439  0.00  0.00    +0.000 A 
ATOM     15  O   UNL     1       0.053  12.594  19.341  0.00  0.00    +0.000 OA
ENDROOT
BRANCH  11  16
ATOM     16  C   UNL     1       4.062   5.842  17.473  0.00  0.00    +0.000 A 
ATOM     17  C   UNL     1       4.793   6.600  16.549  0.00  0.00    +0.000 A 
ATOM     18  C   UNL     1       5.503   5.988  15.499  0.00  0.00    +0.000 A 
ATOM     19  C   UNL     1       5.524   4.596  15.360  0.00  0.00    +0.000 A 
ATOM     20  C   UNL     1       6.295   3.921  14.265  0.00  0.00    +0.000 C 
ATOM     21  C   UNL     1       4.814   3.826  16.280  0.00  0.00    +0.000 A 
ATOM     22  C   UNL     1       4.100   4.444  17.312  0.00  0.00    +0.000 A 
ENDBRANCH  11  16
BRANCH   1  23
ATOM     23  C   UNL     1      -1.237  11.083  21.214  0.00  0.00    +0.000 C 
BRANCH  23  24
ATOM     24  C   UNL     1      -0.732  11.669  22.523  0.00  0.00    +0.000 C 
ATOM     25  O   UNL     1      -0.433  10.978  23.491  0.00  0.00    +0.000 OA
BRANCH  24  26
ATOM     26  O   UNL     1      -0.744  13.031  22.515  0.00  0.00    +0.000 OA
BRANCH  26  28
ATOM     27  C   UNL     1      -1.004  14.954  23.912  0.00  0.00    +0.000 C 
ATOM     28  C   UNL     1      -1.627  13.642  23.463  0.00  0.00    +0.000 C 
ENDBRANCH  26  28
ENDBRANCH  24  26
ENDBRANCH  23  24
ENDBRANCH   1  23
TORSDOF 5
ENDMDL
