MODEL 1
REMARK VINA RESULT:      -8.0      0.000      0.000
REMARK  Name = 
REMARK  5 active torsions:
REMARK  status: ('A' for Active; 'I' for Inactive)
REMARK    1  A    between atoms: C_1  and  C_2
REMARK    2  A    between atoms: C_4  and  O_5
REMARK    3  A    between atoms: C_10  and  C_11
REMARK    4  A    between atoms: C_15  and  C_16
REMARK    5  A    between atoms: C_19  and  C_20
REMARK                            x       y       z     vdW  Elec       q    Type
REMARK                         _______ _______ _______ _____ _____    ______ ____
ROOT
ATOM      1  C   UNL     1       1.930   7.226  19.548  0.00  0.00    +0.000 A 
ATOM      2  C   UNL     1       2.199   7.546  18.217  0.00  0.00    +0.000 A 
ATOM      3  C   UNL     1       2.123   8.855  17.756  0.00  0.00    +0.000 A 
ATOM      4  C   UNL     1       1.646   9.847  18.599  0.00  0.00    +0.000 A 
ATOM      5  C   UNL     1       1.237   9.554  19.911  0.00  0.00    +0.000 A 
ATOM      6  C   UNL     1       1.426   8.236  20.379  0.00  0.00    +0.000 A 
ENDROOT
BRANCH   1  15
ATOM      7  C   UNL     1       5.077   5.985  18.354  0.00  0.00    +0.000 C 
ATOM      8  C   UNL     1       4.411   4.855  19.090  0.00  0.00    +0.000 A 
ATOM      9  C   UNL     1       5.071   3.611  19.104  0.00  0.00    +0.000 A 
ATOM     10  C   UNL     1       4.526   2.543  19.799  0.00  0.00    +0.000 A 
ATOM     11  N   UNL     1       3.378   2.567  20.489  0.00  0.00    +0.000 NA
ATOM     12  C   UNL     1       2.762   3.761  20.437  0.00  0.00    +0.000 A 
ATOM     13  N   UNL     1       1.588   4.059  21.052  0.00  0.00    +0.000 N 
ATOM     14  N   UNL     1       1.170   5.320  20.853  0.00  0.00    +0.000 NA
ATOM     15  C   UNL     1       2.103   5.855  20.040  0.00  0.00    +0.000 A 
ATOM     16  C   UNL     1       3.169   4.915  19.777  0.00  0.00    +0.000 A 
ATOM     17  H   UNL     1       1.031   3.436  21.622  0.00  0.00    +0.000 HD
BRANCH  10  18
ATOM     18  O   UNL     1       5.180   1.342  19.826  0.00  0.00    +0.000 OA
ATOM     19  H   UNL     1       4.538   0.646  19.628  0.00  0.00    +0.000 HD
ENDBRANCH  10  18
ENDBRANCH   1  15
BRANCH   5  20
ATOM     20  C   UNL     1       0.593  10.587  20.746  0.00  0.00    +0.000 A 
ATOM     21  C   UNL     1      -0.236  10.223  21.827  0.00  0.00    +0.000 A 
ATOM     22  C   UNL     1      -0.849  11.183  22.629  0.00  0.00    +0.000 A 
ATOM     23  C   UNL     1      -0.629  12.534  22.377  0.00  0.00    +0.000 A 
ATOM     24  C   UNL     1       0.198  12.922  21.322  0.00  0.00    +0.000 A 
ATOM     25  C   UNL     1       0.799  11.957  20.514  0.00  0.00    +0.000 A 
BRANCH  23  26
ATOM     26  C   UNL     1      -1.250  13.523  23.200  0.00  0.00    +0.000 C 
ATOM     27  N   UNL     1      -1.757  14.329  23.870  0.00  0.00    +0.000 NA
ENDBRANCH  23  26
ENDBRANCH   5  20
TORSDOF 4
ENDMDL
MODEL 2
REMARK VINA RESULT:      -7.9      3.772      8.436
REMARK  Name = 
REMARK  5 active torsions:
REMARK  status: ('A' for Active; 'I' for Inactive)
REMARK    1  A    between atoms: C_1  and  C_2
REMARK    2  A    between atoms: C_4  and  O_5
REMARK    3  A    between atoms: C_10  and  C_11
REMARK    4  A    between atoms: C_15  and  C_16
REMARK    5  A    between atoms: C_19  and  C_20
REMARK                            x       y       z     vdW  Elec       q    Type
REMARK                         _______ _______ _______ _____ _____    ______ ____
ROOT
ATOM      1  C   UNL     1       1.695   6.860  20.349  0.00  0.00    +0.000 A 
ATOM      2  C   UNL     1       1.029   5.702  20.748  0.00  0.00    +0.000 A 
ATOM      3  C   UNL     1       1.420   4.448  20.296  0.00  0.00    +0.000 A 
ATOM      4  C   UNL     1       2.410   4.351  19.329  0.00  0.00    +0.000 A 
ATOM      5  C   UNL     1       3.023   5.498  18.797  0.00  0.00    +0.000 A 
ATOM      6  C   UNL     1       2.675   6.747  19.354  0.00  0.00    +0.000 A 
ENDROOT
BRANCH   1  15
ATOM      7  C   UNL     1       1.364   9.192  17.643  0.00  0.00    +0.000 C 
ATOM      8  C   UNL     1       1.161   9.966  18.916  0.00  0.00    +0.000 A 
ATOM      9  C   UNL     1       0.966  11.357  18.806  0.00  0.00    +0.000 A 
ATOM     10  C   UNL     1       0.733  12.118  19.941  0.00  0.00    +0.000 A 
ATOM     11  N   UNL     1       0.678  11.650  21.194  0.00  0.00    +0.000 NA
ATOM     12  C   UNL     1       0.891  10.324  21.267  0.00  0.00    +0.000 A 
ATOM     13  N   UNL     1       0.884   9.596  22.415  0.00  0.00    +0.000 N 
ATOM     14  N   UNL     1       1.123   8.288  22.234  0.00  0.00    +0.000 NA
ATOM     15  C   UNL     1       1.328   8.167  20.906  0.00  0.00    +0.000 A 
ATOM     16  C   UNL     1       1.149   9.432  20.232  0.00  0.00    +0.000 A 
ATOM     17  H   UNL     1       0.719   9.946  23.350  0.00  0.00    +0.000 HD
BRANCH  10  18
ATOM     18  O   UNL     1       0.525  13.465  19.827  0.00  0.00    +0.000 OA
ATOM     19  H   UNL     1       0.679  13.867  20.694  0.00  0.00    +0.000 HD
ENDBRANCH  10  18
ENDBRANCH   1  15
BRANCH   5  20
ATOM     20  C   UNL     1       3.964   5.390  17.664  0.00  0.00    +0.000 A 
ATOM     21  C   UNL     1       4.508   6.546  17.070  0.00  0.00    +0.000 A 
ATOM     22  C   UNL     1       5.402   6.465  16.004  0.00  0.00    +0.000 A 
ATOM     23  C   UNL     1       5.785   5.218  15.521  0.00  0.00    +0.000 A 
ATOM     24  C   UNL     1       5.273   4.056  16.099  0.00  0.00    +0.000 A 
ATOM     25  C   UNL     1       4.369   4.144  17.158  0.00  0.00    +0.000 A 
BRANCH  23  26
ATOM     26  C   UNL     1       6.706   5.128  14.431  0.00  0.00    +0.000 C 
ATOM     27  N   UNL     1       7.457   5.056  13.545  0.00  0.00    +0.000 NA
ENDBRANCH  23  26
ENDBRANCH   5  20
TORSDOF 4
ENDMDL
MODEL 3
REMARK VINA RESULT:      -7.9      2.730      4.146
REMARK  Name = 
REMARK  5 active torsions:
REMARK  status: ('A' for Active; 'I' for Inactive)
REMARK    1  A    between atoms: C_1  and  C_2
REMARK    2  A    between atoms: C_4  and  O_5
REMARK    3  A    between atoms: C_10  and  C_11
REMARK    4  A    between atoms: C_15  and  C_16
REMARK    5  A    between atoms: C_19  and  C_20
REMARK                            x       y       z     vdW  Elec       q    Type
REMARK                         _______ _______ _______ _____ _____    ______ ____
ROOT
ATOM      1  C   UNL     1       3.687   5.212  19.501  0.00  0.00    +0.000 A 
ATOM      2  C   UNL     1       3.034   4.252  20.272  0.00  0.00    +0.000 A 
ATOM      3  C   UNL     1       1.816   4.519  20.885  0.00  0.00    +0.000 A 
ATOM      4  C   UNL     1       1.298   5.805  20.838  0.00  0.00    +0.000 A 
ATOM      5  C   UNL     1       1.983   6.842  20.183  0.00  0.00    +0.000 A 
ATOM      6  C   UNL     1       3.163   6.512  19.484  0.00  0.00    +0.000 A 
ENDROOT
BRANCH   1  15
ATOM      7  C   UNL     1       3.773   7.113  16.460  0.00  0.00    +0.000 C 
ATOM      8  C   UNL     1       4.984   6.222  16.453  0.00  0.00    +0.000 A 
ATOM      9  C   UNL     1       5.810   6.256  15.313  0.00  0.00    +0.000 A 
ATOM     10  C   UNL     1       6.962   5.487  15.266  0.00  0.00    +0.000 A 
ATOM     11  N   UNL     1       7.392   4.668  16.234  0.00  0.00    +0.000 NA
ATOM     12  C   UNL     1       6.570   4.640  17.299  0.00  0.00    +0.000 A 
ATOM     13  N   UNL     1       6.773   3.900  18.420  0.00  0.00    +0.000 N 
ATOM     14  N   UNL     1       5.812   4.038  19.348  0.00  0.00    +0.000 NA
ATOM     15  C   UNL     1       4.926   4.885  18.785  0.00  0.00    +0.000 A 
ATOM     16  C   UNL     1       5.382   5.336  17.491  0.00  0.00    +0.000 A 
ATOM     17  H   UNL     1       7.554   3.284  18.602  0.00  0.00    +0.000 HD
BRANCH  10  18
ATOM     18  O   UNL     1       7.772   5.538  14.164  0.00  0.00    +0.000 OA
ATOM     19  H   UNL     1       8.691   5.503  14.465  0.00  0.00    +0.000 HD
ENDBRANCH  10  18
ENDBRANCH   1  15
BRANCH   5  20
ATOM     20  C   UNL     1       1.498   8.234  20.269  0.00  0.00    +0.000 A 
ATOM     21  C   UNL     1       1.091   8.778  21.504  0.00  0.00    +0.000 A 
ATOM     22  C   UNL     1       0.635  10.091  21.607  0.00  0.00    +0.000 A 
ATOM     23  C   UNL     1       0.595  10.896  20.472  0.00  0.00    +0.000 A 
ATOM     24  C   UNL     1       1.005  10.388  19.239  0.00  0.00    +0.000 A 
ATOM     25  C   UNL     1       1.449   9.069  19.141  0.00  0.00    +0.000 A 
BRANCH  23  26
ATOM     26  C   UNL     1       0.134  12.245  20.572  0.00  0.00    +0.000 C 
ATOM     27  N   UNL     1      -0.240  13.345  20.652  0.00  0.00    +0.000 NA
ENDBRANCH  23  26
ENDBRANCH   5  20
TORSDOF 4
ENDMDL
MODEL 4
REMARK VINA RESULT:      -7.8      1.101      1.101
REMARK  Name = 
REMARK  5 active torsions:
REMARK  status: ('A' for Active; 'I' for Inactive)
REMARK    1  A    between atoms: C_1  and  C_2
REMARK    2  A    between atoms: C_4  and  O_5
REMARK    3  A    between atoms: C_10  and  C_11
REMARK    4  A    between atoms: C_15  and  C_16
REMARK    5  A    between atoms: C_19  and  C_20
REMARK                            x       y       z     vdW  Elec       q    Type
REMARK                         _______ _______ _______ _____ _____    ______ ____
ROOT
ATOM      1  C   UNL     1       2.083   6.896  19.588  0.00  0.00    +0.000 A 
ATOM      2  C   UNL     1       2.495   7.362  18.341  0.00  0.00    +0.000 A 
ATOM      3  C   UNL     1       2.330   8.691  17.971  0.00  0.00    +0.000 A 
ATOM      4  C   UNL     1       1.625   9.547  18.805  0.00  0.00    +0.000 A 
ATOM      5  C   UNL     1       1.074   9.093  20.016  0.00  0.00    +0.000 A 
ATOM      6  C   UNL     1       1.351   7.767  20.408  0.00  0.00    +0.000 A 
ENDROOT
BRANCH   1  15
ATOM      7  C   UNL     1       3.984   5.293  17.003  0.00  0.00    +0.000 C 
ATOM      8  C   UNL     1       3.693   4.249  18.043  0.00  0.00    +0.000 A 
ATOM      9  C   UNL     1       4.129   2.935  17.785  0.00  0.00    +0.000 A 
ATOM     10  C   UNL     1       3.925   1.936  18.725  0.00  0.00    +0.000 A 
ATOM     11  N   UNL     1       3.321   2.095  19.909  0.00  0.00    +0.000 NA
ATOM     12  C   UNL     1       2.896   3.354  20.116  0.00  0.00    +0.000 A 
ATOM     13  N   UNL     1       2.259   3.787  21.236  0.00  0.00    +0.000 N 
ATOM     14  N   UNL     1       1.931   5.089  21.209  0.00  0.00    +0.000 NA
ATOM     15  C   UNL     1       2.347   5.512  19.998  0.00  0.00    +0.000 A 
ATOM     16  C   UNL     1       3.011   4.453  19.273  0.00  0.00    +0.000 A 
ATOM     17  H   UNL     1       2.025   3.232  22.049  0.00  0.00    +0.000 HD
BRANCH  10  18
ATOM     18  O   UNL     1       4.368   0.666  18.478  0.00  0.00    +0.000 OA
ATOM     19  H   UNL     1       4.100   0.424  17.580  0.00  0.00    +0.000 HD
ENDBRANCH  10  18
ENDBRANCH   1  15
BRANCH   5  20
ATOM     20  C   UNL     1       0.201   9.972  20.819  0.00  0.00    +0.000 A 
ATOM     21  C   UNL     1      -0.022   9.708  22.185  0.00  0.00    +0.000 A 
ATOM     22  C   UNL     1      -0.839  10.528  22.962  0.00  0.00    +0.000 A 
ATOM     23  C   UNL     1      -1.437  11.645  22.388  0.00  0.00    +0.000 A 
ATOM     24  C   UNL     1      -1.222  11.939  21.040  0.00  0.00    +0.000 A 
ATOM     25  C   UNL     1      -0.414  11.107  20.265  0.00  0.00    +0.000 A 
BRANCH  23  26
ATOM     26  C   UNL     1      -2.270  12.494  23.180  0.00  0.00    +0.000 C 
ATOM     27  N   UNL     1      -2.951  13.184  23.825  0.00  0.00    +0.000 NA
ENDBRANCH  23  26
ENDBRANCH   5  20
TORSDOF 4
ENDMDL
MODEL 5
REMARK VINA RESULT:      -7.7      4.803      8.976
REMARK  Name = 
REMARK  5 active torsions:
REMARK  status: ('A' for Active; 'I' for Inactive)
REMARK    1  A    between atoms: C_1  and  C_2
REMARK    2  A    between atoms: C_4  and  O_5
REMARK    3  A    between atoms: C_10  and  C_11
REMARK    4  A    between atoms: C_15  and  C_16
REMARK    5  A    between atoms: C_19  and  C_20
REMARK                            x       y       z     vdW  Elec       q    Type
REMARK                         _______ _______ _______ _____ _____    ______ ____
ROOT
ATOM      1  C   UNL     1      -0.593  11.690  19.003  0.00  0.00    +0.000 A 
ATOM      2  C   UNL     1       0.288  12.745  18.765  0.00  0.00    +0.000 A 
ATOM      3  C   UNL     1       1.606  12.519  18.387  0.00  0.00    +0.000 A 
ATOM      4  C   UNL     1       2.096  11.221  18.368  0.00  0.00    +0.000 A 
ATOM      5  C   UNL     1       1.285  10.131  18.727  0.00  0.00    +0.000 A 
ATOM      6  C   UNL     1      -0.075  10.387  19.003  0.00  0.00    +0.000 A 
ENDROOT
BRANCH   1  15
ATOM      7  C   UNL     1      -2.568  10.681  16.183  0.00  0.00    +0.000 C 
ATOM      8  C   UNL     1      -3.511  11.287  17.184  0.00  0.00    +0.000 A 
ATOM      9  C   UNL     1      -4.867  11.395  16.818  0.00  0.00    +0.000 A 
ATOM     10  C   UNL     1      -5.791  11.908  17.714  0.00  0.00    +0.000 A 
ATOM     11  N   UNL     1      -5.518  12.340  18.951  0.00  0.00    +0.000 NA
ATOM     12  C   UNL     1      -4.213  12.247  19.263  0.00  0.00    +0.000 A 
ATOM     13  N   UNL     1      -3.668  12.609  20.453  0.00  0.00    +0.000 N 
ATOM     14  N   UNL     1      -2.341  12.423  20.527  0.00  0.00    +0.000 NA
ATOM     15  C   UNL     1      -2.004  11.945  19.311  0.00  0.00    +0.000 A 
ATOM     16  C   UNL     1      -3.170  11.771  18.476  0.00  0.00    +0.000 A 
ATOM     17  H   UNL     1      -4.161  12.991  21.250  0.00  0.00    +0.000 HD
BRANCH  10  18
ATOM     18  O   UNL     1      -7.110  11.992  17.360  0.00  0.00    +0.000 OA
ATOM     19  H   UNL     1      -7.165  12.462  16.517  0.00  0.00    +0.000 HD
ENDBRANCH  10  18
ENDBRANCH   1  15
BRANCH   5  20
ATOM     20  C   UNL     1       1.858   8.776  18.848  0.00  0.00    +0.000 A 
ATOM     21  C   UNL     1       2.634   8.229  17.807  0.00  0.00    +0.000 A 
ATOM     22  C   UNL     1       3.188   6.954  17.904  0.00  0.00    +0.000 A 
ATOM     23  C   UNL     1       2.991   6.204  19.060  0.00  0.00    +0.000 A 
ATOM     24  C   UNL     1       2.238   6.728  20.113  0.00  0.00    +0.000 A 
ATOM     25  C   UNL     1       1.676   7.999  20.004  0.00  0.00    +0.000 A 
BRANCH  23  26
ATOM     26  C   UNL     1       3.561   4.899  19.169  0.00  0.00    +0.000 C 
ATOM     27  N   UNL     1       4.027   3.836  19.259  0.00  0.00    +0.000 NA
ENDBRANCH  23  26
ENDBRANCH   5  20
TORSDOF 4
ENDMDL
MODEL 6
REMARK VINA RESULT:      -7.6      4.056      8.904
REMARK  Name = 
REMARK  5 active torsions:
REMARK  status: ('A' for Active; 'I' for Inactive)
REMARK    1  A    between atoms: C_1  and  C_2
REMARK    2  A    between atoms: C_4  and  O_5
REMARK    3  A    between atoms: C_10  and  C_11
REMARK    4  A    between atoms: C_15  and  C_16
REMARK    5  A    between atoms: C_19  and  C_20
REMARK                            x       y       z     vdW  Elec       q    Type
REMARK                         _______ _______ _______ _____ _____    ______ ____
ROOT
ATOM      1  C   UNL     1       1.469   8.356  19.686  0.00  0.00    +0.000 A 
ATOM      2  C   UNL     1       1.111   7.508  20.734  0.00  0.00    +0.000 A 
ATOM      3  C   UNL     1       1.715   6.268  20.903  0.00  0.00    +0.000 A 
ATOM      4  C   UNL     1       2.600   5.805  19.940  0.00  0.00    +0.000 A 
ATOM      5  C   UNL     1       2.895   6.566  18.796  0.00  0.00    +0.000 A 
ATOM      6  C   UNL     1       2.346   7.863  18.710  0.00  0.00    +0.000 A 
ENDROOT
BRANCH   1  15
ATOM      7  C   UNL     1       0.372   9.387  22.942  0.00  0.00    +0.000 C 
ATOM      8  C   UNL     1      -0.031  10.471  21.981  0.00  0.00    +0.000 A 
ATOM      9  C   UNL     1      -0.763  11.558  22.497  0.00  0.00    +0.000 A 
ATOM     10  C   UNL     1      -1.128  12.607  21.667  0.00  0.00    +0.000 A 
ATOM     11  N   UNL     1      -0.850  12.698  20.361  0.00  0.00    +0.000 NA
ATOM     12  C   UNL     1      -0.171  11.635  19.894  0.00  0.00    +0.000 A 
ATOM     13  N   UNL     1       0.241  11.477  18.609  0.00  0.00    +0.000 N 
ATOM     14  N   UNL     1       0.902  10.330  18.384  0.00  0.00    +0.000 NA
ATOM     15  C   UNL     1       0.888   9.699  19.575  0.00  0.00    +0.000 A 
ATOM     16  C   UNL     1       0.252  10.508  20.589  0.00  0.00    +0.000 A 
ATOM     17  H   UNL     1       0.097  12.125  17.845  0.00  0.00    +0.000 HD
BRANCH  10  18
ATOM     18  O   UNL     1      -1.822  13.669  22.177  0.00  0.00    +0.000 OA
ATOM     19  H   UNL     1      -2.108  13.440  23.072  0.00  0.00    +0.000 HD
ENDBRANCH  10  18
ENDBRANCH   1  15
BRANCH   5  20
ATOM     20  C   UNL     1       3.719   6.000  17.709  0.00  0.00    +0.000 A 
ATOM     21  C   UNL     1       3.742   4.611  17.475  0.00  0.00    +0.000 A 
ATOM     22  C   UNL     1       4.509   4.057  16.452  0.00  0.00    +0.000 A 
ATOM     23  C   UNL     1       5.256   4.890  15.624  0.00  0.00    +0.000 A 
ATOM     24  C   UNL     1       5.240   6.272  15.824  0.00  0.00    +0.000 A 
ATOM     25  C   UNL     1       4.481   6.818  16.859  0.00  0.00    +0.000 A 
BRANCH  23  26
ATOM     26  C   UNL     1       6.039   4.330  14.568  0.00  0.00    +0.000 C 
ATOM     27  N   UNL     1       6.677   3.872  13.709  0.00  0.00    +0.000 NA
ENDBRANCH  23  26
ENDBRANCH   5  20
TORSDOF 4
ENDMDL
MODEL 7
REMARK VINA RESULT:      -7.6      3.725      8.746
REMARK  Name = 
REMARK  5 active torsions:
REMARK  status: ('A' for Active; 'I' for Inactive)
REMARK    1  A    between atoms: C_1  and  C_2
REMARK    2  A    between atoms: C_4  and  O_5
REMARK    3  A    between atoms: C_10  and  C_11
REMARK    4  A    between atoms: C_15  and  C_16
REMARK    5  A    between atoms: C_19  and  C_20
REMARK                            x       y       z     vdW  Elec       q    Type
REMARK                         _______ _______ _______ _____ _____    ______ ____
ROOT
ATOM      1  C   UNL     1       0.769   9.954  19.946  0.00  0.00    +0.000 A 
ATOM      2  C   UNL     1       1.213  10.681  18.842  0.00  0.00    +0.000 A 
ATOM      3  C   UNL     1       1.936  10.079  17.820  0.00  0.00    +0.000 A 
ATOM      4  C   UNL     1       2.338   8.758  17.957  0.00  0.00    +0.000 A 
ATOM      5  C   UNL     1       2.029   8.019  19.112  0.00  0.00    +0.000 A 
ATOM      6  C   UNL     1       1.204   8.628  20.081  0.00  0.00    +0.000 A 
ENDROOT
BRANCH   1  15
ATOM      7  C   UNL     1      -1.989  11.566  18.314  0.00  0.00    +0.000 C 
ATOM      8  C   UNL     1      -2.102  11.882  19.779  0.00  0.00    +0.000 A 
ATOM      9  C   UNL     1      -3.146  12.738  20.180  0.00  0.00    +0.000 A 
ATOM     10  C   UNL     1      -3.326  13.034  21.523  0.00  0.00    +0.000 A 
ATOM     11  N   UNL     1      -2.571  12.575  22.529  0.00  0.00    +0.000 NA
ATOM     12  C   UNL     1      -1.570  11.780  22.111  0.00  0.00    +0.000 A 
ATOM     13  N   UNL     1      -0.663  11.177  22.924  0.00  0.00    +0.000 N 
ATOM     14  N   UNL     1       0.244  10.431  22.273  0.00  0.00    +0.000 NA
ATOM     15  C   UNL     1      -0.072  10.583  20.971  0.00  0.00    +0.000 A 
ATOM     16  C   UNL     1      -1.252  11.402  20.811  0.00  0.00    +0.000 A 
ATOM     17  H   UNL     1      -0.619  11.244  23.933  0.00  0.00    +0.000 HD
BRANCH  10  18
ATOM     18  O   UNL     1      -4.353  13.850  21.910  0.00  0.00    +0.000 OA
ATOM     19  H   UNL     1      -4.782  14.192  21.112  0.00  0.00    +0.000 HD
ENDBRANCH  10  18
ENDBRANCH   1  15
BRANCH   5  20
ATOM     20  C   UNL     1       2.589   6.668  19.311  0.00  0.00    +0.000 A 
ATOM     21  C   UNL     1       3.672   6.217  18.530  0.00  0.00    +0.000 A 
ATOM     22  C   UNL     1       4.218   4.947  18.705  0.00  0.00    +0.000 A 
ATOM     23  C   UNL     1       3.702   4.106  19.686  0.00  0.00    +0.000 A 
ATOM     24  C   UNL     1       2.638   4.532  20.484  0.00  0.00    +0.000 A 
ATOM     25  C   UNL     1       2.088   5.799  20.294  0.00  0.00    +0.000 A 
BRANCH  23  26
ATOM     26  C   UNL     1       4.261   2.804  19.876  0.00  0.00    +0.000 C 
ATOM     27  N   UNL     1       4.716   1.744  20.030  0.00  0.00    +0.000 NA
ENDBRANCH  23  26
ENDBRANCH   5  20
TORSDOF 4
ENDMDL
MODEL 8
REMARK VINA RESULT:      -7.5      4.276      9.203
REMARK  Name = 
REMARK  5 active torsions:
REMARK  status: ('A' for Active; 'I' for Inactive)
REMARK    1  A    between atoms: C_1  and  C_2
REMARK    2  A    between atoms: C_4  and  O_5
REMARK    3  A    between atoms: C_10  and  C_11
REMARK    4  A    between atoms: C_15  and  C_16
REMARK    5  A    between atoms: C_19  and  C_20
REMARK                            x       y       z     vdW  Elec       q    Type
REMARK                         _______ _______ _______ _____ _____    ______ ____
ROOT
ATOM      1  C   UNL     1      -1.514  12.281  19.644  0.00  0.00    +0.000 A 
ATOM      2  C   UNL     1      -0.780  13.402  19.258  0.00  0.00    +0.000 A 
ATOM      3  C   UNL     1       0.479  13.284  18.683  0.00  0.00    +0.000 A 
ATOM      4  C   UNL     1       1.078  12.034  18.607  0.00  0.00    +0.000 A 
ATOM      5  C   UNL     1       0.434  10.888  19.103  0.00  0.00    +0.000 A 
ATOM      6  C   UNL     1      -0.884  11.030  19.584  0.00  0.00    +0.000 A 
ENDROOT
BRANCH   1  15
ATOM      7  C   UNL     1      -1.318  13.028  23.148  0.00  0.00    +0.000 C 
ATOM      8  C   UNL     1      -2.776  12.888  22.810  0.00  0.00    +0.000 A 
ATOM      9  C   UNL     1      -3.701  13.000  23.867  0.00  0.00    +0.000 A 
ATOM     10  C   UNL     1      -5.061  12.920  23.612  0.00  0.00    +0.000 A 
ATOM     11  N   UNL     1      -5.618  12.732  22.409  0.00  0.00    +0.000 NA
ATOM     12  C   UNL     1      -4.709  12.606  21.425  0.00  0.00    +0.000 A 
ATOM     13  N   UNL     1      -5.002  12.414  20.113  0.00  0.00    +0.000 N 
ATOM     14  N   UNL     1      -3.924  12.317  19.319  0.00  0.00    +0.000 NA
ATOM     15  C   UNL     1      -2.878  12.419  20.165  0.00  0.00    +0.000 A 
ATOM     16  C   UNL     1      -3.322  12.649  21.521  0.00  0.00    +0.000 A 
ATOM     17  H   UNL     1      -5.926  12.342  19.706  0.00  0.00    +0.000 HD
BRANCH  10  18
ATOM     18  O   UNL     1      -5.956  13.049  24.638  0.00  0.00    +0.000 OA
ATOM     19  H   UNL     1      -5.459  13.075  25.468  0.00  0.00    +0.000 HD
ENDBRANCH  10  18
ENDBRANCH   1  15
BRANCH   5  20
ATOM     20  C   UNL     1       1.142   9.593  19.154  0.00  0.00    +0.000 A 
ATOM     21  C   UNL     1       1.154   8.827  20.337  0.00  0.00    +0.000 A 
ATOM     22  C   UNL     1       1.811   7.600  20.403  0.00  0.00    +0.000 A 
ATOM     23  C   UNL     1       2.457   7.103  19.275  0.00  0.00    +0.000 A 
ATOM     24  C   UNL     1       2.449   7.834  18.086  0.00  0.00    +0.000 A 
ATOM     25  C   UNL     1       1.801   9.067  18.030  0.00  0.00    +0.000 A 
BRANCH  23  26
ATOM     26  C   UNL     1       3.128   5.842  19.335  0.00  0.00    +0.000 C 
ATOM     27  N   UNL     1       3.673   4.815  19.383  0.00  0.00    +0.000 NA
ENDBRANCH  23  26
ENDBRANCH   5  20
TORSDOF 4
ENDMDL
MODEL 9
REMARK VINA RESULT:      -7.5      5.377      9.245
REMARK  Name = 
REMARK  5 active torsions:
REMARK  status: ('A' for Active; 'I' for Inactive)
REMARK    1  A    between atoms: C_1  and  C_2
REMARK    2  A    between atoms: C_4  and  O_5
REMARK    3  A    between atoms: C_10  and  C_11
REMARK    4  A    between atoms: C_15  and  C_16
REMARK    5  A    between atoms: C_19  and  C_20
REMARK                            x       y       z     vdW  Elec       q    Type
REMARK                         _______ _______ _______ _____ _____    ______ ____
ROOT
ATOM      1  C   UNL     1      -1.300  11.513  18.083  0.00  0.00    +0.000 A 
ATOM      2  C   UNL     1      -0.660  12.700  18.438  0.00  0.00    +0.000 A 
ATOM      3  C   UNL     1       0.700  12.736  18.720  0.00  0.00    +0.000 A 
ATOM      4  C   UNL     1       1.414  11.548  18.778  0.00  0.00    +0.000 A 
ATOM      5  C   UNL     1       0.787  10.310  18.557  0.00  0.00    +0.000 A 
ATOM      6  C   UNL     1      -0.570  10.320  18.170  0.00  0.00    +0.000 A 
ENDROOT
BRANCH   1  15
ATOM      7  C   UNL     1      -3.223  12.777  20.835  0.00  0.00    +0.000 C 
ATOM      8  C   UNL     1      -4.201  12.364  19.770  0.00  0.00    +0.000 A 
ATOM      9  C   UNL     1      -5.573  12.480  20.068  0.00  0.00    +0.000 A 
ATOM     10  C   UNL     1      -6.522  12.153  19.112  0.00  0.00    +0.000 A 
ATOM     11  N   UNL     1      -6.261  11.709  17.876  0.00  0.00    +0.000 NA
ATOM     12  C   UNL     1      -4.944  11.587  17.631  0.00  0.00    +0.000 A 
ATOM     13  N   UNL     1      -4.406  11.164  16.457  0.00  0.00    +0.000 N 
ATOM     14  N   UNL     1      -3.064  11.124  16.454  0.00  0.00    +0.000 NA
ATOM     15  C   UNL     1      -2.716  11.509  17.699  0.00  0.00    +0.000 A 
ATOM     16  C   UNL     1      -3.878  11.859  18.482  0.00  0.00    +0.000 A 
ATOM     17  H   UNL     1      -4.913  10.891  15.625  0.00  0.00    +0.000 HD
BRANCH  10  18
ATOM     18  O   UNL     1      -7.853  12.286  19.399  0.00  0.00    +0.000 OA
ATOM     19  H   UNL     1      -7.932  12.671  20.283  0.00  0.00    +0.000 HD
ENDBRANCH  10  18
ENDBRANCH   1  15
BRANCH   5  20
ATOM     20  C   UNL     1       1.522   9.047  18.769  0.00  0.00    +0.000 A 
ATOM     21  C   UNL     1       1.422   8.354  19.992  0.00  0.00    +0.000 A 
ATOM     22  C   UNL     1       2.104   7.159  20.210  0.00  0.00    +0.000 A 
ATOM     23  C   UNL     1       2.889   6.619  19.195  0.00  0.00    +0.000 A 
ATOM     24  C   UNL     1       2.995   7.277  17.968  0.00  0.00    +0.000 A 
ATOM     25  C   UNL     1       2.320   8.480  17.761  0.00  0.00    +0.000 A 
BRANCH  23  26
ATOM     26  C   UNL     1       3.586   5.390  19.410  0.00  0.00    +0.000 C 
ATOM     27  N   UNL     1       4.154   4.389  19.582  0.00  0.00    +0.000 NA
ENDBRANCH  23  26
ENDBRANCH   5  20
TORSDOF 4
ENDMDL
