MODEL 1
REMARK VINA RESULT:      -8.6      0.000      0.000
REMARK  Name = 
REMARK  7 active torsions:
REMARK  status: ('A' for Active; 'I' for Inactive)
REMARK    1  A    between atoms: C_1  and  C_2
REMARK    2  A    between atoms: C_5  and  C_6
REMARK    3  A    between atoms: C_11  and  C_12
REMARK    4  A    between atoms: N_14  and  C_15
REMARK    5  A    between atoms: C_19  and  C_20
REMARK    6  A    between atoms: C_19  and  N_21
REMARK    7  A    between atoms: C_25  and  C_26
REMARK                            x       y       z     vdW  Elec       q    Type
REMARK                         _______ _______ _______ _____ _____    ______ ____
ROOT
ATOM      1  C   UNL     1       1.752   9.229  19.319  0.00  0.00    +0.000 C 
ATOM      2  C   UNL     1       1.035   9.825  18.101  0.00  0.00    +0.000 C 
ATOM      3  C   UNL     1      -0.453   9.859  18.471  0.00  0.00    +0.000 C 
ATOM      4  C   UNL     1      -0.558   9.359  19.917  0.00  0.00    +0.000 C 
ATOM      5  C   UNL     1       0.823   9.643  20.526  0.00  0.00    +0.000 C 
ATOM      6  C   UNL     1       1.191   8.839  21.781  0.00  0.00    +0.000 C 
ENDROOT
BRANCH   5   7
ATOM      7  N   UNL     1       0.966  11.080  20.837  0.00  0.00    +0.000 N 
ATOM      8  C   UNL     1       0.171  11.863  21.640  0.00  0.00    +0.000 A 
ATOM      9  C   UNL     1      -0.917  11.411  22.390  0.00  0.00    +0.000 A 
ATOM     10  N   UNL     1      -1.690  12.194  23.187  0.00  0.00    +0.000 NA
ATOM     11  C   UNL     1      -1.351  13.505  23.233  0.00  0.00    +0.000 A 
ATOM     12  C   UNL     1      -0.271  13.970  22.494  0.00  0.00    +0.000 A 
ATOM     13  N   UNL     1       0.496  13.168  21.695  0.00  0.00    +0.000 NA
ATOM     14  H   UNL     1       1.688  11.618  20.372  0.00  0.00    +0.000 HD
BRANCH  11  15
ATOM     15  C   UNL     1      -2.131  14.466  24.101  0.00  0.00    +0.000 C 
ATOM     16  F   UNL     1      -2.576  15.577  23.445  0.00  0.00    +0.000 F 
ATOM     17  F   UNL     1      -3.242  13.892  24.647  0.00  0.00    +0.000 F 
ATOM     18  F   UNL     1      -1.403  14.929  25.158  0.00  0.00    +0.000 F 
ENDBRANCH  11  15
ENDBRANCH   5   7
BRANCH   1  21
ATOM     19  C   UNL     1       2.774   7.135  18.239  0.00  0.00    +0.000 C 
ATOM     20  O   UNL     1       3.374   7.730  17.349  0.00  0.00    +0.000 OA
ATOM     21  N   UNL     1       2.040   7.777  19.212  0.00  0.00    +0.000 N 
ATOM     22  H   UNL     1       1.599   7.201  19.925  0.00  0.00    +0.000 HD
BRANCH  19  28
ATOM     23  C   UNL     1       3.933   4.801  18.384  0.00  0.00    +0.000 A 
ATOM     24  C   UNL     1       3.758   3.398  18.274  0.00  0.00    +0.000 A 
ATOM     25  C   UNL     1       2.524   2.827  17.962  0.00  0.00    +0.000 A 
ATOM     26  C   UNL     1       1.431   3.648  17.746  0.00  0.00    +0.000 A 
ATOM     27  C   UNL     1       1.574   5.032  17.867  0.00  0.00    +0.000 A 
ATOM     28  C   UNL     1       2.813   5.631  18.201  0.00  0.00    +0.000 A 
BRANCH  23  33
ATOM     29  C   UNL     1       8.312   7.049  18.476  0.00  0.00    +0.000 C 
ATOM     30  C   UNL     1       7.159   6.188  18.793  0.00  0.00    +0.000 A 
ATOM     31  N   UNL     1       7.154   5.349  19.834  0.00  0.00    +0.000 NA
ATOM     32  O   UNL     1       5.907   4.736  19.740  0.00  0.00    +0.000 OA
ATOM     33  C   UNL     1       5.282   5.276  18.647  0.00  0.00    +0.000 A 
ATOM     34  N   UNL     1       6.011   6.185  18.037  0.00  0.00    +0.000 NA
ENDBRANCH  23  33
ENDBRANCH  19  28
ENDBRANCH   1  21
TORSDOF 5
ENDMDL
MODEL 2
REMARK VINA RESULT:      -8.4      1.344      1.427
REMARK  Name = 
REMARK  7 active torsions:
REMARK  status: ('A' for Active; 'I' for Inactive)
REMARK    1  A    between atoms: C_1  and  C_2
REMARK    2  A    between atoms: C_5  and  C_6
REMARK    3  A    between atoms: C_11  and  C_12
REMARK    4  A    between atoms: N_14  and  C_15
REMARK    5  A    between atoms: C_19  and  C_20
REMARK    6  A    between atoms: C_19  and  N_21
REMARK    7  A    between atoms: C_25  and  C_26
REMARK                            x       y       z     vdW  Elec       q    Type
REMARK                         _______ _______ _______ _____ _____    ______ ____
ROOT
ATOM      1  C   UNL     1       1.819   8.880  19.801  0.00  0.00    +0.000 C 
ATOM      2  C   UNL     1       1.589   9.346  18.358  0.00  0.00    +0.000 C 
ATOM      3  C   UNL     1       0.087   9.634  18.250  0.00  0.00    +0.000 C 
ATOM      4  C   UNL     1      -0.506   9.407  19.645  0.00  0.00    +0.000 C 
ATOM      5  C   UNL     1       0.675   9.610  20.606  0.00  0.00    +0.000 C 
ATOM      6  C   UNL     1       0.529   8.992  22.003  0.00  0.00    +0.000 C 
ENDROOT
BRANCH   5   7
ATOM      7  N   UNL     1       0.971  11.049  20.763  0.00  0.00    +0.000 N 
ATOM      8  C   UNL     1       0.308  11.978  21.528  0.00  0.00    +0.000 A 
ATOM      9  C   UNL     1      -0.764  11.709  22.381  0.00  0.00    +0.000 A 
ATOM     10  N   UNL     1      -1.405  12.636  23.138  0.00  0.00    +0.000 NA
ATOM     11  C   UNL     1      -0.943  13.906  23.034  0.00  0.00    +0.000 A 
ATOM     12  C   UNL     1       0.123  14.190  22.191  0.00  0.00    +0.000 A 
ATOM     13  N   UNL     1       0.757  13.244  21.434  0.00  0.00    +0.000 NA
ATOM     14  H   UNL     1       1.708  11.466  20.206  0.00  0.00    +0.000 HD
BRANCH  11  15
ATOM     15  C   UNL     1      -1.570  15.016  23.845  0.00  0.00    +0.000 C 
ATOM     16  F   UNL     1      -1.642  16.213  23.193  0.00  0.00    +0.000 F 
ATOM     17  F   UNL     1      -2.849  14.728  24.225  0.00  0.00    +0.000 F 
ATOM     18  F   UNL     1      -0.894  15.268  25.003  0.00  0.00    +0.000 F 
ENDBRANCH  11  15
ENDBRANCH   5   7
BRANCH   1  21
ATOM     19  C   UNL     1       2.704   6.514  19.333  0.00  0.00    +0.000 C 
ATOM     20  O   UNL     1       3.606   6.863  18.577  0.00  0.00    +0.000 OA
ATOM     21  N   UNL     1       1.869   7.405  19.970  0.00  0.00    +0.000 N 
ATOM     22  H   UNL     1       1.167   7.024  20.600  0.00  0.00    +0.000 HD
BRANCH  19  28
ATOM     23  C   UNL     1       3.342   3.995  19.090  0.00  0.00    +0.000 A 
ATOM     24  C   UNL     1       2.933   2.656  19.320  0.00  0.00    +0.000 A 
ATOM     25  C   UNL     1       1.708   2.347  19.911  0.00  0.00    +0.000 A 
ATOM     26  C   UNL     1       0.855   3.371  20.284  0.00  0.00    +0.000 A 
ATOM     27  C   UNL     1       1.244   4.698  20.085  0.00  0.00    +0.000 A 
ATOM     28  C   UNL     1       2.490   5.035  19.504  0.00  0.00    +0.000 A 
BRANCH  23  33
ATOM     29  C   UNL     1       7.046   4.643  15.914  0.00  0.00    +0.000 C 
ATOM     30  C   UNL     1       6.251   4.494  17.145  0.00  0.00    +0.000 A 
ATOM     31  N   UNL     1       6.798   4.548  18.364  0.00  0.00    +0.000 NA
ATOM     32  O   UNL     1       5.709   4.341  19.208  0.00  0.00    +0.000 OA
ATOM     33  C   UNL     1       4.611   4.186  18.406  0.00  0.00    +0.000 A 
ATOM     34  N   UNL     1       4.893   4.285  17.124  0.00  0.00    +0.000 NA
ENDBRANCH  23  33
ENDBRANCH  19  28
ENDBRANCH   1  21
TORSDOF 5
ENDMDL
MODEL 3
REMARK VINA RESULT:      -8.3      1.009      1.282
REMARK  Name = 
REMARK  7 active torsions:
REMARK  status: ('A' for Active; 'I' for Inactive)
REMARK    1  A    between atoms: C_1  and  C_2
REMARK    2  A    between atoms: C_5  and  C_6
REMARK    3  A    between atoms: C_11  and  C_12
REMARK    4  A    between atoms: N_14  and  C_15
REMARK    5  A    between atoms: C_19  and  C_20
REMARK    6  A    between atoms: C_19  and  N_21
REMARK    7  A    between atoms: C_25  and  C_26
REMARK                            x       y       z     vdW  Elec       q    Type
REMARK                         _______ _______ _______ _____ _____    ______ ____
ROOT
ATOM      1  C   UNL     1       1.551   9.510  19.324  0.00  0.00    +0.000 C 
ATOM      2  C   UNL     1       0.643  10.096  18.236  0.00  0.00    +0.000 C 
ATOM      3  C   UNL     1      -0.787   9.969  18.776  0.00  0.00    +0.000 C 
ATOM      4  C   UNL     1      -0.673   9.388  20.190  0.00  0.00    +0.000 C 
ATOM      5  C   UNL     1       0.741   9.770  20.653  0.00  0.00    +0.000 C 
ATOM      6  C   UNL     1       1.327   8.941  21.804  0.00  0.00    +0.000 C 
ENDROOT
BRANCH   5   7
ATOM      7  N   UNL     1       0.791  11.196  21.035  0.00  0.00    +0.000 N 
ATOM      8  C   UNL     1      -0.090  11.902  21.819  0.00  0.00    +0.000 A 
ATOM      9  C   UNL     1      -1.197  11.365  22.479  0.00  0.00    +0.000 A 
ATOM     10  N   UNL     1      -2.055  12.072  23.258  0.00  0.00    +0.000 NA
ATOM     11  C   UNL     1      -1.786  13.394  23.383  0.00  0.00    +0.000 A 
ATOM     12  C   UNL     1      -0.688  13.944  22.735  0.00  0.00    +0.000 A 
ATOM     13  N   UNL     1       0.166  13.217  21.952  0.00  0.00    +0.000 NA
ATOM     14  H   UNL     1       1.513  11.789  20.641  0.00  0.00    +0.000 HD
BRANCH  11  15
ATOM     15  C   UNL     1      -2.665  14.275  24.241  0.00  0.00    +0.000 C 
ATOM     16  F   UNL     1      -2.006  14.897  25.262  0.00  0.00    +0.000 F 
ATOM     17  F   UNL     1      -3.261  15.272  23.526  0.00  0.00    +0.000 F 
ATOM     18  F   UNL     1      -3.686  13.586  24.828  0.00  0.00    +0.000 F 
ENDBRANCH  11  15
ENDBRANCH   5   7
BRANCH   1  21
ATOM     19  C   UNL     1       2.618   7.581  18.005  0.00  0.00    +0.000 C 
ATOM     20  O   UNL     1       3.051   8.276  17.091  0.00  0.00    +0.000 OA
ATOM     21  N   UNL     1       1.952   8.099  19.094  0.00  0.00    +0.000 N 
ATOM     22  H   UNL     1       1.653   7.447  19.816  0.00  0.00    +0.000 HD
BRANCH  19  28
ATOM     23  C   UNL     1       3.972   5.387  17.600  0.00  0.00    +0.000 A 
ATOM     24  C   UNL     1       3.904   3.975  17.477  0.00  0.00    +0.000 A 
ATOM     25  C   UNL     1       2.701   3.279  17.584  0.00  0.00    +0.000 A 
ATOM     26  C   UNL     1       1.529   3.978  17.812  0.00  0.00    +0.000 A 
ATOM     27  C   UNL     1       1.571   5.367  17.955  0.00  0.00    +0.000 A 
ATOM     28  C   UNL     1       2.785   6.092  17.869  0.00  0.00    +0.000 A 
BRANCH  23  33
ATOM     29  C   UNL     1       8.202   7.891  17.864  0.00  0.00    +0.000 C 
ATOM     30  C   UNL     1       7.113   6.999  17.429  0.00  0.00    +0.000 A 
ATOM     31  N   UNL     1       7.176   6.289  16.298  0.00  0.00    +0.000 NA
ATOM     32  O   UNL     1       5.952   5.624  16.274  0.00  0.00    +0.000 OA
ATOM     33  C   UNL     1       5.274   6.002  17.402  0.00  0.00    +0.000 A 
ATOM     34  N   UNL     1       5.956   6.840  18.153  0.00  0.00    +0.000 NA
ENDBRANCH  23  33
ENDBRANCH  19  28
ENDBRANCH   1  21
TORSDOF 5
ENDMDL
MODEL 4
REMARK VINA RESULT:      -8.2      4.940     10.008
REMARK  Name = 
REMARK  7 active torsions:
REMARK  status: ('A' for Active; 'I' for Inactive)
REMARK    1  A    between atoms: C_1  and  C_2
REMARK    2  A    between atoms: C_5  and  C_6
REMARK    3  A    between atoms: C_11  and  C_12
REMARK    4  A    between atoms: N_14  and  C_15
REMARK    5  A    between atoms: C_19  and  C_20
REMARK    6  A    between atoms: C_19  and  N_21
REMARK    7  A    between atoms: C_25  and  C_26
REMARK                            x       y       z     vdW  Elec       q    Type
REMARK                         _______ _______ _______ _____ _____    ______ ____
ROOT
ATOM      1  C   UNL     1      -0.996  11.359  19.704  0.00  0.00    +0.000 C 
ATOM      2  C   UNL     1      -2.049  10.953  18.666  0.00  0.00    +0.000 C 
ATOM      3  C   UNL     1      -1.829  11.883  17.466  0.00  0.00    +0.000 C 
ATOM      4  C   UNL     1      -0.611  12.750  17.800  0.00  0.00    +0.000 C 
ATOM      5  C   UNL     1       0.184  11.926  18.823  0.00  0.00    +0.000 C 
ATOM      6  C   UNL     1       1.177  12.701  19.699  0.00  0.00    +0.000 C 
ENDROOT
BRANCH   5   7
ATOM      7  N   UNL     1       0.915  10.832  18.149  0.00  0.00    +0.000 N 
ATOM      8  C   UNL     1       1.308   9.622  18.668  0.00  0.00    +0.000 A 
ATOM      9  C   UNL     1       1.019   9.158  19.953  0.00  0.00    +0.000 A 
ATOM     10  N   UNL     1       1.407   7.956  20.450  0.00  0.00    +0.000 NA
ATOM     11  C   UNL     1       2.126   7.173  19.609  0.00  0.00    +0.000 A 
ATOM     12  C   UNL     1       2.421   7.619  18.328  0.00  0.00    +0.000 A 
ATOM     13  N   UNL     1       2.023   8.834  17.843  0.00  0.00    +0.000 NA
ATOM     14  H   UNL     1       1.249  10.970  17.202  0.00  0.00    +0.000 HD
BRANCH  11  15
ATOM     15  C   UNL     1       2.595   5.806  20.051  0.00  0.00    +0.000 C 
ATOM     16  F   UNL     1       2.261   5.489  21.336  0.00  0.00    +0.000 F 
ATOM     17  F   UNL     1       2.083   4.804  19.281  0.00  0.00    +0.000 F 
ATOM     18  F   UNL     1       3.950   5.666  19.979  0.00  0.00    +0.000 F 
ENDBRANCH  11  15
ENDBRANCH   5   7
BRANCH   1  21
ATOM     19  C   UNL     1      -1.636  12.020  22.103  0.00  0.00    +0.000 C 
ATOM     20  O   UNL     1      -1.267  10.973  22.626  0.00  0.00    +0.000 OA
ATOM     21  N   UNL     1      -1.496  12.279  20.757  0.00  0.00    +0.000 N 
ATOM     22  H   UNL     1      -1.807  13.187  20.418  0.00  0.00    +0.000 HD
BRANCH  19  28
ATOM     23  C   UNL     1      -3.688  13.365  22.992  0.00  0.00    +0.000 A 
ATOM     24  C   UNL     1      -4.129  14.368  23.894  0.00  0.00    +0.000 A 
ATOM     25  C   UNL     1      -3.251  15.036  24.747  0.00  0.00    +0.000 A 
ATOM     26  C   UNL     1      -1.903  14.722  24.716  0.00  0.00    +0.000 A 
ATOM     27  C   UNL     1      -1.447  13.726  23.850  0.00  0.00    +0.000 A 
ATOM     28  C   UNL     1      -2.324  13.021  22.990  0.00  0.00    +0.000 A 
BRANCH  23  33
ATOM     29  C   UNL     1      -6.382  11.630  19.255  0.00  0.00    +0.000 C 
ATOM     30  C   UNL     1      -5.900  11.997  20.598  0.00  0.00    +0.000 A 
ATOM     31  N   UNL     1      -6.599  11.737  21.708  0.00  0.00    +0.000 NA
ATOM     32  O   UNL     1      -5.798  12.265  22.717  0.00  0.00    +0.000 OA
ATOM     33  C   UNL     1      -4.690  12.790  22.109  0.00  0.00    +0.000 A 
ATOM     34  N   UNL     1      -4.701  12.638  20.802  0.00  0.00    +0.000 NA
ENDBRANCH  23  33
ENDBRANCH  19  28
ENDBRANCH   1  21
TORSDOF 5
ENDMDL
MODEL 5
REMARK VINA RESULT:      -8.1      1.305      1.543
REMARK  Name = 
REMARK  7 active torsions:
REMARK  status: ('A' for Active; 'I' for Inactive)
REMARK    1  A    between atoms: C_1  and  C_2
REMARK    2  A    between atoms: C_5  and  C_6
REMARK    3  A    between atoms: C_11  and  C_12
REMARK    4  A    between atoms: N_14  and  C_15
REMARK    5  A    between atoms: C_19  and  C_20
REMARK    6  A    between atoms: C_19  and  N_21
REMARK    7  A    between atoms: C_25  and  C_26
REMARK                            x       y       z     vdW  Elec       q    Type
REMARK                         _______ _______ _______ _____ _____    ______ ____
ROOT
ATOM      1  C   UNL     1       1.709   9.119  20.370  0.00  0.00    +0.000 C 
ATOM      2  C   UNL     1       1.494   9.588  18.925  0.00  0.00    +0.000 C 
ATOM      3  C   UNL     1      -0.024   9.728  18.756  0.00  0.00    +0.000 C 
ATOM      4  C   UNL     1      -0.649   9.416  20.121  0.00  0.00    +0.000 C 
ATOM      5  C   UNL     1       0.465   9.716  21.135  0.00  0.00    +0.000 C 
ATOM      6  C   UNL     1       0.323   9.060  22.515  0.00  0.00    +0.000 C 
ENDROOT
BRANCH   5   7
ATOM      7  N   UNL     1       0.609  11.174  21.327  0.00  0.00    +0.000 N 
ATOM      8  C   UNL     1      -0.210  12.028  22.025  0.00  0.00    +0.000 A 
ATOM      9  C   UNL     1      -1.332  11.651  22.766  0.00  0.00    +0.000 A 
ATOM     10  N   UNL     1      -2.128  12.505  23.459  0.00  0.00    +0.000 NA
ATOM     11  C   UNL     1      -1.778  13.813  23.407  0.00  0.00    +0.000 A 
ATOM     12  C   UNL     1      -0.664  14.205  22.676  0.00  0.00    +0.000 A 
ATOM     13  N   UNL     1       0.127  13.331  21.982  0.00  0.00    +0.000 NA
ATOM     14  H   UNL     1       1.356  11.665  20.848  0.00  0.00    +0.000 HD
BRANCH  11  15
ATOM     15  C   UNL     1      -2.583  14.850  24.156  0.00  0.00    +0.000 C 
ATOM     16  F   UNL     1      -3.743  14.375  24.695  0.00  0.00    +0.000 F 
ATOM     17  F   UNL     1      -1.891  15.396  25.197  0.00  0.00    +0.000 F 
ATOM     18  F   UNL     1      -2.947  15.902  23.368  0.00  0.00    +0.000 F 
ENDBRANCH  11  15
ENDBRANCH   5   7
BRANCH   1  21
ATOM     19  C   UNL     1       2.428   6.778  19.596  0.00  0.00    +0.000 C 
ATOM     20  O   UNL     1       2.905   7.138  18.524  0.00  0.00    +0.000 OA
ATOM     21  N   UNL     1       1.898   7.654  20.518  0.00  0.00    +0.000 N 
ATOM     22  H   UNL     1       1.550   7.265  21.390  0.00  0.00    +0.000 HD
BRANCH  19  28
ATOM     23  C   UNL     1       3.409   4.360  19.650  0.00  0.00    +0.000 A 
ATOM     24  C   UNL     1       3.144   2.995  19.933  0.00  0.00    +0.000 A 
ATOM     25  C   UNL     1       1.896   2.559  20.377  0.00  0.00    +0.000 A 
ATOM     26  C   UNL     1       0.875   3.478  20.545  0.00  0.00    +0.000 A 
ATOM     27  C   UNL     1       1.116   4.830  20.291  0.00  0.00    +0.000 A 
ATOM     28  C   UNL     1       2.381   5.297  19.858  0.00  0.00    +0.000 A 
BRANCH  23  33
ATOM     29  C   UNL     1       8.079   5.707  18.874  0.00  0.00    +0.000 C 
ATOM     30  C   UNL     1       6.710   5.194  18.699  0.00  0.00    +0.000 A 
ATOM     31  N   UNL     1       6.266   4.713  17.533  0.00  0.00    +0.000 NA
ATOM     32  O   UNL     1       4.946   4.370  17.813  0.00  0.00    +0.000 OA
ATOM     33  C   UNL     1       4.729   4.678  19.130  0.00  0.00    +0.000 A 
ATOM     34  N   UNL     1       5.792   5.178  19.722  0.00  0.00    +0.000 NA
ENDBRANCH  23  33
ENDBRANCH  19  28
ENDBRANCH   1  21
TORSDOF 5
ENDMDL
MODEL 6
REMARK VINA RESULT:      -8.0      4.887     10.062
REMARK  Name = 
REMARK  7 active torsions:
REMARK  status: ('A' for Active; 'I' for Inactive)
REMARK    1  A    between atoms: C_1  and  C_2
REMARK    2  A    between atoms: C_5  and  C_6
REMARK    3  A    between atoms: C_11  and  C_12
REMARK    4  A    between atoms: N_14  and  C_15
REMARK    5  A    between atoms: C_19  and  C_20
REMARK    6  A    between atoms: C_19  and  N_21
REMARK    7  A    between atoms: C_25  and  C_26
REMARK                            x       y       z     vdW  Elec       q    Type
REMARK                         _______ _______ _______ _____ _____    ______ ____
ROOT
ATOM      1  C   UNL     1      -1.028  11.356  19.617  0.00  0.00    +0.000 C 
ATOM      2  C   UNL     1      -2.092  10.919  18.603  0.00  0.00    +0.000 C 
ATOM      3  C   UNL     1      -1.922  11.849  17.396  0.00  0.00    +0.000 C 
ATOM      4  C   UNL     1      -0.718  12.748  17.700  0.00  0.00    +0.000 C 
ATOM      5  C   UNL     1       0.118  11.948  18.709  0.00  0.00    +0.000 C 
ATOM      6  C   UNL     1       1.110  12.751  19.560  0.00  0.00    +0.000 C 
ENDROOT
BRANCH   5   7
ATOM      7  N   UNL     1       0.862  10.870  18.023  0.00  0.00    +0.000 N 
ATOM      8  C   UNL     1       1.292   9.670  18.537  0.00  0.00    +0.000 A 
ATOM      9  C   UNL     1       1.038   9.203  19.827  0.00  0.00    +0.000 A 
ATOM     10  N   UNL     1       1.462   8.010  20.319  0.00  0.00    +0.000 NA
ATOM     11  C   UNL     1       2.183   7.243  19.466  0.00  0.00    +0.000 A 
ATOM     12  C   UNL     1       2.445   7.693  18.179  0.00  0.00    +0.000 A 
ATOM     13  N   UNL     1       2.010   8.897  17.700  0.00  0.00    +0.000 NA
ATOM     14  H   UNL     1       1.175  11.014  17.070  0.00  0.00    +0.000 HD
BRANCH  11  15
ATOM     15  C   UNL     1       2.692   5.888  19.902  0.00  0.00    +0.000 C 
ATOM     16  F   UNL     1       2.277   4.855  19.112  0.00  0.00    +0.000 F 
ATOM     17  F   UNL     1       4.054   5.819  19.910  0.00  0.00    +0.000 F 
ATOM     18  F   UNL     1       2.302   5.562  21.168  0.00  0.00    +0.000 F 
ENDBRANCH  11  15
ENDBRANCH   5   7
BRANCH   1  21
ATOM     19  C   UNL     1      -1.649  12.004  22.024  0.00  0.00    +0.000 C 
ATOM     20  O   UNL     1      -1.260  10.961  22.541  0.00  0.00    +0.000 OA
ATOM     21  N   UNL     1      -1.529  12.267  20.677  0.00  0.00    +0.000 N 
ATOM     22  H   UNL     1      -1.855  13.171  20.344  0.00  0.00    +0.000 HD
BRANCH  19  28
ATOM     23  C   UNL     1      -3.697  13.365  22.898  0.00  0.00    +0.000 A 
ATOM     24  C   UNL     1      -4.142  14.352  23.815  0.00  0.00    +0.000 A 
ATOM     25  C   UNL     1      -3.273  14.979  24.708  0.00  0.00    +0.000 A 
ATOM     26  C   UNL     1      -1.932  14.640  24.703  0.00  0.00    +0.000 A 
ATOM     27  C   UNL     1      -1.473  13.658  23.822  0.00  0.00    +0.000 A 
ATOM     28  C   UNL     1      -2.340  12.995  22.921  0.00  0.00    +0.000 A 
BRANCH  23  33
ATOM     29  C   UNL     1      -7.551  11.297  20.640  0.00  0.00    +0.000 C 
ATOM     30  C   UNL     1      -6.292  12.010  20.917  0.00  0.00    +0.000 A 
ATOM     31  N   UNL     1      -5.528  12.522  19.946  0.00  0.00    +0.000 NA
ATOM     32  O   UNL     1      -4.455  13.071  20.645  0.00  0.00    +0.000 OA
ATOM     33  C   UNL     1      -4.686  12.834  21.974  0.00  0.00    +0.000 A 
ATOM     34  N   UNL     1      -5.814  12.193  22.192  0.00  0.00    +0.000 NA
ENDBRANCH  23  33
ENDBRANCH  19  28
ENDBRANCH   1  21
TORSDOF 5
ENDMDL
MODEL 7
REMARK VINA RESULT:      -8.0      4.760      9.397
REMARK  Name = 
REMARK  7 active torsions:
REMARK  status: ('A' for Active; 'I' for Inactive)
REMARK    1  A    between atoms: C_1  and  C_2
REMARK    2  A    between atoms: C_5  and  C_6
REMARK    3  A    between atoms: C_11  and  C_12
REMARK    4  A    between atoms: N_14  and  C_15
REMARK    5  A    between atoms: C_19  and  C_20
REMARK    6  A    between atoms: C_19  and  N_21
REMARK    7  A    between atoms: C_25  and  C_26
REMARK                            x       y       z     vdW  Elec       q    Type
REMARK                         _______ _______ _______ _____ _____    ______ ____
ROOT
ATOM      1  C   UNL     1      -0.966  11.230  19.665  0.00  0.00    +0.000 C 
ATOM      2  C   UNL     1      -2.020  10.851  18.618  0.00  0.00    +0.000 C 
ATOM      3  C   UNL     1      -1.842  11.850  17.469  0.00  0.00    +0.000 C 
ATOM      4  C   UNL     1      -0.643  12.732  17.835  0.00  0.00    +0.000 C 
ATOM      5  C   UNL     1       0.187  11.875  18.803  0.00  0.00    +0.000 C 
ATOM      6  C   UNL     1       1.170  12.630  19.708  0.00  0.00    +0.000 C 
ENDROOT
BRANCH   5   7
ATOM      7  N   UNL     1       0.939  10.841  18.062  0.00  0.00    +0.000 N 
ATOM      8  C   UNL     1       1.400   9.630  18.519  0.00  0.00    +0.000 A 
ATOM      9  C   UNL     1       1.175   9.105  19.793  0.00  0.00    +0.000 A 
ATOM     10  N   UNL     1       1.629   7.902  20.229  0.00  0.00    +0.000 NA
ATOM     11  C   UNL     1       2.350   7.184  19.335  0.00  0.00    +0.000 A 
ATOM     12  C   UNL     1       2.582   7.691  18.063  0.00  0.00    +0.000 A 
ATOM     13  N   UNL     1       2.117   8.905  17.640  0.00  0.00    +0.000 NA
ATOM     14  H   UNL     1       1.233  11.029  17.111  0.00  0.00    +0.000 HD
BRANCH  11  15
ATOM     15  C   UNL     1       2.890   5.822  19.706  0.00  0.00    +0.000 C 
ATOM     16  F   UNL     1       2.471   5.367  20.922  0.00  0.00    +0.000 F 
ATOM     17  F   UNL     1       2.534   4.857  18.810  0.00  0.00    +0.000 F 
ATOM     18  F   UNL     1       4.254   5.792  19.752  0.00  0.00    +0.000 F 
ENDBRANCH  11  15
ENDBRANCH   5   7
BRANCH   1  21
ATOM     19  C   UNL     1      -1.467  11.795  22.121  0.00  0.00    +0.000 C 
ATOM     20  O   UNL     1      -0.932  10.797  22.593  0.00  0.00    +0.000 OA
ATOM     21  N   UNL     1      -1.477  12.077  20.772  0.00  0.00    +0.000 N 
ATOM     22  H   UNL     1      -1.922  12.943  20.476  0.00  0.00    +0.000 HD
BRANCH  19  28
ATOM     23  C   UNL     1      -1.852  14.024  23.421  0.00  0.00    +0.000 A 
ATOM     24  C   UNL     1      -2.652  14.696  24.381  0.00  0.00    +0.000 A 
ATOM     25  C   UNL     1      -3.731  14.077  25.012  0.00  0.00    +0.000 A 
ATOM     26  C   UNL     1      -4.036  12.764  24.701  0.00  0.00    +0.000 A 
ATOM     27  C   UNL     1      -3.276  12.086  23.746  0.00  0.00    +0.000 A 
ATOM     28  C   UNL     1      -2.188  12.702  23.080  0.00  0.00    +0.000 A 
BRANCH  23  33
ATOM     29  C   UNL     1       1.563  16.280  20.687  0.00  0.00    +0.000 C 
ATOM     30  C   UNL     1       0.771  15.769  21.819  0.00  0.00    +0.000 A 
ATOM     31  N   UNL     1       1.100  16.012  23.092  0.00  0.00    +0.000 NA
ATOM     32  O   UNL     1       0.114  15.336  23.807  0.00  0.00    +0.000 OA
ATOM     33  C   UNL     1      -0.715  14.755  22.886  0.00  0.00    +0.000 A 
ATOM     34  N   UNL     1      -0.357  15.005  21.644  0.00  0.00    +0.000 NA
ENDBRANCH  23  33
ENDBRANCH  19  28
ENDBRANCH   1  21
TORSDOF 5
ENDMDL
MODEL 8
REMARK VINA RESULT:      -8.0      1.554      1.896
REMARK  Name = 
REMARK  7 active torsions:
REMARK  status: ('A' for Active; 'I' for Inactive)
REMARK    1  A    between atoms: C_1  and  C_2
REMARK    2  A    between atoms: C_5  and  C_6
REMARK    3  A    between atoms: C_11  and  C_12
REMARK    4  A    between atoms: N_14  and  C_15
REMARK    5  A    between atoms: C_19  and  C_20
REMARK    6  A    between atoms: C_19  and  N_21
REMARK    7  A    between atoms: C_25  and  C_26
REMARK                            x       y       z     vdW  Elec       q    Type
REMARK                         _______ _______ _______ _____ _____    ______ ____
ROOT
ATOM      1  C   UNL     1       1.821   8.982  19.902  0.00  0.00    +0.000 C 
ATOM      2  C   UNL     1       1.460   9.416  18.476  0.00  0.00    +0.000 C 
ATOM      3  C   UNL     1      -0.046   9.703  18.498  0.00  0.00    +0.000 C 
ATOM      4  C   UNL     1      -0.510   9.509  19.946  0.00  0.00    +0.000 C 
ATOM      5  C   UNL     1       0.753   9.732  20.791  0.00  0.00    +0.000 C 
ATOM      6  C   UNL     1       0.736   9.146  22.209  0.00  0.00    +0.000 C 
ENDROOT
BRANCH   5   7
ATOM      7  N   UNL     1       1.062  11.174  20.888  0.00  0.00    +0.000 N 
ATOM      8  C   UNL     1       0.392  12.144  21.593  0.00  0.00    +0.000 A 
ATOM      9  C   UNL     1      -0.702  11.927  22.433  0.00  0.00    +0.000 A 
ATOM     10  N   UNL     1      -1.350  12.894  23.131  0.00  0.00    +0.000 NA
ATOM     11  C   UNL     1      -0.872  14.153  22.978  0.00  0.00    +0.000 A 
ATOM     12  C   UNL     1       0.216  14.387  22.148  0.00  0.00    +0.000 A 
ATOM     13  N   UNL     1       0.857  13.400  21.451  0.00  0.00    +0.000 NA
ATOM     14  H   UNL     1       1.816  11.557  20.329  0.00  0.00    +0.000 HD
BRANCH  11  15
ATOM     15  C   UNL     1      -1.505  15.306  23.722  0.00  0.00    +0.000 C 
ATOM     16  F   UNL     1      -2.159  14.943  24.864  0.00  0.00    +0.000 F 
ATOM     17  F   UNL     1      -0.593  16.245  24.104  0.00  0.00    +0.000 F 
ATOM     18  F   UNL     1      -2.425  15.976  22.969  0.00  0.00    +0.000 F 
ENDBRANCH  11  15
ENDBRANCH   5   7
BRANCH   1  21
ATOM     19  C   UNL     1       2.596   6.595  19.355  0.00  0.00    +0.000 C 
ATOM     20  O   UNL     1       3.360   6.914  18.449  0.00  0.00    +0.000 OA
ATOM     21  N   UNL     1       1.886   7.512  20.099  0.00  0.00    +0.000 N 
ATOM     22  H   UNL     1       1.298   7.155  20.848  0.00  0.00    +0.000 HD
BRANCH  19  28
ATOM     23  C   UNL     1       3.144   4.062  19.050  0.00  0.00    +0.000 A 
ATOM     24  C   UNL     1       2.772   2.735  19.386  0.00  0.00    +0.000 A 
ATOM     25  C   UNL     1       1.684   2.457  20.213  0.00  0.00    +0.000 A 
ATOM     26  C   UNL     1       0.933   3.502  20.722  0.00  0.00    +0.000 A 
ATOM     27  C   UNL     1       1.290   4.818  20.421  0.00  0.00    +0.000 A 
ATOM     28  C   UNL     1       2.402   5.123  19.599  0.00  0.00    +0.000 A 
BRANCH  23  33
ATOM     29  C   UNL     1       7.476   4.658  16.789  0.00  0.00    +0.000 C 
ATOM     30  C   UNL     1       6.047   4.433  17.067  0.00  0.00    +0.000 A 
ATOM     31  N   UNL     1       5.150   4.232  16.096  0.00  0.00    +0.000 NA
ATOM     32  O   UNL     1       3.953   4.091  16.796  0.00  0.00    +0.000 OA
ATOM     33  C   UNL     1       4.255   4.218  18.125  0.00  0.00    +0.000 A 
ATOM     34  N   UNL     1       5.537   4.418  18.343  0.00  0.00    +0.000 NA
ENDBRANCH  23  33
ENDBRANCH  19  28
ENDBRANCH   1  21
TORSDOF 5
ENDMDL
MODEL 9
REMARK VINA RESULT:      -7.9      2.024      2.240
REMARK  Name = 
REMARK  7 active torsions:
REMARK  status: ('A' for Active; 'I' for Inactive)
REMARK    1  A    between atoms: C_1  and  C_2
REMARK    2  A    between atoms: C_5  and  C_6
REMARK    3  A    between atoms: C_11  and  C_12
REMARK    4  A    between atoms: N_14  and  C_15
REMARK    5  A    between atoms: C_19  and  C_20
REMARK    6  A    between atoms: C_19  and  N_21
REMARK    7  A    between atoms: C_25  and  C_26
REMARK                            x       y       z     vdW  Elec       q    Type
REMARK                         _______ _______ _______ _____ _____    ______ ____
ROOT
ATOM      1  C   UNL     1       1.827   9.146  19.288  0.00  0.00    +0.000 C 
ATOM      2  C   UNL     1       1.311   9.332  17.856  0.00  0.00    +0.000 C 
ATOM      3  C   UNL     1      -0.192   9.607  17.989  0.00  0.00    +0.000 C 
ATOM      4  C   UNL     1      -0.499   9.653  19.490  0.00  0.00    +0.000 C 
ATOM      5  C   UNL     1       0.838  10.024  20.148  0.00  0.00    +0.000 C 
ATOM      6  C   UNL     1       0.981   9.684  21.638  0.00  0.00    +0.000 C 
ENDROOT
BRANCH   5   7
ATOM      7  N   UNL     1       1.117  11.465  19.973  0.00  0.00    +0.000 N 
ATOM      8  C   UNL     1       0.264  12.528  20.149  0.00  0.00    +0.000 A 
ATOM      9  C   UNL     1      -1.051  12.443  20.610  0.00  0.00    +0.000 A 
ATOM     10  N   UNL     1      -1.881  13.503  20.788  0.00  0.00    +0.000 NA
ATOM     11  C   UNL     1      -1.360  14.718  20.488  0.00  0.00    +0.000 A 
ATOM     12  C   UNL     1      -0.053  14.819  20.029  0.00  0.00    +0.000 A 
ATOM     13  N   UNL     1       0.769  13.740  19.855  0.00  0.00    +0.000 NA
ATOM     14  H   UNL     1       2.021  11.754  19.614  0.00  0.00    +0.000 HD
BRANCH  11  15
ATOM     15  C   UNL     1      -2.189  15.969  20.665  0.00  0.00    +0.000 C 
ATOM     16  F   UNL     1      -1.973  16.922  19.713  0.00  0.00    +0.000 F 
ATOM     17  F   UNL     1      -3.529  15.717  20.635  0.00  0.00    +0.000 F 
ATOM     18  F   UNL     1      -1.961  16.585  21.861  0.00  0.00    +0.000 F 
ENDBRANCH  11  15
ENDBRANCH   5   7
BRANCH   1  21
ATOM     19  C   UNL     1       2.754   6.753  19.171  0.00  0.00    +0.000 C 
ATOM     20  O   UNL     1       3.562   6.973  18.274  0.00  0.00    +0.000 OA
ATOM     21  N   UNL     1       1.950   7.730  19.717  0.00  0.00    +0.000 N 
ATOM     22  H   UNL     1       1.329   7.458  20.475  0.00  0.00    +0.000 HD
BRANCH  19  28
ATOM     23  C   UNL     1       3.506   4.264  19.397  0.00  0.00    +0.000 A 
ATOM     24  C   UNL     1       3.167   2.979  19.893  0.00  0.00    +0.000 A 
ATOM     25  C   UNL     1       1.973   2.738  20.573  0.00  0.00    +0.000 A 
ATOM     26  C   UNL     1       1.081   3.778  20.769  0.00  0.00    +0.000 A 
ATOM     27  C   UNL     1       1.400   5.056  20.305  0.00  0.00    +0.000 A 
ATOM     28  C   UNL     1       2.615   5.327  19.631  0.00  0.00    +0.000 A 
BRANCH  23  33
ATOM     29  C   UNL     1       7.085   4.544  16.029  0.00  0.00    +0.000 C 
ATOM     30  C   UNL     1       6.338   4.534  17.299  0.00  0.00    +0.000 A 
ATOM     31  N   UNL     1       6.932   4.715  18.483  0.00  0.00    +0.000 NA
ATOM     32  O   UNL     1       5.877   4.607  19.386  0.00  0.00    +0.000 OA
ATOM     33  C   UNL     1       4.748   4.372  18.648  0.00  0.00    +0.000 A 
ATOM     34  N   UNL     1       4.980   4.331  17.353  0.00  0.00    +0.000 NA
ENDBRANCH  23  33
ENDBRANCH  19  28
ENDBRANCH   1  21
TORSDOF 5
ENDMDL
