MODEL 1
REMARK VINA RESULT:      -7.2      0.000      0.000
REMARK  Name = 
REMARK  18 active torsions:
REMARK  status: ('A' for Active; 'I' for Inactive)
REMARK    1  A    between atoms: C_1  and  C_2
REMARK    2  A    between atoms: C_2  and  C_3
REMARK    3  A    between atoms: C_3  and  C_4
REMARK    4  A    between atoms: C_4  and  C_5
REMARK    5  A    between atoms: C_5  and  C_6
REMARK    6  A    between atoms: C_6  and  C_7
REMARK    7  A    between atoms: C_7  and  C_8
REMARK    8  A    between atoms: C_8  and  C_9
REMARK    9  A    between atoms: C_12  and  C_13
REMARK   10  A    between atoms: C_16  and  C_17
REMARK   11  A    between atoms: C_17  and  N_18
REMARK   12  A    between atoms: C_17  and  C_19
REMARK   13  A    between atoms: C_17  and  C_21
REMARK   14  A    between atoms: C_19  and  O_20
REMARK   15  A    between atoms: C_21  and  O_22
REMARK   16  A    between atoms: O_22  and  P_23
REMARK   17  A    between atoms: P_23  and  O_25
REMARK   18  A    between atoms: P_23  and  O_26
REMARK                            x       y       z     vdW  Elec       q    Type
REMARK                         _______ _______ _______ _____ _____    ______ ____
ROOT
ATOM      1  C   UNL     1       2.479   6.348  19.519  0.00  0.00    +0.000 A 
ATOM      2  C   UNL     1       2.158   5.429  20.502  0.00  0.00    +0.000 A 
ATOM      3  N   UNL     1       2.858   4.312  20.270  0.00  0.00    +0.000 N 
ATOM      4  C   UNL     1       3.588   4.558  19.165  0.00  0.00    +0.000 A 
ATOM      5  N   UNL     1       3.372   5.798  18.675  0.00  0.00    +0.000 NA
ATOM      6  H   UNL     1       2.838   3.441  20.843  0.00  0.00    +0.000 HD
ENDROOT
BRANCH   1  10
ATOM      7  C   UNL     1       1.008  10.360  19.186  0.00  0.00    +0.000 A 
ATOM      8  C   UNL     1       0.806   9.622  20.361  0.00  0.00    +0.000 A 
ATOM      9  C   UNL     1       1.280   8.323  20.466  0.00  0.00    +0.000 A 
ATOM     10  C   UNL     1       1.967   7.724  19.394  0.00  0.00    +0.000 A 
ATOM     11  C   UNL     1       2.162   8.461  18.214  0.00  0.00    +0.000 A 
ATOM     12  C   UNL     1       1.684   9.771  18.109  0.00  0.00    +0.000 A 
BRANCH   7  13
ATOM     13  C   UNL     1       0.487  11.762  19.099  0.00  0.00    +0.000 C 
BRANCH  13  14
ATOM     14  C   UNL     1      -1.035  11.768  18.866  0.00  0.00    +0.000 C 
BRANCH  14  15
ATOM     15  C   UNL     1      -1.470  10.774  17.785  0.00  0.00    +0.000 C 
BRANCH  15  16
ATOM     16  C   UNL     1      -2.888  10.229  18.023  0.00  0.00    +0.000 C 
BRANCH  16  17
ATOM     17  C   UNL     1      -3.745  10.393  16.771  0.00  0.00    +0.000 C 
BRANCH  17  18
ATOM     18  C   UNL     1      -2.933  10.986  15.614  0.00  0.00    +0.000 C 
BRANCH  18  20
ATOM     19  C   UNL     1      -4.097   9.953  13.613  0.00  0.00    +0.000 C 
ATOM     20  C   UNL     1      -2.838   9.968  14.473  0.00  0.00    +0.000 C 
ENDBRANCH  18  20
ENDBRANCH  17  18
ENDBRANCH  16  17
ENDBRANCH  15  16
ENDBRANCH  14  15
ENDBRANCH  13  14
ENDBRANCH   7  13
ENDBRANCH   1  10
BRANCH   4  21
ATOM     21  C   UNL     1       4.554   3.555  18.560  0.00  0.00    +0.000 C 
BRANCH  21  22
ATOM     22  N   UNL     1       5.214   2.808  19.641  0.00  0.00    +0.000 NA
ATOM     23  H   UNL     1       6.169   3.195  19.824  0.00  0.00    +0.000 HD
ATOM     24  H   UNL     1       5.331   1.803  19.372  0.00  0.00    +0.000 HD
ENDBRANCH  21  22
BRANCH  21  25
ATOM     25  C   UNL     1       5.636   4.272  17.717  0.00  0.00    +0.000 C 
BRANCH  25  26
ATOM     26  O   UNL     1       5.442   3.959  16.360  0.00  0.00    +0.000 OA
BRANCH  26  27
ATOM     27  P   UNL     1       6.672   4.765  15.447  0.00  0.00    +0.000 P 
ATOM     28  O   UNL     1       6.227   6.120  16.061  0.00  0.00    +0.000 OA
BRANCH  27  29
ATOM     29  O   UNL     1       7.901   5.570  14.535  0.00  0.00    +0.000 OA
ATOM     30  H   UNL     1       8.321   4.857  13.991  0.00  0.00    +0.000 HD
ENDBRANCH  27  29
BRANCH  27  31
ATOM     31  O   UNL     1       7.815   4.437  16.715  0.00  0.00    +0.000 OA
ATOM     32  H   UNL     1       7.268   4.225  17.514  0.00  0.00    +0.000 HD
ENDBRANCH  27  31
ENDBRANCH  26  27
ENDBRANCH  25  26
ENDBRANCH  21  25
BRANCH  21  33
ATOM     33  C   UNL     1       3.777   2.561  17.667  0.00  0.00    +0.000 C 
BRANCH  33  34
ATOM     34  O   UNL     1       2.555   3.099  17.234  0.00  0.00    +0.000 OA
ATOM     35  H   UNL     1       2.224   3.687  17.963  0.00  0.00    +0.000 HD
ENDBRANCH  33  34
ENDBRANCH  21  33
ENDBRANCH   4  21
TORSDOF 17
ENDMDL
MODEL 2
REMARK VINA RESULT:      -7.0      1.033      1.539
REMARK  Name = 
REMARK  18 active torsions:
REMARK  status: ('A' for Active; 'I' for Inactive)
REMARK    1  A    between atoms: C_1  and  C_2
REMARK    2  A    between atoms: C_2  and  C_3
REMARK    3  A    between atoms: C_3  and  C_4
REMARK    4  A    between atoms: C_4  and  C_5
REMARK    5  A    between atoms: C_5  and  C_6
REMARK    6  A    between atoms: C_6  and  C_7
REMARK    7  A    between atoms: C_7  and  C_8
REMARK    8  A    between atoms: C_8  and  C_9
REMARK    9  A    between atoms: C_12  and  C_13
REMARK   10  A    between atoms: C_16  and  C_17
REMARK   11  A    between atoms: C_17  and  N_18
REMARK   12  A    between atoms: C_17  and  C_19
REMARK   13  A    between atoms: C_17  and  C_21
REMARK   14  A    between atoms: C_19  and  O_20
REMARK   15  A    between atoms: C_21  and  O_22
REMARK   16  A    between atoms: O_22  and  P_23
REMARK   17  A    between atoms: P_23  and  O_25
REMARK   18  A    between atoms: P_23  and  O_26
REMARK                            x       y       z     vdW  Elec       q    Type
REMARK                         _______ _______ _______ _____ _____    ______ ____
ROOT
ATOM      1  C   UNL     1       2.312   6.179  20.043  0.00  0.00    +0.000 A 
ATOM      2  C   UNL     1       1.874   5.078  20.756  0.00  0.00    +0.000 A 
ATOM      3  N   UNL     1       2.636   4.033  20.415  0.00  0.00    +0.000 N 
ATOM      4  C   UNL     1       3.518   4.500  19.511  0.00  0.00    +0.000 A 
ATOM      5  N   UNL     1       3.341   5.814  19.255  0.00  0.00    +0.000 NA
ATOM      6  H   UNL     1       2.556   3.062  20.788  0.00  0.00    +0.000 HD
ENDROOT
BRANCH   1  10
ATOM      7  C   UNL     1       0.792  10.179  20.300  0.00  0.00    +0.000 A 
ATOM      8  C   UNL     1       0.785   9.340  21.424  0.00  0.00    +0.000 A 
ATOM      9  C   UNL     1       1.274   8.045  21.338  0.00  0.00    +0.000 A 
ATOM     10  C   UNL     1       1.782   7.552  20.122  0.00  0.00    +0.000 A 
ATOM     11  C   UNL     1       1.781   8.390  18.993  0.00  0.00    +0.000 A 
ATOM     12  C   UNL     1       1.287   9.695  19.081  0.00  0.00    +0.000 A 
BRANCH   7  13
ATOM     13  C   UNL     1       0.259  11.573  20.419  0.00  0.00    +0.000 C 
BRANCH  13  14
ATOM     14  C   UNL     1       0.465  12.355  19.109  0.00  0.00    +0.000 C 
BRANCH  14  15
ATOM     15  C   UNL     1      -0.853  12.838  18.496  0.00  0.00    +0.000 C 
BRANCH  15  16
ATOM     16  C   UNL     1      -1.514  11.771  17.607  0.00  0.00    +0.000 C 
BRANCH  16  17
ATOM     17  C   UNL     1      -2.772  11.221  18.273  0.00  0.00    +0.000 C 
BRANCH  17  18
ATOM     18  C   UNL     1      -3.569  10.332  17.311  0.00  0.00    +0.000 C 
BRANCH  18  20
ATOM     19  C   UNL     1      -3.218  10.155  14.807  0.00  0.00    +0.000 C 
ATOM     20  C   UNL     1      -2.654   9.835  16.187  0.00  0.00    +0.000 C 
ENDBRANCH  18  20
ENDBRANCH  17  18
ENDBRANCH  16  17
ENDBRANCH  15  16
ENDBRANCH  14  15
ENDBRANCH  13  14
ENDBRANCH   7  13
ENDBRANCH   1  10
BRANCH   4  21
ATOM     21  C   UNL     1       4.597   3.643  18.873  0.00  0.00    +0.000 C 
BRANCH  21  22
ATOM     22  N   UNL     1       4.939   2.540  19.784  0.00  0.00    +0.000 NA
ATOM     23  H   UNL     1       5.429   2.903  20.634  0.00  0.00    +0.000 HD
ATOM     24  H   UNL     1       5.588   1.865  19.315  0.00  0.00    +0.000 HD
ENDBRANCH  21  22
BRANCH  21  25
ATOM     25  C   UNL     1       5.873   4.475  18.600  0.00  0.00    +0.000 C 
BRANCH  25  26
ATOM     26  O   UNL     1       5.913   4.819  17.238  0.00  0.00    +0.000 OA
BRANCH  26  27
ATOM     27  P   UNL     1       6.682   6.363  17.101  0.00  0.00    +0.000 P 
ATOM     28  O   UNL     1       7.558   5.815  15.941  0.00  0.00    +0.000 OA
BRANCH  27  29
ATOM     29  O   UNL     1       7.451   7.906  16.964  0.00  0.00    +0.000 OA
ATOM     30  H   UNL     1       6.843   8.443  16.394  0.00  0.00    +0.000 HD
ENDBRANCH  27  29
BRANCH  27  31
ATOM     31  O   UNL     1       5.410   6.893  16.041  0.00  0.00    +0.000 OA
ATOM     32  H   UNL     1       4.577   6.512  16.420  0.00  0.00    +0.000 HD
ENDBRANCH  27  31
ENDBRANCH  26  27
ENDBRANCH  25  26
ENDBRANCH  21  25
BRANCH  21  33
ATOM     33  C   UNL     1       4.071   3.050  17.546  0.00  0.00    +0.000 C 
BRANCH  33  34
ATOM     34  O   UNL     1       2.907   3.704  17.112  0.00  0.00    +0.000 OA
ATOM     35  H   UNL     1       2.770   3.448  16.162  0.00  0.00    +0.000 HD
ENDBRANCH  33  34
ENDBRANCH  21  33
ENDBRANCH   4  21
TORSDOF 17
ENDMDL
MODEL 3
REMARK VINA RESULT:      -6.9      6.407      9.751
REMARK  Name = 
REMARK  18 active torsions:
REMARK  status: ('A' for Active; 'I' for Inactive)
REMARK    1  A    between atoms: C_1  and  C_2
REMARK    2  A    between atoms: C_2  and  C_3
REMARK    3  A    between atoms: C_3  and  C_4
REMARK    4  A    between atoms: C_4  and  C_5
REMARK    5  A    between atoms: C_5  and  C_6
REMARK    6  A    between atoms: C_6  and  C_7
REMARK    7  A    between atoms: C_7  and  C_8
REMARK    8  A    between atoms: C_8  and  C_9
REMARK    9  A    between atoms: C_12  and  C_13
REMARK   10  A    between atoms: C_16  and  C_17
REMARK   11  A    between atoms: C_17  and  N_18
REMARK   12  A    between atoms: C_17  and  C_19
REMARK   13  A    between atoms: C_17  and  C_21
REMARK   14  A    between atoms: C_19  and  O_20
REMARK   15  A    between atoms: C_21  and  O_22
REMARK   16  A    between atoms: O_22  and  P_23
REMARK   17  A    between atoms: P_23  and  O_25
REMARK   18  A    between atoms: P_23  and  O_26
REMARK                            x       y       z     vdW  Elec       q    Type
REMARK                         _______ _______ _______ _____ _____    ______ ____
ROOT
ATOM      1  C   UNL     1       0.980   9.511  19.303  0.00  0.00    +0.000 A 
ATOM      2  C   UNL     1       0.860  10.198  20.497  0.00  0.00    +0.000 A 
ATOM      3  N   UNL     1      -0.076  11.142  20.341  0.00  0.00    +0.000 N 
ATOM      4  C   UNL     1      -0.512  11.021  19.072  0.00  0.00    +0.000 A 
ATOM      5  N   UNL     1       0.122  10.032  18.406  0.00  0.00    +0.000 NA
ATOM      6  H   UNL     1      -0.398  11.819  21.066  0.00  0.00    +0.000 HD
ENDROOT
BRANCH   1  10
ATOM      7  C   UNL     1       3.599   6.218  18.488  0.00  0.00    +0.000 A 
ATOM      8  C   UNL     1       3.433   7.245  17.548  0.00  0.00    +0.000 A 
ATOM      9  C   UNL     1       2.582   8.309  17.812  0.00  0.00    +0.000 A 
ATOM     10  C   UNL     1       1.871   8.371  19.025  0.00  0.00    +0.000 A 
ATOM     11  C   UNL     1       2.031   7.336  19.962  0.00  0.00    +0.000 A 
ATOM     12  C   UNL     1       2.889   6.264  19.695  0.00  0.00    +0.000 A 
BRANCH   7  13
ATOM     13  C   UNL     1       4.524   5.080  18.178  0.00  0.00    +0.000 C 
BRANCH  13  14
ATOM     14  C   UNL     1       4.054   4.315  16.928  0.00  0.00    +0.000 C 
BRANCH  14  15
ATOM     15  C   UNL     1       2.821   3.447  17.196  0.00  0.00    +0.000 C 
BRANCH  15  16
ATOM     16  C   UNL     1       3.166   2.151  17.948  0.00  0.00    +0.000 C 
BRANCH  16  17
ATOM     17  C   UNL     1       2.194   1.924  19.102  0.00  0.00    +0.000 C 
BRANCH  17  18
ATOM     18  C   UNL     1       1.064   2.961  19.092  0.00  0.00    +0.000 C 
BRANCH  18  20
ATOM     19  C   UNL     1       1.850   2.931  21.502  0.00  0.00    +0.000 C 
ATOM     20  C   UNL     1       0.920   3.584  20.485  0.00  0.00    +0.000 C 
ENDBRANCH  18  20
ENDBRANCH  17  18
ENDBRANCH  16  17
ENDBRANCH  15  16
ENDBRANCH  14  15
ENDBRANCH  13  14
ENDBRANCH   7  13
ENDBRANCH   1  10
BRANCH   4  21
ATOM     21  C   UNL     1      -1.605  11.889  18.476  0.00  0.00    +0.000 C 
BRANCH  21  22
ATOM     22  N   UNL     1      -0.990  13.017  17.760  0.00  0.00    +0.000 NA
ATOM     23  H   UNL     1      -0.952  12.823  16.732  0.00  0.00    +0.000 HD
ATOM     24  H   UNL     1      -0.006  13.164  18.086  0.00  0.00    +0.000 HD
ENDBRANCH  21  22
BRANCH  21  25
ATOM     25  C   UNL     1      -2.530  12.448  19.584  0.00  0.00    +0.000 C 
BRANCH  25  26
ATOM     26  O   UNL     1      -3.860  12.102  19.289  0.00  0.00    +0.000 OA
BRANCH  26  27
ATOM     27  P   UNL     1      -4.883  12.900  20.434  0.00  0.00    +0.000 P 
ATOM     28  O   UNL     1      -3.713  13.852  20.804  0.00  0.00    +0.000 OA
BRANCH  27  29
ATOM     29  O   UNL     1      -5.907  13.698  21.577  0.00  0.00    +0.000 OA
ATOM     30  H   UNL     1      -6.461  14.315  21.035  0.00  0.00    +0.000 HD
ENDBRANCH  27  29
BRANCH  27  31
ATOM     31  O   UNL     1      -5.475  13.936  19.169  0.00  0.00    +0.000 OA
ATOM     32  H   UNL     1      -5.915  14.693  19.634  0.00  0.00    +0.000 HD
ENDBRANCH  27  31
ENDBRANCH  26  27
ENDBRANCH  25  26
ENDBRANCH  21  25
BRANCH  21  33
ATOM     33  C   UNL     1      -2.440  11.058  17.476  0.00  0.00    +0.000 C 
BRANCH  33  34
ATOM     34  O   UNL     1      -2.112  11.366  16.146  0.00  0.00    +0.000 OA
ATOM     35  H   UNL     1      -1.862  10.511  15.705  0.00  0.00    +0.000 HD
ENDBRANCH  33  34
ENDBRANCH  21  33
ENDBRANCH   4  21
TORSDOF 17
ENDMDL
MODEL 4
REMARK VINA RESULT:      -6.9      2.067      3.319
REMARK  Name = 
REMARK  18 active torsions:
REMARK  status: ('A' for Active; 'I' for Inactive)
REMARK    1  A    between atoms: C_1  and  C_2
REMARK    2  A    between atoms: C_2  and  C_3
REMARK    3  A    between atoms: C_3  and  C_4
REMARK    4  A    between atoms: C_4  and  C_5
REMARK    5  A    between atoms: C_5  and  C_6
REMARK    6  A    between atoms: C_6  and  C_7
REMARK    7  A    between atoms: C_7  and  C_8
REMARK    8  A    between atoms: C_8  and  C_9
REMARK    9  A    between atoms: C_12  and  C_13
REMARK   10  A    between atoms: C_16  and  C_17
REMARK   11  A    between atoms: C_17  and  N_18
REMARK   12  A    between atoms: C_17  and  C_19
REMARK   13  A    between atoms: C_17  and  C_21
REMARK   14  A    between atoms: C_19  and  O_20
REMARK   15  A    between atoms: C_21  and  O_22
REMARK   16  A    between atoms: O_22  and  P_23
REMARK   17  A    between atoms: P_23  and  O_25
REMARK   18  A    between atoms: P_23  and  O_26
REMARK                            x       y       z     vdW  Elec       q    Type
REMARK                         _______ _______ _______ _____ _____    ______ ____
ROOT
ATOM      1  C   UNL     1       2.401   6.604  19.269  0.00  0.00    +0.000 A 
ATOM      2  C   UNL     1       2.093   5.707  20.276  0.00  0.00    +0.000 A 
ATOM      3  N   UNL     1       2.678   4.539  19.984  0.00  0.00    +0.000 N 
ATOM      4  C   UNL     1       3.327   4.734  18.820  0.00  0.00    +0.000 A 
ATOM      5  N   UNL     1       3.171   5.991  18.351  0.00  0.00    +0.000 NA
ATOM      6  H   UNL     1       2.638   3.668  20.556  0.00  0.00    +0.000 HD
ENDROOT
BRANCH   1  10
ATOM      7  C   UNL     1       1.194  10.709  19.007  0.00  0.00    +0.000 A 
ATOM      8  C   UNL     1       1.843  10.087  17.931  0.00  0.00    +0.000 A 
ATOM      9  C   UNL     1       2.236   8.759  18.018  0.00  0.00    +0.000 A 
ATOM     10  C   UNL     1       1.992   8.018  19.189  0.00  0.00    +0.000 A 
ATOM     11  C   UNL     1       1.349   8.644  20.271  0.00  0.00    +0.000 A 
ATOM     12  C   UNL     1       0.954   9.982  20.181  0.00  0.00    +0.000 A 
BRANCH   7  13
ATOM     13  C   UNL     1       0.780  12.143  18.886  0.00  0.00    +0.000 C 
BRANCH  13  14
ATOM     14  C   UNL     1      -0.694  12.256  18.455  0.00  0.00    +0.000 C 
BRANCH  14  15
ATOM     15  C   UNL     1      -1.545  13.036  19.462  0.00  0.00    +0.000 C 
BRANCH  15  16
ATOM     16  C   UNL     1      -2.359  12.113  20.384  0.00  0.00    +0.000 C 
BRANCH  16  17
ATOM     17  C   UNL     1      -2.859  12.878  21.606  0.00  0.00    +0.000 C 
BRANCH  17  18
ATOM     18  C   UNL     1      -2.473  12.165  22.907  0.00  0.00    +0.000 C 
BRANCH  18  20
ATOM     19  C   UNL     1      -0.873  10.221  23.198  0.00  0.00    +0.000 C 
ATOM     20  C   UNL     1      -1.018  11.692  22.826  0.00  0.00    +0.000 C 
ENDBRANCH  18  20
ENDBRANCH  17  18
ENDBRANCH  16  17
ENDBRANCH  15  16
ENDBRANCH  14  15
ENDBRANCH  13  14
ENDBRANCH   7  13
ENDBRANCH   1  10
BRANCH   4  21
ATOM     21  C   UNL     1       4.154   3.661  18.133  0.00  0.00    +0.000 C 
BRANCH  21  22
ATOM     22  N   UNL     1       5.419   3.486  18.863  0.00  0.00    +0.000 NA
ATOM     23  H   UNL     1       5.560   4.265  19.547  0.00  0.00    +0.000 HD
ATOM     24  H   UNL     1       6.229   3.504  18.199  0.00  0.00    +0.000 HD
ENDBRANCH  21  22
BRANCH  21  25
ATOM     25  C   UNL     1       4.473   4.062  16.673  0.00  0.00    +0.000 C 
BRANCH  25  26
ATOM     26  O   UNL     1       5.605   3.350  16.239  0.00  0.00    +0.000 OA
BRANCH  26  27
ATOM     27  P   UNL     1       6.710   4.484  15.540  0.00  0.00    +0.000 P 
ATOM     28  O   UNL     1       6.020   5.630  16.329  0.00  0.00    +0.000 OA
BRANCH  27  29
ATOM     29  O   UNL     1       7.815   5.617  14.842  0.00  0.00    +0.000 OA
ATOM     30  H   UNL     1       7.253   6.200  14.271  0.00  0.00    +0.000 HD
ENDBRANCH  27  29
BRANCH  27  31
ATOM     31  O   UNL     1       7.849   4.143  16.809  0.00  0.00    +0.000 OA
ATOM     32  H   UNL     1       7.480   3.357  17.288  0.00  0.00    +0.000 HD
ENDBRANCH  27  31
ENDBRANCH  26  27
ENDBRANCH  25  26
ENDBRANCH  21  25
BRANCH  21  33
ATOM     33  C   UNL     1       3.381   2.323  18.146  0.00  0.00    +0.000 C 
BRANCH  33  34
ATOM     34  O   UNL     1       4.250   1.222  18.097  0.00  0.00    +0.000 OA
ATOM     35  H   UNL     1       5.165   1.584  17.962  0.00  0.00    +0.000 HD
ENDBRANCH  33  34
ENDBRANCH  21  33
ENDBRANCH   4  21
TORSDOF 17
ENDMDL
MODEL 5
REMARK VINA RESULT:      -6.9      2.140      3.506
REMARK  Name = 
REMARK  18 active torsions:
REMARK  status: ('A' for Active; 'I' for Inactive)
REMARK    1  A    between atoms: C_1  and  C_2
REMARK    2  A    between atoms: C_2  and  C_3
REMARK    3  A    between atoms: C_3  and  C_4
REMARK    4  A    between atoms: C_4  and  C_5
REMARK    5  A    between atoms: C_5  and  C_6
REMARK    6  A    between atoms: C_6  and  C_7
REMARK    7  A    between atoms: C_7  and  C_8
REMARK    8  A    between atoms: C_8  and  C_9
REMARK    9  A    between atoms: C_12  and  C_13
REMARK   10  A    between atoms: C_16  and  C_17
REMARK   11  A    between atoms: C_17  and  N_18
REMARK   12  A    between atoms: C_17  and  C_19
REMARK   13  A    between atoms: C_17  and  C_21
REMARK   14  A    between atoms: C_19  and  O_20
REMARK   15  A    between atoms: C_21  and  O_22
REMARK   16  A    between atoms: O_22  and  P_23
REMARK   17  A    between atoms: P_23  and  O_25
REMARK   18  A    between atoms: P_23  and  O_26
REMARK                            x       y       z     vdW  Elec       q    Type
REMARK                         _______ _______ _______ _____ _____    ______ ____
ROOT
ATOM      1  C   UNL     1       2.411   6.362  19.579  0.00  0.00    +0.000 A 
ATOM      2  C   UNL     1       2.093   5.405  20.525  0.00  0.00    +0.000 A 
ATOM      3  N   UNL     1       2.772   4.290  20.232  0.00  0.00    +0.000 N 
ATOM      4  C   UNL     1       3.487   4.575  19.127  0.00  0.00    +0.000 A 
ATOM      5  N   UNL     1       3.282   5.838  18.696  0.00  0.00    +0.000 NA
ATOM      6  H   UNL     1       2.749   3.394  20.766  0.00  0.00    +0.000 HD
ENDROOT
BRANCH   1  10
ATOM      7  C   UNL     1       0.997  10.406  19.447  0.00  0.00    +0.000 A 
ATOM      8  C   UNL     1       0.918   9.662  20.633  0.00  0.00    +0.000 A 
ATOM      9  C   UNL     1       1.373   8.353  20.673  0.00  0.00    +0.000 A 
ATOM     10  C   UNL     1       1.918   7.750  19.524  0.00  0.00    +0.000 A 
ATOM     11  C   UNL     1       1.988   8.493  18.333  0.00  0.00    +0.000 A 
ATOM     12  C   UNL     1       1.529   9.813  18.294  0.00  0.00    +0.000 A 
BRANCH   7  13
ATOM     13  C   UNL     1       0.499  11.819  19.431  0.00  0.00    +0.000 C 
BRANCH  13  14
ATOM     14  C   UNL     1      -1.040  11.859  19.453  0.00  0.00    +0.000 C 
BRANCH  14  15
ATOM     15  C   UNL     1      -1.590  12.761  20.563  0.00  0.00    +0.000 C 
BRANCH  15  16
ATOM     16  C   UNL     1      -0.583  12.969  21.707  0.00  0.00    +0.000 C 
BRANCH  16  17
ATOM     17  C   UNL     1      -1.295  12.982  23.056  0.00  0.00    +0.000 C 
BRANCH  17  18
ATOM     18  C   UNL     1      -2.359  11.880  23.135  0.00  0.00    +0.000 C 
BRANCH  18  20
ATOM     19  C   UNL     1      -4.508  13.217  23.003  0.00  0.00    +0.000 C 
ATOM     20  C   UNL     1      -3.584  12.396  23.896  0.00  0.00    +0.000 C 
ENDBRANCH  18  20
ENDBRANCH  17  18
ENDBRANCH  16  17
ENDBRANCH  15  16
ENDBRANCH  14  15
ENDBRANCH  13  14
ENDBRANCH   7  13
ENDBRANCH   1  10
BRANCH   4  21
ATOM     21  C   UNL     1       4.428   3.586  18.461  0.00  0.00    +0.000 C 
BRANCH  21  22
ATOM     22  N   UNL     1       5.099   2.786  19.497  0.00  0.00    +0.000 NA
ATOM     23  H   UNL     1       6.125   2.719  19.303  0.00  0.00    +0.000 HD
ATOM     24  H   UNL     1       4.720   1.810  19.507  0.00  0.00    +0.000 HD
ENDBRANCH  21  22
BRANCH  21  25
ATOM     25  C   UNL     1       5.504   4.325  17.629  0.00  0.00    +0.000 C 
BRANCH  25  26
ATOM     26  O   UNL     1       5.075   4.403  16.292  0.00  0.00    +0.000 OA
BRANCH  26  27
ATOM     27  P   UNL     1       6.413   4.941  15.336  0.00  0.00    +0.000 P 
ATOM     28  O   UNL     1       7.392   4.394  16.410  0.00  0.00    +0.000 OA
BRANCH  27  29
ATOM     29  O   UNL     1       7.750   5.480  14.379  0.00  0.00    +0.000 OA
ATOM     30  H   UNL     1       7.671   6.467  14.366  0.00  0.00    +0.000 HD
ENDBRANCH  27  29
BRANCH  27  31
ATOM     31  O   UNL     1       6.370   3.447  14.450  0.00  0.00    +0.000 OA
ATOM     32  H   UNL     1       7.092   3.521  13.774  0.00  0.00    +0.000 HD
ENDBRANCH  27  31
ENDBRANCH  26  27
ENDBRANCH  25  26
ENDBRANCH  21  25
BRANCH  21  33
ATOM     33  C   UNL     1       3.622   2.640  17.543  0.00  0.00    +0.000 C 
BRANCH  33  34
ATOM     34  O   UNL     1       2.387   3.201  17.179  0.00  0.00    +0.000 OA
ATOM     35  H   UNL     1       2.266   3.025  16.209  0.00  0.00    +0.000 HD
ENDBRANCH  33  34
ENDBRANCH  21  33
ENDBRANCH   4  21
TORSDOF 17
ENDMDL
MODEL 6
REMARK VINA RESULT:      -6.9      5.803      8.634
REMARK  Name = 
REMARK  18 active torsions:
REMARK  status: ('A' for Active; 'I' for Inactive)
REMARK    1  A    between atoms: C_1  and  C_2
REMARK    2  A    between atoms: C_2  and  C_3
REMARK    3  A    between atoms: C_3  and  C_4
REMARK    4  A    between atoms: C_4  and  C_5
REMARK    5  A    between atoms: C_5  and  C_6
REMARK    6  A    between atoms: C_6  and  C_7
REMARK    7  A    between atoms: C_7  and  C_8
REMARK    8  A    between atoms: C_8  and  C_9
REMARK    9  A    between atoms: C_12  and  C_13
REMARK   10  A    between atoms: C_16  and  C_17
REMARK   11  A    between atoms: C_17  and  N_18
REMARK   12  A    between atoms: C_17  and  C_19
REMARK   13  A    between atoms: C_17  and  C_21
REMARK   14  A    between atoms: C_19  and  O_20
REMARK   15  A    between atoms: C_21  and  O_22
REMARK   16  A    between atoms: O_22  and  P_23
REMARK   17  A    between atoms: P_23  and  O_25
REMARK   18  A    between atoms: P_23  and  O_26
REMARK                            x       y       z     vdW  Elec       q    Type
REMARK                         _______ _______ _______ _____ _____    ______ ____
ROOT
ATOM      1  C   UNL     1       2.624   7.038  19.035  0.00  0.00    +0.000 A 
ATOM      2  C   UNL     1       2.106   6.633  20.252  0.00  0.00    +0.000 A 
ATOM      3  N   UNL     1       1.418   7.657  20.771  0.00  0.00    +0.000 N 
ATOM      4  C   UNL     1       1.522   8.660  19.879  0.00  0.00    +0.000 A 
ATOM      5  N   UNL     1       2.262   8.314  18.804  0.00  0.00    +0.000 NA
ATOM      6  H   UNL     1       0.905   7.659  21.679  0.00  0.00    +0.000 HD
ENDROOT
BRANCH   1  10
ATOM      7  C   UNL     1       4.985   4.693  16.333  0.00  0.00    +0.000 A 
ATOM      8  C   UNL     1       5.130   6.087  16.380  0.00  0.00    +0.000 A 
ATOM      9  C   UNL     1       4.362   6.845  17.253  0.00  0.00    +0.000 A 
ATOM     10  C   UNL     1       3.425   6.227  18.101  0.00  0.00    +0.000 A 
ATOM     11  C   UNL     1       3.275   4.831  18.048  0.00  0.00    +0.000 A 
ATOM     12  C   UNL     1       4.048   4.068  17.167  0.00  0.00    +0.000 A 
BRANCH   7  13
ATOM     13  C   UNL     1       5.826   3.898  15.382  0.00  0.00    +0.000 C 
BRANCH  13  14
ATOM     14  C   UNL     1       5.756   4.488  13.962  0.00  0.00    +0.000 C 
BRANCH  14  15
ATOM     15  C   UNL     1       5.764   3.409  12.874  0.00  0.00    +0.000 C 
BRANCH  15  16
ATOM     16  C   UNL     1       4.389   3.235  12.207  0.00  0.00    +0.000 C 
BRANCH  16  17
ATOM     17  C   UNL     1       4.372   3.893  10.830  0.00  0.00    +0.000 C 
BRANCH  17  18
ATOM     18  C   UNL     1       3.068   3.588  10.083  0.00  0.00    +0.000 C 
BRANCH  18  20
ATOM     19  C   UNL     1       1.838   5.349   8.738  0.00  0.00    +0.000 C 
ATOM     20  C   UNL     1       3.020   4.387   8.777  0.00  0.00    +0.000 C 
ENDBRANCH  18  20
ENDBRANCH  17  18
ENDBRANCH  16  17
ENDBRANCH  15  16
ENDBRANCH  14  15
ENDBRANCH  13  14
ENDBRANCH   7  13
ENDBRANCH   1  10
BRANCH   4  21
ATOM     21  C   UNL     1       0.861  10.015  20.062  0.00  0.00    +0.000 C 
BRANCH  21  22
ATOM     22  N   UNL     1       0.945  10.406  21.477  0.00  0.00    +0.000 NA
ATOM     23  H   UNL     1       0.826   9.572  22.097  0.00  0.00    +0.000 HD
ATOM     24  H   UNL     1       0.183  11.083  21.715  0.00  0.00    +0.000 HD
ENDBRANCH  21  22
BRANCH  21  25
ATOM     25  C   UNL     1      -0.629   9.961  19.648  0.00  0.00    +0.000 C 
BRANCH  25  26
ATOM     26  O   UNL     1      -1.204  11.229  19.842  0.00  0.00    +0.000 OA
BRANCH  26  27
ATOM     27  P   UNL     1      -2.279  11.533  18.519  0.00  0.00    +0.000 P 
ATOM     28  O   UNL     1      -1.237  12.510  17.909  0.00  0.00    +0.000 OA
BRANCH  27  29
ATOM     29  O   UNL     1      -3.352  11.837  17.198  0.00  0.00    +0.000 OA
ATOM     30  H   UNL     1      -3.314  12.817  17.060  0.00  0.00    +0.000 HD
ENDBRANCH  27  29
BRANCH  27  31
ATOM     31  O   UNL     1      -1.635  10.148  17.689  0.00  0.00    +0.000 OA
ATOM     32  H   UNL     1      -0.788  10.459  17.278  0.00  0.00    +0.000 HD
ENDBRANCH  27  31
ENDBRANCH  26  27
ENDBRANCH  25  26
ENDBRANCH  21  25
BRANCH  21  33
ATOM     33  C   UNL     1       1.598  11.071  19.207  0.00  0.00    +0.000 C 
BRANCH  33  34
ATOM     34  O   UNL     1       1.291  10.939  17.843  0.00  0.00    +0.000 OA
ATOM     35  H   UNL     1       2.056  10.469  17.419  0.00  0.00    +0.000 HD
ENDBRANCH  33  34
ENDBRANCH  21  33
ENDBRANCH   4  21
TORSDOF 17
ENDMDL
MODEL 7
REMARK VINA RESULT:      -6.8      2.082      3.460
REMARK  Name = 
REMARK  18 active torsions:
REMARK  status: ('A' for Active; 'I' for Inactive)
REMARK    1  A    between atoms: C_1  and  C_2
REMARK    2  A    between atoms: C_2  and  C_3
REMARK    3  A    between atoms: C_3  and  C_4
REMARK    4  A    between atoms: C_4  and  C_5
REMARK    5  A    between atoms: C_5  and  C_6
REMARK    6  A    between atoms: C_6  and  C_7
REMARK    7  A    between atoms: C_7  and  C_8
REMARK    8  A    between atoms: C_8  and  C_9
REMARK    9  A    between atoms: C_12  and  C_13
REMARK   10  A    between atoms: C_16  and  C_17
REMARK   11  A    between atoms: C_17  and  N_18
REMARK   12  A    between atoms: C_17  and  C_19
REMARK   13  A    between atoms: C_17  and  C_21
REMARK   14  A    between atoms: C_19  and  O_20
REMARK   15  A    between atoms: C_21  and  O_22
REMARK   16  A    between atoms: O_22  and  P_23
REMARK   17  A    between atoms: P_23  and  O_25
REMARK   18  A    between atoms: P_23  and  O_26
REMARK                            x       y       z     vdW  Elec       q    Type
REMARK                         _______ _______ _______ _____ _____    ______ ____
ROOT
ATOM      1  C   UNL     1       2.382   6.078  19.715  0.00  0.00    +0.000 A 
ATOM      2  C   UNL     1       2.035   5.294  20.800  0.00  0.00    +0.000 A 
ATOM      3  N   UNL     1       2.602   4.092  20.642  0.00  0.00    +0.000 N 
ATOM      4  C   UNL     1       3.279   4.155  19.479  0.00  0.00    +0.000 A 
ATOM      5  N   UNL     1       3.158   5.360  18.882  0.00  0.00    +0.000 NA
ATOM      6  H   UNL     1       2.531   3.284  21.298  0.00  0.00    +0.000 HD
ENDROOT
BRANCH   1  10
ATOM      7  C   UNL     1       1.264  10.155  19.011  0.00  0.00    +0.000 A 
ATOM      8  C   UNL     1       1.876   9.400  18.001  0.00  0.00    +0.000 A 
ATOM      9  C   UNL     1       2.240   8.081  18.231  0.00  0.00    +0.000 A 
ATOM     10  C   UNL     1       2.004   7.483  19.483  0.00  0.00    +0.000 A 
ATOM     11  C   UNL     1       1.399   8.243  20.498  0.00  0.00    +0.000 A 
ATOM     12  C   UNL     1       1.032   9.573  20.264  0.00  0.00    +0.000 A 
BRANCH   7  13
ATOM     13  C   UNL     1       0.881  11.577  18.736  0.00  0.00    +0.000 C 
BRANCH  13  14
ATOM     14  C   UNL     1      -0.643  11.711  18.560  0.00  0.00    +0.000 C 
BRANCH  14  15
ATOM     15  C   UNL     1      -1.216  12.930  19.290  0.00  0.00    +0.000 C 
BRANCH  15  16
ATOM     16  C   UNL     1      -0.269  13.464  20.378  0.00  0.00    +0.000 C 
BRANCH  16  17
ATOM     17  C   UNL     1      -0.869  13.251  21.765  0.00  0.00    +0.000 C 
BRANCH  17  18
ATOM     18  C   UNL     1      -1.664  11.942  21.834  0.00  0.00    +0.000 C 
BRANCH  18  20
ATOM     19  C   UNL     1      -0.723   9.984  23.139  0.00  0.00    +0.000 C 
ATOM     20  C   UNL     1      -1.488  11.301  23.214  0.00  0.00    +0.000 C 
ENDBRANCH  18  20
ENDBRANCH  17  18
ENDBRANCH  16  17
ENDBRANCH  15  16
ENDBRANCH  14  15
ENDBRANCH  13  14
ENDBRANCH   7  13
ENDBRANCH   1  10
BRANCH   4  21
ATOM     21  C   UNL     1       4.098   3.003  18.924  0.00  0.00    +0.000 C 
BRANCH  21  22
ATOM     22  N   UNL     1       4.833   2.359  20.023  0.00  0.00    +0.000 NA
ATOM     23  H   UNL     1       4.617   1.336  20.060  0.00  0.00    +0.000 HD
ATOM     24  H   UNL     1       4.549   2.771  20.943  0.00  0.00    +0.000 HD
ENDBRANCH  21  22
BRANCH  21  25
ATOM     25  C   UNL     1       5.115   3.507  17.873  0.00  0.00    +0.000 C 
BRANCH  25  26
ATOM     26  O   UNL     1       6.170   4.160  18.533  0.00  0.00    +0.000 OA
BRANCH  26  27
ATOM     27  P   UNL     1       6.884   5.277  17.420  0.00  0.00    +0.000 P 
ATOM     28  O   UNL     1       7.623   5.967  18.598  0.00  0.00    +0.000 OA
BRANCH  27  29
ATOM     29  O   UNL     1       7.598   6.392  16.307  0.00  0.00    +0.000 OA
ATOM     30  H   UNL     1       8.135   5.830  15.693  0.00  0.00    +0.000 HD
ENDBRANCH  27  29
BRANCH  27  31
ATOM     31  O   UNL     1       8.172   4.147  17.126  0.00  0.00    +0.000 OA
ATOM     32  H   UNL     1       8.969   4.536  17.569  0.00  0.00    +0.000 HD
ENDBRANCH  27  31
ENDBRANCH  26  27
ENDBRANCH  25  26
ENDBRANCH  21  25
BRANCH  21  33
ATOM     33  C   UNL     1       3.156   1.963  18.276  0.00  0.00    +0.000 C 
BRANCH  33  34
ATOM     34  O   UNL     1       1.861   2.475  18.101  0.00  0.00    +0.000 OA
ATOM     35  H   UNL     1       1.389   1.860  17.480  0.00  0.00    +0.000 HD
ENDBRANCH  33  34
ENDBRANCH  21  33
ENDBRANCH   4  21
TORSDOF 17
ENDMDL
MODEL 8
REMARK VINA RESULT:      -6.8      0.979      1.714
REMARK  Name = 
REMARK  18 active torsions:
REMARK  status: ('A' for Active; 'I' for Inactive)
REMARK    1  A    between atoms: C_1  and  C_2
REMARK    2  A    between atoms: C_2  and  C_3
REMARK    3  A    between atoms: C_3  and  C_4
REMARK    4  A    between atoms: C_4  and  C_5
REMARK    5  A    between atoms: C_5  and  C_6
REMARK    6  A    between atoms: C_6  and  C_7
REMARK    7  A    between atoms: C_7  and  C_8
REMARK    8  A    between atoms: C_8  and  C_9
REMARK    9  A    between atoms: C_12  and  C_13
REMARK   10  A    between atoms: C_16  and  C_17
REMARK   11  A    between atoms: C_17  and  N_18
REMARK   12  A    between atoms: C_17  and  C_19
REMARK   13  A    between atoms: C_17  and  C_21
REMARK   14  A    between atoms: C_19  and  O_20
REMARK   15  A    between atoms: C_21  and  O_22
REMARK   16  A    between atoms: O_22  and  P_23
REMARK   17  A    between atoms: P_23  and  O_25
REMARK   18  A    between atoms: P_23  and  O_26
REMARK                            x       y       z     vdW  Elec       q    Type
REMARK                         _______ _______ _______ _____ _____    ______ ____
ROOT
ATOM      1  C   UNL     1       2.247   6.253  19.868  0.00  0.00    +0.000 A 
ATOM      2  C   UNL     1       2.143   5.244  20.808  0.00  0.00    +0.000 A 
ATOM      3  N   UNL     1       2.699   4.140  20.294  0.00  0.00    +0.000 N 
ATOM      4  C   UNL     1       3.129   4.483  19.065  0.00  0.00    +0.000 A 
ATOM      5  N   UNL     1       2.861   5.774  18.771  0.00  0.00    +0.000 NA
ATOM      6  H   UNL     1       2.781   3.213  20.766  0.00  0.00    +0.000 HD
ENDROOT
BRANCH   1  10
ATOM      7  C   UNL     1       0.907  10.305  20.270  0.00  0.00    +0.000 A 
ATOM      8  C   UNL     1       1.354   9.822  19.032  0.00  0.00    +0.000 A 
ATOM      9  C   UNL     1       1.790   8.511  18.904  0.00  0.00    +0.000 A 
ATOM     10  C   UNL     1       1.794   7.648  20.016  0.00  0.00    +0.000 A 
ATOM     11  C   UNL     1       1.354   8.135  21.258  0.00  0.00    +0.000 A 
ATOM     12  C   UNL     1       0.914   9.457  21.385  0.00  0.00    +0.000 A 
BRANCH   7  13
ATOM     13  C   UNL     1       0.440  11.724  20.380  0.00  0.00    +0.000 C 
BRANCH  13  14
ATOM     14  C   UNL     1       0.425  12.407  19.000  0.00  0.00    +0.000 C 
BRANCH  14  15
ATOM     15  C   UNL     1      -0.969  12.904  18.604  0.00  0.00    +0.000 C 
BRANCH  15  16
ATOM     16  C   UNL     1      -2.029  11.792  18.659  0.00  0.00    +0.000 C 
BRANCH  16  17
ATOM     17  C   UNL     1      -1.749  10.729  17.600  0.00  0.00    +0.000 C 
BRANCH  17  18
ATOM     18  C   UNL     1      -3.005   9.905  17.292  0.00  0.00    +0.000 C 
BRANCH  18  20
ATOM     19  C   UNL     1      -3.187  10.617  14.867  0.00  0.00    +0.000 C 
ATOM     20  C   UNL     1      -2.982   9.452  15.829  0.00  0.00    +0.000 C 
ENDBRANCH  18  20
ENDBRANCH  17  18
ENDBRANCH  16  17
ENDBRANCH  15  16
ENDBRANCH  14  15
ENDBRANCH  13  14
ENDBRANCH   7  13
ENDBRANCH   1  10
BRANCH   4  21
ATOM     21  C   UNL     1       3.852   3.526  18.134  0.00  0.00    +0.000 C 
BRANCH  21  22
ATOM     22  N   UNL     1       4.932   2.856  18.874  0.00  0.00    +0.000 NA
ATOM     23  H   UNL     1       4.548   2.337  19.697  0.00  0.00    +0.000 HD
ATOM     24  H   UNL     1       5.616   3.560  19.240  0.00  0.00    +0.000 HD
ENDBRANCH  21  22
BRANCH  21  25
ATOM     25  C   UNL     1       4.466   4.284  16.933  0.00  0.00    +0.000 C 
BRANCH  25  26
ATOM     26  O   UNL     1       5.826   3.944  16.824  0.00  0.00    +0.000 OA
BRANCH  26  27
ATOM     27  P   UNL     1       6.733   5.412  16.703  0.00  0.00    +0.000 P 
ATOM     28  O   UNL     1       7.827   4.661  15.897  0.00  0.00    +0.000 OA
BRANCH  27  29
ATOM     29  O   UNL     1       7.640   6.880  16.583  0.00  0.00    +0.000 OA
ATOM     30  H   UNL     1       8.522   6.605  16.224  0.00  0.00    +0.000 HD
ENDBRANCH  27  29
BRANCH  27  31
ATOM     31  O   UNL     1       5.826   5.847  15.286  0.00  0.00    +0.000 OA
ATOM     32  H   UNL     1       5.166   5.117  15.163  0.00  0.00    +0.000 HD
ENDBRANCH  27  31
ENDBRANCH  26  27
ENDBRANCH  25  26
ENDBRANCH  21  25
BRANCH  21  33
ATOM     33  C   UNL     1       2.861   2.457  17.620  0.00  0.00    +0.000 C 
BRANCH  33  34
ATOM     34  O   UNL     1       2.420   1.618  18.656  0.00  0.00    +0.000 OA
ATOM     35  H   UNL     1       3.169   1.001  18.865  0.00  0.00    +0.000 HD
ENDBRANCH  33  34
ENDBRANCH  21  33
ENDBRANCH   4  21
TORSDOF 17
ENDMDL
MODEL 9
REMARK VINA RESULT:      -6.8      1.088      1.669
REMARK  Name = 
REMARK  18 active torsions:
REMARK  status: ('A' for Active; 'I' for Inactive)
REMARK    1  A    between atoms: C_1  and  C_2
REMARK    2  A    between atoms: C_2  and  C_3
REMARK    3  A    between atoms: C_3  and  C_4
REMARK    4  A    between atoms: C_4  and  C_5
REMARK    5  A    between atoms: C_5  and  C_6
REMARK    6  A    between atoms: C_6  and  C_7
REMARK    7  A    between atoms: C_7  and  C_8
REMARK    8  A    between atoms: C_8  and  C_9
REMARK    9  A    between atoms: C_12  and  C_13
REMARK   10  A    between atoms: C_16  and  C_17
REMARK   11  A    between atoms: C_17  and  N_18
REMARK   12  A    between atoms: C_17  and  C_19
REMARK   13  A    between atoms: C_17  and  C_21
REMARK   14  A    between atoms: C_19  and  O_20
REMARK   15  A    between atoms: C_21  and  O_22
REMARK   16  A    between atoms: O_22  and  P_23
REMARK   17  A    between atoms: P_23  and  O_25
REMARK   18  A    between atoms: P_23  and  O_26
REMARK                            x       y       z     vdW  Elec       q    Type
REMARK                         _______ _______ _______ _____ _____    ______ ____
ROOT
ATOM      1  C   UNL     1       2.206   6.369  19.818  0.00  0.00    +0.000 A 
ATOM      2  C   UNL     1       2.189   5.406  20.811  0.00  0.00    +0.000 A 
ATOM      3  N   UNL     1       2.721   4.285  20.312  0.00  0.00    +0.000 N 
ATOM      4  C   UNL     1       3.054   4.571  19.038  0.00  0.00    +0.000 A 
ATOM      5  N   UNL     1       2.744   5.841  18.702  0.00  0.00    +0.000 NA
ATOM      6  H   UNL     1       2.853   3.384  20.821  0.00  0.00    +0.000 HD
ENDROOT
BRANCH   1  10
ATOM      7  C   UNL     1       0.839  10.420  20.117  0.00  0.00    +0.000 A 
ATOM      8  C   UNL     1       1.293   9.910  18.892  0.00  0.00    +0.000 A 
ATOM      9  C   UNL     1       1.738   8.599  18.798  0.00  0.00    +0.000 A 
ATOM     10  C   UNL     1       1.744   7.764  19.930  0.00  0.00    +0.000 A 
ATOM     11  C   UNL     1       1.297   8.278  21.159  0.00  0.00    +0.000 A 
ATOM     12  C   UNL     1       0.849   9.599  21.252  0.00  0.00    +0.000 A 
BRANCH   7  13
ATOM     13  C   UNL     1       0.363  11.839  20.191  0.00  0.00    +0.000 C 
BRANCH  13  14
ATOM     14  C   UNL     1      -1.171  11.898  20.300  0.00  0.00    +0.000 C 
BRANCH  14  15
ATOM     15  C   UNL     1      -1.849  12.135  18.946  0.00  0.00    +0.000 C 
BRANCH  15  16
ATOM     16  C   UNL     1      -3.369  11.908  19.002  0.00  0.00    +0.000 C 
BRANCH  16  17
ATOM     17  C   UNL     1      -3.867  11.274  17.707  0.00  0.00    +0.000 C 
BRANCH  17  18
ATOM     18  C   UNL     1      -3.314   9.854  17.534  0.00  0.00    +0.000 C 
BRANCH  18  20
ATOM     19  C   UNL     1      -3.021  10.570  15.120  0.00  0.00    +0.000 C 
ATOM     20  C   UNL     1      -2.423   9.793  16.288  0.00  0.00    +0.000 C 
ENDBRANCH  18  20
ENDBRANCH  17  18
ENDBRANCH  16  17
ENDBRANCH  15  16
ENDBRANCH  14  15
ENDBRANCH  13  14
ENDBRANCH   7  13
ENDBRANCH   1  10
BRANCH   4  21
ATOM     21  C   UNL     1       3.718   3.576  18.104  0.00  0.00    +0.000 C 
BRANCH  21  22
ATOM     22  N   UNL     1       4.761   2.844  18.839  0.00  0.00    +0.000 NA
ATOM     23  H   UNL     1       5.591   3.459  19.010  0.00  0.00    +0.000 HD
ATOM     24  H   UNL     1       5.092   2.021  18.283  0.00  0.00    +0.000 HD
ENDBRANCH  21  22
BRANCH  21  25
ATOM     25  C   UNL     1       4.373   4.301  16.903  0.00  0.00    +0.000 C 
BRANCH  25  26
ATOM     26  O   UNL     1       5.705   3.870  16.778  0.00  0.00    +0.000 OA
BRANCH  26  27
ATOM     27  P   UNL     1       6.732   5.241  17.027  0.00  0.00    +0.000 P 
ATOM     28  O   UNL     1       7.452   4.482  18.175  0.00  0.00    +0.000 OA
BRANCH  27  29
ATOM     29  O   UNL     1       7.758   6.611  17.276  0.00  0.00    +0.000 OA
ATOM     30  H   UNL     1       8.620   6.230  17.582  0.00  0.00    +0.000 HD
ENDBRANCH  27  29
BRANCH  27  31
ATOM     31  O   UNL     1       7.811   4.644  15.802  0.00  0.00    +0.000 OA
ATOM     32  H   UNL     1       7.493   3.728  15.596  0.00  0.00    +0.000 HD
ENDBRANCH  27  31
ENDBRANCH  26  27
ENDBRANCH  25  26
ENDBRANCH  21  25
BRANCH  21  33
ATOM     33  C   UNL     1       2.668   2.566  17.589  0.00  0.00    +0.000 C 
BRANCH  33  34
ATOM     34  O   UNL     1       1.359   3.006  17.843  0.00  0.00    +0.000 OA
ATOM     35  H   UNL     1       1.343   3.982  17.661  0.00  0.00    +0.000 HD
ENDBRANCH  33  34
ENDBRANCH  21  33
ENDBRANCH   4  21
TORSDOF 17
ENDMDL
