MODEL 1
REMARK VINA RESULT:      -8.1      0.000      0.000
REMARK  Name = 
REMARK  9 active torsions:
REMARK  status: ('A' for Active; 'I' for Inactive)
REMARK    1  A    between atoms: C_1  and  C_2
REMARK    2  A    between atoms: C_2  and  O_3
REMARK    3  A    between atoms: O_3  and  C_4
REMARK    4  A    between atoms: C_4  and  C_6
REMARK    5  A    between atoms: C_6  and  C_7
REMARK    6  A    between atoms: C_6  and  N_15
REMARK    7  A    between atoms: C_7  and  C_8
REMARK    8  A    between atoms: C_11  and  O_12
REMARK    9  A    between atoms: C_16  and  C_18
REMARK                            x       y       z     vdW  Elec       q    Type
REMARK                         _______ _______ _______ _____ _____    ______ ____
ROOT
ATOM      1  C   UNL     1       3.645   4.842  18.886  0.00  0.00    +0.000 C 
ENDROOT
BRANCH   1   2
ATOM      2  N   UNL     1       3.296   6.272  18.857  0.00  0.00    +0.000 N 
ATOM      3  C   UNL     1       2.284   6.745  19.677  0.00  0.00    +0.000 C 
ATOM      4  O   UNL     1       1.787   6.060  20.560  0.00  0.00    +0.000 OA
ATOM      5  H   UNL     1       3.491   6.786  18.008  0.00  0.00    +0.000 HD
BRANCH   3   6
ATOM      6  C   UNL     1       1.817   8.145  19.414  0.00  0.00    +0.000 A 
ATOM      7  C   UNL     1       2.150   8.722  18.175  0.00  0.00    +0.000 A 
ATOM      8  C   UNL     1       1.802  10.040  17.895  0.00  0.00    +0.000 A 
ATOM      9  C   UNL     1       1.130  10.797  18.850  0.00  0.00    +0.000 A 
ATOM     10  C   UNL     1       0.781  10.250  20.094  0.00  0.00    +0.000 A 
ATOM     11  C   UNL     1       0.105  11.046  21.035  0.00  0.00    +0.000 A 
ATOM     12  C   UNL     1      -0.269  10.534  22.275  0.00  0.00    +0.000 A 
ATOM     13  C   UNL     1       0.023   9.214  22.586  0.00  0.00    +0.000 A 
ATOM     14  C   UNL     1       0.699   8.413  21.662  0.00  0.00    +0.000 A 
ATOM     15  C   UNL     1       1.111   8.902  20.397  0.00  0.00    +0.000 A 
ENDBRANCH   3   6
ENDBRANCH   1   2
BRANCH   1  16
ATOM     16  C   UNL     1       5.039   4.477  19.423  0.00  0.00    +0.000 C 
ATOM     17  O   UNL     1       5.362   3.320  19.685  0.00  0.00    +0.000 OA
BRANCH  16  18
ATOM     18  O   UNL     1       5.846   5.555  19.618  0.00  0.00    +0.000 OA
BRANCH  18  20
ATOM     19  C   UNL     1       7.678   6.542  18.403  0.00  0.00    +0.000 C 
ATOM     20  C   UNL     1       7.215   5.356  19.232  0.00  0.00    +0.000 C 
ENDBRANCH  18  20
ENDBRANCH  16  18
ENDBRANCH   1  16
BRANCH   1  21
ATOM     21  C   UNL     1       3.491   4.195  17.497  0.00  0.00    +0.000 C 
BRANCH  21  22
ATOM     22  C   UNL     1       4.618   4.543  16.552  0.00  0.00    +0.000 A 
ATOM     23  C   UNL     1       4.817   5.866  16.132  0.00  0.00    +0.000 A 
ATOM     24  C   UNL     1       5.861   6.185  15.259  0.00  0.00    +0.000 A 
ATOM     25  C   UNL     1       6.712   5.179  14.814  0.00  0.00    +0.000 A 
ATOM     26  C   UNL     1       6.544   3.867  15.229  0.00  0.00    +0.000 A 
ATOM     27  C   UNL     1       5.506   3.551  16.104  0.00  0.00    +0.000 A 
BRANCH  25  28
ATOM     28  O   UNL     1       7.741   5.443  13.961  0.00  0.00    +0.000 OA
ATOM     29  H   UNL     1       8.570   5.148  14.371  0.00  0.00    +0.000 HD
ENDBRANCH  25  28
ENDBRANCH  21  22
ENDBRANCH   1  21
TORSDOF 8
ENDMDL
MODEL 2
REMARK VINA RESULT:      -8.1      1.932      3.467
REMARK  Name = 
REMARK  9 active torsions:
REMARK  status: ('A' for Active; 'I' for Inactive)
REMARK    1  A    between atoms: C_1  and  C_2
REMARK    2  A    between atoms: C_2  and  O_3
REMARK    3  A    between atoms: O_3  and  C_4
REMARK    4  A    between atoms: C_4  and  C_6
REMARK    5  A    between atoms: C_6  and  C_7
REMARK    6  A    between atoms: C_6  and  N_15
REMARK    7  A    between atoms: C_7  and  C_8
REMARK    8  A    between atoms: C_11  and  O_12
REMARK    9  A    between atoms: C_16  and  C_18
REMARK                            x       y       z     vdW  Elec       q    Type
REMARK                         _______ _______ _______ _____ _____    ______ ____
ROOT
ATOM      1  C   UNL     1       2.499   5.833  18.671  0.00  0.00    +0.000 C 
ENDROOT
BRANCH   1   2
ATOM      2  N   UNL     1       1.681   6.725  19.510  0.00  0.00    +0.000 N 
ATOM      3  C   UNL     1       1.745   8.095  19.316  0.00  0.00    +0.000 C 
ATOM      4  O   UNL     1       2.316   8.591  18.353  0.00  0.00    +0.000 OA
ATOM      5  H   UNL     1       1.415   6.393  20.428  0.00  0.00    +0.000 HD
BRANCH   3   6
ATOM      6  C   UNL     1       1.086   8.945  20.360  0.00  0.00    +0.000 A 
ATOM      7  C   UNL     1       1.345   8.641  21.708  0.00  0.00    +0.000 A 
ATOM      8  C   UNL     1       0.714   9.350  22.726  0.00  0.00    +0.000 A 
ATOM      9  C   UNL     1      -0.189  10.361  22.408  0.00  0.00    +0.000 A 
ATOM     10  C   UNL     1      -0.467  10.691  21.073  0.00  0.00    +0.000 A 
ATOM     11  C   UNL     1      -1.386  11.716  20.791  0.00  0.00    +0.000 A 
ATOM     12  C   UNL     1      -1.678  12.080  19.478  0.00  0.00    +0.000 A 
ATOM     13  C   UNL     1      -1.047  11.427  18.431  0.00  0.00    +0.000 A 
ATOM     14  C   UNL     1      -0.134  10.403  18.697  0.00  0.00    +0.000 A 
ATOM     15  C   UNL     1       0.177   9.991  20.018  0.00  0.00    +0.000 A 
ENDBRANCH   3   6
ENDBRANCH   1   2
BRANCH   1  16
ATOM     16  C   UNL     1       1.975   4.403  18.460  0.00  0.00    +0.000 C 
ATOM     17  O   UNL     1       1.324   4.080  17.468  0.00  0.00    +0.000 OA
BRANCH  16  18
ATOM     18  O   UNL     1       2.263   3.561  19.488  0.00  0.00    +0.000 OA
BRANCH  18  20
ATOM     19  C   UNL     1       1.652   2.690  21.652  0.00  0.00    +0.000 C 
ATOM     20  C   UNL     1       1.144   3.236  20.327  0.00  0.00    +0.000 C 
ENDBRANCH  18  20
ENDBRANCH  16  18
ENDBRANCH   1  16
BRANCH   1  21
ATOM     21  C   UNL     1       3.944   5.734  19.196  0.00  0.00    +0.000 C 
BRANCH  21  22
ATOM     22  C   UNL     1       4.967   5.592  18.092  0.00  0.00    +0.000 A 
ATOM     23  C   UNL     1       6.154   4.876  18.306  0.00  0.00    +0.000 A 
ATOM     24  C   UNL     1       7.097   4.745  17.283  0.00  0.00    +0.000 A 
ATOM     25  C   UNL     1       6.848   5.325  16.043  0.00  0.00    +0.000 A 
ATOM     26  C   UNL     1       5.674   6.024  15.806  0.00  0.00    +0.000 A 
ATOM     27  C   UNL     1       4.731   6.148  16.825  0.00  0.00    +0.000 A 
BRANCH  25  28
ATOM     28  O   UNL     1       7.741   5.226  15.019  0.00  0.00    +0.000 OA
ATOM     29  H   UNL     1       7.340   4.701  14.306  0.00  0.00    +0.000 HD
ENDBRANCH  25  28
ENDBRANCH  21  22
ENDBRANCH   1  21
TORSDOF 8
ENDMDL
MODEL 3
REMARK VINA RESULT:      -7.8      2.002      4.015
REMARK  Name = 
REMARK  9 active torsions:
REMARK  status: ('A' for Active; 'I' for Inactive)
REMARK    1  A    between atoms: C_1  and  C_2
REMARK    2  A    between atoms: C_2  and  O_3
REMARK    3  A    between atoms: O_3  and  C_4
REMARK    4  A    between atoms: C_4  and  C_6
REMARK    5  A    between atoms: C_6  and  C_7
REMARK    6  A    between atoms: C_6  and  N_15
REMARK    7  A    between atoms: C_7  and  C_8
REMARK    8  A    between atoms: C_11  and  O_12
REMARK    9  A    between atoms: C_16  and  C_18
REMARK                            x       y       z     vdW  Elec       q    Type
REMARK                         _______ _______ _______ _____ _____    ______ ____
ROOT
ATOM      1  C   UNL     1       3.856   5.972  17.779  0.00  0.00    +0.000 C 
ENDROOT
BRANCH   1   2
ATOM      2  N   UNL     1       3.043   7.194  17.898  0.00  0.00    +0.000 N 
ATOM      3  C   UNL     1       2.488   7.529  19.123  0.00  0.00    +0.000 C 
ATOM      4  O   UNL     1       2.793   6.949  20.157  0.00  0.00    +0.000 OA
ATOM      5  H   UNL     1       2.582   7.534  17.065  0.00  0.00    +0.000 HD
BRANCH   3   6
ATOM      6  C   UNL     1       1.477   8.635  19.113  0.00  0.00    +0.000 A 
ATOM      7  C   UNL     1       1.154   9.212  17.872  0.00  0.00    +0.000 A 
ATOM      8  C   UNL     1       0.271  10.286  17.802  0.00  0.00    +0.000 A 
ATOM      9  C   UNL     1      -0.287  10.800  18.969  0.00  0.00    +0.000 A 
ATOM     10  C   UNL     1       0.012  10.246  20.222  0.00  0.00    +0.000 A 
ATOM     11  C   UNL     1      -0.569  10.793  21.378  0.00  0.00    +0.000 A 
ATOM     12  C   UNL     1      -0.304  10.261  22.638  0.00  0.00    +0.000 A 
ATOM     13  C   UNL     1       0.540   9.167  22.755  0.00  0.00    +0.000 A 
ATOM     14  C   UNL     1       1.128   8.615  21.614  0.00  0.00    +0.000 A 
ATOM     15  C   UNL     1       0.899   9.139  20.317  0.00  0.00    +0.000 A 
ENDBRANCH   3   6
ENDBRANCH   1   2
BRANCH   1  16
ATOM     16  C   UNL     1       4.965   5.975  16.713  0.00  0.00    +0.000 C 
ATOM     17  O   UNL     1       5.380   7.011  16.198  0.00  0.00    +0.000 OA
BRANCH  16  18
ATOM     18  O   UNL     1       5.395   4.731  16.373  0.00  0.00    +0.000 OA
BRANCH  18  20
ATOM     19  C   UNL     1       7.427   4.619  17.665  0.00  0.00    +0.000 C 
ATOM     20  C   UNL     1       6.821   4.597  16.271  0.00  0.00    +0.000 C 
ENDBRANCH  18  20
ENDBRANCH  16  18
ENDBRANCH   1  16
BRANCH   1  21
ATOM     21  C   UNL     1       2.977   4.730  17.541  0.00  0.00    +0.000 C 
BRANCH  21  22
ATOM     22  C   UNL     1       2.574   4.035  18.822  0.00  0.00    +0.000 A 
ATOM     23  C   UNL     1       3.539   3.432  19.642  0.00  0.00    +0.000 A 
ATOM     24  C   UNL     1       3.163   2.792  20.826  0.00  0.00    +0.000 A 
ATOM     25  C   UNL     1       1.821   2.761  21.193  0.00  0.00    +0.000 A 
ATOM     26  C   UNL     1       0.853   3.364  20.404  0.00  0.00    +0.000 A 
ATOM     27  C   UNL     1       1.229   4.008  19.227  0.00  0.00    +0.000 A 
BRANCH  25  28
ATOM     28  O   UNL     1       1.410   2.145  22.336  0.00  0.00    +0.000 OA
ATOM     29  H   UNL     1       1.322   2.813  23.036  0.00  0.00    +0.000 HD
ENDBRANCH  25  28
ENDBRANCH  21  22
ENDBRANCH   1  21
TORSDOF 8
ENDMDL
MODEL 4
REMARK VINA RESULT:      -7.8      1.783      3.101
REMARK  Name = 
REMARK  9 active torsions:
REMARK  status: ('A' for Active; 'I' for Inactive)
REMARK    1  A    between atoms: C_1  and  C_2
REMARK    2  A    between atoms: C_2  and  O_3
REMARK    3  A    between atoms: O_3  and  C_4
REMARK    4  A    between atoms: C_4  and  C_6
REMARK    5  A    between atoms: C_6  and  C_7
REMARK    6  A    between atoms: C_6  and  N_15
REMARK    7  A    between atoms: C_7  and  C_8
REMARK    8  A    between atoms: C_11  and  O_12
REMARK    9  A    between atoms: C_16  and  C_18
REMARK                            x       y       z     vdW  Elec       q    Type
REMARK                         _______ _______ _______ _____ _____    ______ ____
ROOT
ATOM      1  C   UNL     1       2.515   5.776  18.662  0.00  0.00    +0.000 C 
ENDROOT
BRANCH   1   2
ATOM      2  N   UNL     1       1.697   6.678  19.489  0.00  0.00    +0.000 N 
ATOM      3  C   UNL     1       1.777   8.047  19.292  0.00  0.00    +0.000 C 
ATOM      4  O   UNL     1       2.364   8.534  18.335  0.00  0.00    +0.000 OA
ATOM      5  H   UNL     1       1.417   6.351  20.404  0.00  0.00    +0.000 HD
BRANCH   3   6
ATOM      6  C   UNL     1       1.115   8.906  20.327  0.00  0.00    +0.000 A 
ATOM      7  C   UNL     1       1.381   8.622  21.678  0.00  0.00    +0.000 A 
ATOM      8  C   UNL     1       0.747   9.341  22.688  0.00  0.00    +0.000 A 
ATOM      9  C   UNL     1      -0.164  10.340  22.359  0.00  0.00    +0.000 A 
ATOM     10  C   UNL     1      -0.449  10.650  21.021  0.00  0.00    +0.000 A 
ATOM     11  C   UNL     1      -1.377  11.664  20.728  0.00  0.00    +0.000 A 
ATOM     12  C   UNL     1      -1.676  12.007  19.411  0.00  0.00    +0.000 A 
ATOM     13  C   UNL     1      -1.042  11.345  18.371  0.00  0.00    +0.000 A 
ATOM     14  C   UNL     1      -0.121  10.332  18.648  0.00  0.00    +0.000 A 
ATOM     15  C   UNL     1       0.197   9.940  19.973  0.00  0.00    +0.000 A 
ENDBRANCH   3   6
ENDBRANCH   1   2
BRANCH   1  16
ATOM     16  C   UNL     1       2.020   4.328  18.511  0.00  0.00    +0.000 C 
ATOM     17  O   UNL     1       1.327   3.964  17.563  0.00  0.00    +0.000 OA
BRANCH  16  18
ATOM     18  O   UNL     1       2.383   3.520  19.543  0.00  0.00    +0.000 OA
BRANCH  18  20
ATOM     19  C   UNL     1       4.347   2.181  19.942  0.00  0.00    +0.000 C 
ATOM     20  C   UNL     1       3.056   2.314  19.150  0.00  0.00    +0.000 C 
ENDBRANCH  18  20
ENDBRANCH  16  18
ENDBRANCH   1  16
BRANCH   1  21
ATOM     21  C   UNL     1       3.974   5.726  19.155  0.00  0.00    +0.000 C 
BRANCH  21  22
ATOM     22  C   UNL     1       4.976   5.598  18.030  0.00  0.00    +0.000 A 
ATOM     23  C   UNL     1       4.702   6.135  16.764  0.00  0.00    +0.000 A 
ATOM     24  C   UNL     1       5.632   6.016  15.727  0.00  0.00    +0.000 A 
ATOM     25  C   UNL     1       6.840   5.366  15.961  0.00  0.00    +0.000 A 
ATOM     26  C   UNL     1       7.137   4.842  17.210  0.00  0.00    +0.000 A 
ATOM     27  C   UNL     1       6.212   4.966  18.244  0.00  0.00    +0.000 A 
BRANCH  25  28
ATOM     28  O   UNL     1       7.773   5.224  14.979  0.00  0.00    +0.000 OA
ATOM     29  H   UNL     1       7.689   5.967  14.358  0.00  0.00    +0.000 HD
ENDBRANCH  25  28
ENDBRANCH  21  22
ENDBRANCH   1  21
TORSDOF 8
ENDMDL
MODEL 5
REMARK VINA RESULT:      -7.8      2.804      5.689
REMARK  Name = 
REMARK  9 active torsions:
REMARK  status: ('A' for Active; 'I' for Inactive)
REMARK    1  A    between atoms: C_1  and  C_2
REMARK    2  A    between atoms: C_2  and  O_3
REMARK    3  A    between atoms: O_3  and  C_4
REMARK    4  A    between atoms: C_4  and  C_6
REMARK    5  A    between atoms: C_6  and  C_7
REMARK    6  A    between atoms: C_6  and  N_15
REMARK    7  A    between atoms: C_7  and  C_8
REMARK    8  A    between atoms: C_11  and  O_12
REMARK    9  A    between atoms: C_16  and  C_18
REMARK                            x       y       z     vdW  Elec       q    Type
REMARK                         _______ _______ _______ _____ _____    ______ ____
ROOT
ATOM      1  C   UNL     1       6.772   6.082  17.522  0.00  0.00    +0.000 C 
ENDROOT
BRANCH   1   2
ATOM      2  N   UNL     1       5.549   5.612  18.193  0.00  0.00    +0.000 N 
ATOM      3  C   UNL     1       4.327   6.173  17.858  0.00  0.00    +0.000 C 
ATOM      4  O   UNL     1       4.194   6.917  16.896  0.00  0.00    +0.000 OA
ATOM      5  H   UNL     1       5.645   5.213  19.117  0.00  0.00    +0.000 HD
BRANCH   3   6
ATOM      6  C   UNL     1       3.172   5.829  18.750  0.00  0.00    +0.000 A 
ATOM      7  C   UNL     1       2.745   6.803  19.669  0.00  0.00    +0.000 A 
ATOM      8  C   UNL     1       1.721   6.523  20.569  0.00  0.00    +0.000 A 
ATOM      9  C   UNL     1       1.123   5.266  20.568  0.00  0.00    +0.000 A 
ATOM     10  C   UNL     1       1.524   4.273  19.662  0.00  0.00    +0.000 A 
ATOM     11  C   UNL     1       0.899   3.015  19.692  0.00  0.00    +0.000 A 
ATOM     12  C   UNL     1       1.262   2.009  18.800  0.00  0.00    +0.000 A 
ATOM     13  C   UNL     1       2.252   2.253  17.859  0.00  0.00    +0.000 A 
ATOM     14  C   UNL     1       2.886   3.498  17.821  0.00  0.00    +0.000 A 
ATOM     15  C   UNL     1       2.557   4.541  18.723  0.00  0.00    +0.000 A 
ENDBRANCH   3   6
ENDBRANCH   1   2
BRANCH   1  16
ATOM     16  C   UNL     1       7.455   5.103  16.553  0.00  0.00    +0.000 C 
ATOM     17  O   UNL     1       8.141   4.160  16.944  0.00  0.00    +0.000 OA
BRANCH  16  18
ATOM     18  O   UNL     1       7.263   5.412  15.242  0.00  0.00    +0.000 OA
BRANCH  18  20
ATOM     19  C   UNL     1       6.370   3.970  13.529  0.00  0.00    +0.000 C 
ATOM     20  C   UNL     1       6.042   4.907  14.680  0.00  0.00    +0.000 C 
ENDBRANCH  18  20
ENDBRANCH  16  18
ENDBRANCH   1  16
BRANCH   1  21
ATOM     21  C   UNL     1       7.829   6.552  18.539  0.00  0.00    +0.000 C 
BRANCH  21  22
ATOM     22  C   UNL     1       8.139   8.028  18.433  0.00  0.00    +0.000 A 
ATOM     23  C   UNL     1       9.029   8.638  19.330  0.00  0.00    +0.000 A 
ATOM     24  C   UNL     1       9.315  10.002  19.228  0.00  0.00    +0.000 A 
ATOM     25  C   UNL     1       8.717  10.755  18.223  0.00  0.00    +0.000 A 
ATOM     26  C   UNL     1       7.846  10.169  17.316  0.00  0.00    +0.000 A 
ATOM     27  C   UNL     1       7.566   8.807  17.415  0.00  0.00    +0.000 A 
BRANCH  25  28
ATOM     28  O   UNL     1       8.964  12.087  18.088  0.00  0.00    +0.000 OA
ATOM     29  H   UNL     1       9.186  12.271  17.161  0.00  0.00    +0.000 HD
ENDBRANCH  25  28
ENDBRANCH  21  22
ENDBRANCH   1  21
TORSDOF 8
ENDMDL
MODEL 6
REMARK VINA RESULT:      -7.8      1.680      2.656
REMARK  Name = 
REMARK  9 active torsions:
REMARK  status: ('A' for Active; 'I' for Inactive)
REMARK    1  A    between atoms: C_1  and  C_2
REMARK    2  A    between atoms: C_2  and  O_3
REMARK    3  A    between atoms: O_3  and  C_4
REMARK    4  A    between atoms: C_4  and  C_6
REMARK    5  A    between atoms: C_6  and  C_7
REMARK    6  A    between atoms: C_6  and  N_15
REMARK    7  A    between atoms: C_7  and  C_8
REMARK    8  A    between atoms: C_11  and  O_12
REMARK    9  A    between atoms: C_16  and  C_18
REMARK                            x       y       z     vdW  Elec       q    Type
REMARK                         _______ _______ _______ _____ _____    ______ ____
ROOT
ATOM      1  C   UNL     1       2.388   4.477  17.956  0.00  0.00    +0.000 C 
ENDROOT
BRANCH   1   2
ATOM      2  N   UNL     1       2.128   5.925  17.906  0.00  0.00    +0.000 N 
ATOM      3  C   UNL     1       2.506   6.725  18.973  0.00  0.00    +0.000 C 
ATOM      4  O   UNL     1       3.211   6.308  19.882  0.00  0.00    +0.000 OA
ATOM      5  H   UNL     1       1.363   6.246  17.328  0.00  0.00    +0.000 HD
BRANCH   3   6
ATOM      6  C   UNL     1       1.988   8.132  18.964  0.00  0.00    +0.000 A 
ATOM      7  C   UNL     1       2.296   8.932  17.849  0.00  0.00    +0.000 A 
ATOM      8  C   UNL     1       1.900  10.266  17.808  0.00  0.00    +0.000 A 
ATOM      9  C   UNL     1       1.206  10.816  18.882  0.00  0.00    +0.000 A 
ATOM     10  C   UNL     1       0.882  10.043  20.008  0.00  0.00    +0.000 A 
ATOM     11  C   UNL     1       0.182  10.633  21.074  0.00  0.00    +0.000 A 
ATOM     12  C   UNL     1      -0.168   9.895  22.202  0.00  0.00    +0.000 A 
ATOM     13  C   UNL     1       0.171   8.552  22.272  0.00  0.00    +0.000 A 
ATOM     14  C   UNL     1       0.871   7.953  21.222  0.00  0.00    +0.000 A 
ATOM     15  C   UNL     1       1.261   8.675  20.065  0.00  0.00    +0.000 A 
ENDBRANCH   3   6
ENDBRANCH   1   2
BRANCH   1  16
ATOM     16  C   UNL     1       1.405   3.621  18.771  0.00  0.00    +0.000 C 
ATOM     17  O   UNL     1       0.838   2.638  18.298  0.00  0.00    +0.000 OA
BRANCH  16  18
ATOM     18  O   UNL     1       1.198   4.085  20.033  0.00  0.00    +0.000 OA
BRANCH  18  20
ATOM     19  C   UNL     1       2.499   2.767  21.576  0.00  0.00    +0.000 C 
ATOM     20  C   UNL     1       1.108   3.065  21.039  0.00  0.00    +0.000 C 
ENDBRANCH  18  20
ENDBRANCH  16  18
ENDBRANCH   1  16
BRANCH   1  21
ATOM     21  C   UNL     1       3.811   4.177  18.465  0.00  0.00    +0.000 C 
BRANCH  21  22
ATOM     22  C   UNL     1       4.884   4.493  17.449  0.00  0.00    +0.000 A 
ATOM     23  C   UNL     1       4.785   4.017  16.133  0.00  0.00    +0.000 A 
ATOM     24  C   UNL     1       5.779   4.313  15.195  0.00  0.00    +0.000 A 
ATOM     25  C   UNL     1       6.867   5.092  15.573  0.00  0.00    +0.000 A 
ATOM     26  C   UNL     1       6.976   5.586  16.864  0.00  0.00    +0.000 A 
ATOM     27  C   UNL     1       5.982   5.296  17.797  0.00  0.00    +0.000 A 
BRANCH  25  28
ATOM     28  O   UNL     1       7.860   5.403  14.693  0.00  0.00    +0.000 OA
ATOM     29  H   UNL     1       8.024   6.359  14.733  0.00  0.00    +0.000 HD
ENDBRANCH  25  28
ENDBRANCH  21  22
ENDBRANCH   1  21
TORSDOF 8
ENDMDL
MODEL 7
REMARK VINA RESULT:      -7.7      1.667      3.205
REMARK  Name = 
REMARK  9 active torsions:
REMARK  status: ('A' for Active; 'I' for Inactive)
REMARK    1  A    between atoms: C_1  and  C_2
REMARK    2  A    between atoms: C_2  and  O_3
REMARK    3  A    between atoms: O_3  and  C_4
REMARK    4  A    between atoms: C_4  and  C_6
REMARK    5  A    between atoms: C_6  and  C_7
REMARK    6  A    between atoms: C_6  and  N_15
REMARK    7  A    between atoms: C_7  and  C_8
REMARK    8  A    between atoms: C_11  and  O_12
REMARK    9  A    between atoms: C_16  and  C_18
REMARK                            x       y       z     vdW  Elec       q    Type
REMARK                         _______ _______ _______ _____ _____    ______ ____
ROOT
ATOM      1  C   UNL     1       2.691   5.435  19.325  0.00  0.00    +0.000 C 
ENDROOT
BRANCH   1   2
ATOM      2  N   UNL     1       1.861   6.426  20.029  0.00  0.00    +0.000 N 
ATOM      3  C   UNL     1       1.814   7.731  19.567  0.00  0.00    +0.000 C 
ATOM      4  O   UNL     1       2.291   8.057  18.488  0.00  0.00    +0.000 OA
ATOM      5  H   UNL     1       1.674   6.269  21.011  0.00  0.00    +0.000 HD
BRANCH   3   6
ATOM      6  C   UNL     1       1.157   8.732  20.470  0.00  0.00    +0.000 A 
ATOM      7  C   UNL     1       1.386   8.612  21.852  0.00  0.00    +0.000 A 
ATOM      8  C   UNL     1       0.755   9.470  22.748  0.00  0.00    +0.000 A 
ATOM      9  C   UNL     1      -0.118  10.445  22.275  0.00  0.00    +0.000 A 
ATOM     10  C   UNL     1      -0.366  10.592  20.902  0.00  0.00    +0.000 A 
ATOM     11  C   UNL     1      -1.256  11.586  20.461  0.00  0.00    +0.000 A 
ATOM     12  C   UNL     1      -1.517  11.769  19.105  0.00  0.00    +0.000 A 
ATOM     13  C   UNL     1      -0.883  10.964  18.172  0.00  0.00    +0.000 A 
ATOM     14  C   UNL     1       0.001   9.968  18.596  0.00  0.00    +0.000 A 
ATOM     15  C   UNL     1       0.279   9.738  19.967  0.00  0.00    +0.000 A 
ENDBRANCH   3   6
ENDBRANCH   1   2
BRANCH   1  16
ATOM     16  C   UNL     1       2.342   3.953  19.542  0.00  0.00    +0.000 C 
ATOM     17  O   UNL     1       2.666   3.342  20.558  0.00  0.00    +0.000 OA
BRANCH  16  18
ATOM     18  O   UNL     1       1.689   3.389  18.490  0.00  0.00    +0.000 OA
BRANCH  18  20
ATOM     19  C   UNL     1       3.570   2.065  17.766  0.00  0.00    +0.000 C 
ATOM     20  C   UNL     1       2.523   3.089  17.360  0.00  0.00    +0.000 C 
ENDBRANCH  18  20
ENDBRANCH  16  18
ENDBRANCH   1  16
BRANCH   1  21
ATOM     21  C   UNL     1       4.186   5.619  19.648  0.00  0.00    +0.000 C 
BRANCH  21  22
ATOM     22  C   UNL     1       5.070   5.556  18.423  0.00  0.00    +0.000 A 
ATOM     23  C   UNL     1       6.316   4.913  18.473  0.00  0.00    +0.000 A 
ATOM     24  C   UNL     1       7.130   4.855  17.338  0.00  0.00    +0.000 A 
ATOM     25  C   UNL     1       6.693   5.433  16.151  0.00  0.00    +0.000 A 
ATOM     26  C   UNL     1       5.457   6.060  16.076  0.00  0.00    +0.000 A 
ATOM     27  C   UNL     1       4.644   6.112  17.206  0.00  0.00    +0.000 A 
BRANCH  25  28
ATOM     28  O   UNL     1       7.454   5.404  15.022  0.00  0.00    +0.000 OA
ATOM     29  H   UNL     1       7.934   6.245  14.947  0.00  0.00    +0.000 HD
ENDBRANCH  25  28
ENDBRANCH  21  22
ENDBRANCH   1  21
TORSDOF 8
ENDMDL
MODEL 8
REMARK VINA RESULT:      -7.7      1.959      4.087
REMARK  Name = 
REMARK  9 active torsions:
REMARK  status: ('A' for Active; 'I' for Inactive)
REMARK    1  A    between atoms: C_1  and  C_2
REMARK    2  A    between atoms: C_2  and  O_3
REMARK    3  A    between atoms: O_3  and  C_4
REMARK    4  A    between atoms: C_4  and  C_6
REMARK    5  A    between atoms: C_6  and  C_7
REMARK    6  A    between atoms: C_6  and  N_15
REMARK    7  A    between atoms: C_7  and  C_8
REMARK    8  A    between atoms: C_11  and  O_12
REMARK    9  A    between atoms: C_16  and  C_18
REMARK                            x       y       z     vdW  Elec       q    Type
REMARK                         _______ _______ _______ _____ _____    ______ ____
ROOT
ATOM      1  C   UNL     1       3.858   6.269  18.042  0.00  0.00    +0.000 C 
ENDROOT
BRANCH   1   2
ATOM      2  N   UNL     1       2.970   7.439  18.140  0.00  0.00    +0.000 N 
ATOM      3  C   UNL     1       2.331   7.712  19.339  0.00  0.00    +0.000 C 
ATOM      4  O   UNL     1       2.612   7.127  20.376  0.00  0.00    +0.000 OA
ATOM      5  H   UNL     1       2.535   7.772  17.290  0.00  0.00    +0.000 HD
BRANCH   3   6
ATOM      6  C   UNL     1       1.258   8.759  19.294  0.00  0.00    +0.000 A 
ATOM      7  C   UNL     1       0.883   9.256  18.034  0.00  0.00    +0.000 A 
ATOM      8  C   UNL     1      -0.060  10.274  17.929  0.00  0.00    +0.000 A 
ATOM      9  C   UNL     1      -0.627  10.814  19.080  0.00  0.00    +0.000 A 
ATOM     10  C   UNL     1      -0.276  10.339  20.352  0.00  0.00    +0.000 A 
ATOM     11  C   UNL     1      -0.868  10.910  21.492  0.00  0.00    +0.000 A 
ATOM     12  C   UNL     1      -0.553  10.456  22.771  0.00  0.00    +0.000 A 
ATOM     13  C   UNL     1       0.353   9.417  22.924  0.00  0.00    +0.000 A 
ATOM     14  C   UNL     1       0.953   8.843  21.800  0.00  0.00    +0.000 A 
ATOM     15  C   UNL     1       0.673   9.289  20.483  0.00  0.00    +0.000 A 
ENDBRANCH   3   6
ENDBRANCH   1   2
BRANCH   1  16
ATOM     16  C   UNL     1       5.047   6.377  17.072  0.00  0.00    +0.000 C 
ATOM     17  O   UNL     1       6.003   7.120  17.283  0.00  0.00    +0.000 OA
BRANCH  16  18
ATOM     18  O   UNL     1       4.909   5.613  15.956  0.00  0.00    +0.000 OA
BRANCH  18  20
ATOM     19  C   UNL     1       6.028   3.867  14.727  0.00  0.00    +0.000 C 
ATOM     20  C   UNL     1       6.144   5.266  15.310  0.00  0.00    +0.000 C 
ENDBRANCH  18  20
ENDBRANCH  16  18
ENDBRANCH   1  16
BRANCH   1  21
ATOM     21  C   UNL     1       3.073   4.993  17.684  0.00  0.00    +0.000 C 
BRANCH  21  22
ATOM     22  C   UNL     1       2.610   4.220  18.899  0.00  0.00    +0.000 A 
ATOM     23  C   UNL     1       1.244   4.103  19.194  0.00  0.00    +0.000 A 
ATOM     24  C   UNL     1       0.820   3.387  20.317  0.00  0.00    +0.000 A 
ATOM     25  C   UNL     1       1.764   2.781  21.140  0.00  0.00    +0.000 A 
ATOM     26  C   UNL     1       3.119   2.871  20.857  0.00  0.00    +0.000 A 
ATOM     27  C   UNL     1       3.540   3.580  19.734  0.00  0.00    +0.000 A 
BRANCH  25  28
ATOM     28  O   UNL     1       1.396   2.077  22.246  0.00  0.00    +0.000 OA
ATOM     29  H   UNL     1       1.699   1.159  22.146  0.00  0.00    +0.000 HD
ENDBRANCH  25  28
ENDBRANCH  21  22
ENDBRANCH   1  21
TORSDOF 8
ENDMDL
MODEL 9
REMARK VINA RESULT:      -7.6      3.585      8.251
REMARK  Name = 
REMARK  9 active torsions:
REMARK  status: ('A' for Active; 'I' for Inactive)
REMARK    1  A    between atoms: C_1  and  C_2
REMARK    2  A    between atoms: C_2  and  O_3
REMARK    3  A    between atoms: O_3  and  C_4
REMARK    4  A    between atoms: C_4  and  C_6
REMARK    5  A    between atoms: C_6  and  C_7
REMARK    6  A    between atoms: C_6  and  N_15
REMARK    7  A    between atoms: C_7  and  C_8
REMARK    8  A    between atoms: C_11  and  O_12
REMARK    9  A    between atoms: C_16  and  C_18
REMARK                            x       y       z     vdW  Elec       q    Type
REMARK                         _______ _______ _______ _____ _____    ______ ____
ROOT
ATOM      1  C   UNL     1       0.722  10.437  19.225  0.00  0.00    +0.000 C 
ENDROOT
BRANCH   1   2
ATOM      2  N   UNL     1       1.427   9.181  19.530  0.00  0.00    +0.000 N 
ATOM      3  C   UNL     1       2.038   8.474  18.508  0.00  0.00    +0.000 C 
ATOM      4  O   UNL     1       2.176   8.940  17.385  0.00  0.00    +0.000 OA
ATOM      5  H   UNL     1       1.130   8.663  20.347  0.00  0.00    +0.000 HD
BRANCH   3   6
ATOM      6  C   UNL     1       2.513   7.093  18.848  0.00  0.00    +0.000 A 
ATOM      7  C   UNL     1       1.953   6.470  19.977  0.00  0.00    +0.000 A 
ATOM      8  C   UNL     1       2.397   5.215  20.383  0.00  0.00    +0.000 A 
ATOM      9  C   UNL     1       3.411   4.577  19.675  0.00  0.00    +0.000 A 
ATOM     10  C   UNL     1       3.989   5.170  18.542  0.00  0.00    +0.000 A 
ATOM     11  C   UNL     1       5.012   4.497  17.854  0.00  0.00    +0.000 A 
ATOM     12  C   UNL     1       5.601   5.050  16.719  0.00  0.00    +0.000 A 
ATOM     13  C   UNL     1       5.166   6.281  16.253  0.00  0.00    +0.000 A 
ATOM     14  C   UNL     1       4.152   6.964  16.931  0.00  0.00    +0.000 A 
ATOM     15  C   UNL     1       3.541   6.444  18.099  0.00  0.00    +0.000 A 
ENDBRANCH   3   6
ENDBRANCH   1   2
BRANCH   1  16
ATOM     16  C   UNL     1       1.342  11.734  19.771  0.00  0.00    +0.000 C 
ATOM     17  O   UNL     1       1.400  11.980  20.974  0.00  0.00    +0.000 OA
BRANCH  16  18
ATOM     18  O   UNL     1       1.769  12.584  18.799  0.00  0.00    +0.000 OA
BRANCH  18  20
ATOM     19  C   UNL     1      -0.194  13.962  18.547  0.00  0.00    +0.000 C 
ATOM     20  C   UNL     1       1.279  13.929  18.922  0.00  0.00    +0.000 C 
ENDBRANCH  18  20
ENDBRANCH  16  18
ENDBRANCH   1  16
BRANCH   1  21
ATOM     21  C   UNL     1      -0.747  10.387  19.685  0.00  0.00    +0.000 C 
BRANCH  21  22
ATOM     22  C   UNL     1      -1.731  10.508  18.544  0.00  0.00    +0.000 A 
ATOM     23  C   UNL     1      -2.854  11.341  18.653  0.00  0.00    +0.000 A 
ATOM     24  C   UNL     1      -3.760  11.452  17.595  0.00  0.00    +0.000 A 
ATOM     25  C   UNL     1      -3.538  10.734  16.425  0.00  0.00    +0.000 A 
ATOM     26  C   UNL     1      -2.426   9.917  16.289  0.00  0.00    +0.000 A 
ATOM     27  C   UNL     1      -1.519   9.812  17.342  0.00  0.00    +0.000 A 
BRANCH  25  28
ATOM     28  O   UNL     1      -4.397  10.810  15.370  0.00  0.00    +0.000 OA
ATOM     29  H   UNL     1      -4.643  11.740  15.233  0.00  0.00    +0.000 HD
ENDBRANCH  25  28
ENDBRANCH  21  22
ENDBRANCH   1  21
TORSDOF 8
ENDMDL
