MODEL 1
REMARK VINA RESULT:      -7.6      0.000      0.000
REMARK  Name = 
REMARK  5 active torsions:
REMARK  status: ('A' for Active; 'I' for Inactive)
REMARK    1  A    between atoms: C_1  and  N_2
REMARK    2  A    between atoms: C_3  and  C_4
REMARK    3  A    between atoms: C_4  and  C_5
REMARK    4  A    between atoms: C_7  and  O_8
REMARK    5  A    between atoms: C_7  and  C_9
REMARK                            x       y       z     vdW  Elec       q    Type
REMARK                         _______ _______ _______ _____ _____    ______ ____
ROOT
ATOM      1  C   UNL     1       5.054   4.247  17.570  0.00  0.00    +0.000 C 
ATOM      2  C   UNL     1       3.744   3.950  17.778  0.00  0.00    +0.000 C 
ENDROOT
BRANCH   1   5
ATOM      3  C   UNL     1       7.148   6.350  16.557  0.00  0.00    +0.000 C 
ATOM      4  N   UNL     1       6.509   5.273  15.830  0.00  0.00    +0.000 N 
ATOM      5  C   UNL     1       5.571   4.341  16.239  0.00  0.00    +0.000 A 
ATOM      6  N   UNL     1       5.282   3.519  15.235  0.00  0.00    +0.000 NA
ATOM      7  C   UNL     1       6.037   3.922  14.165  0.00  0.00    +0.000 A 
ATOM      8  C   UNL     1       6.094   3.412  12.859  0.00  0.00    +0.000 A 
ATOM      9  C   UNL     1       6.996   3.979  11.949  0.00  0.00    +0.000 A 
ATOM     10  C   UNL     1       7.834   5.023  12.335  0.00  0.00    +0.000 A 
ATOM     11  C   UNL     1       7.781   5.551  13.630  0.00  0.00    +0.000 A 
ATOM     12  C   UNL     1       6.853   4.988  14.517  0.00  0.00    +0.000 A 
ENDBRANCH   1   5
BRANCH   2  13
ATOM     13  C   UNL     1       3.143   3.836  19.130  0.00  0.00    +0.000 A 
ATOM     14  C   UNL     1       3.193   2.589  19.774  0.00  0.00    +0.000 A 
ATOM     15  C   UNL     1       2.691   2.426  21.070  0.00  0.00    +0.000 A 
ATOM     16  C   UNL     1       2.129   3.509  21.744  0.00  0.00    +0.000 A 
ATOM     17  C   UNL     1       2.062   4.753  21.116  0.00  0.00    +0.000 A 
ATOM     18  C   UNL     1       2.562   4.918  19.819  0.00  0.00    +0.000 A 
ATOM     19 CL   UNL     1       2.454   6.492  19.112  0.00  0.00    +0.000 Cl
ENDBRANCH   2  13
BRANCH   1  20
ATOM     20  C   UNL     1       5.819   4.767  18.775  0.00  0.00    +0.000 C 
ATOM     21  N   UNL     1       6.456   5.198  19.775  0.00  0.00    +0.000 NA
ENDBRANCH   1  20
BRANCH   2  22
ATOM     22  O   UNL     1       2.826   3.735  16.765  0.00  0.00    +0.000 OA
ATOM     23  H   UNL     1       2.723   2.761  16.665  0.00  0.00    +0.000 HD
ENDBRANCH   2  22
TORSDOF 4
ENDMDL
MODEL 2
REMARK VINA RESULT:      -7.5      1.193      1.565
REMARK  Name = 
REMARK  5 active torsions:
REMARK  status: ('A' for Active; 'I' for Inactive)
REMARK    1  A    between atoms: C_1  and  N_2
REMARK    2  A    between atoms: C_3  and  C_4
REMARK    3  A    between atoms: C_4  and  C_5
REMARK    4  A    between atoms: C_7  and  O_8
REMARK    5  A    between atoms: C_7  and  C_9
REMARK                            x       y       z     vdW  Elec       q    Type
REMARK                         _______ _______ _______ _____ _____    ______ ____
ROOT
ATOM      1  C   UNL     1       5.146   4.236  17.596  0.00  0.00    +0.000 C 
ATOM      2  C   UNL     1       3.846   3.909  17.822  0.00  0.00    +0.000 C 
ENDROOT
BRANCH   1   5
ATOM      3  C   UNL     1       7.203   6.364  16.560  0.00  0.00    +0.000 C 
ATOM      4  N   UNL     1       6.564   5.284  15.838  0.00  0.00    +0.000 N 
ATOM      5  C   UNL     1       5.641   4.341  16.258  0.00  0.00    +0.000 A 
ATOM      6  N   UNL     1       5.345   3.521  15.254  0.00  0.00    +0.000 NA
ATOM      7  C   UNL     1       6.080   3.936  14.174  0.00  0.00    +0.000 A 
ATOM      8  C   UNL     1       6.121   3.433  12.865  0.00  0.00    +0.000 A 
ATOM      9  C   UNL     1       7.004   4.012  11.945  0.00  0.00    +0.000 A 
ATOM     10  C   UNL     1       7.838   5.063  12.322  0.00  0.00    +0.000 A 
ATOM     11  C   UNL     1       7.800   5.585  13.620  0.00  0.00    +0.000 A 
ATOM     12  C   UNL     1       6.891   5.008  14.519  0.00  0.00    +0.000 A 
ENDBRANCH   1   5
BRANCH   2  13
ATOM     13  C   UNL     1       3.267   3.781  19.183  0.00  0.00    +0.000 A 
ATOM     14  C   UNL     1       2.441   4.816  19.651  0.00  0.00    +0.000 A 
ATOM     15  C   UNL     1       1.822   4.734  20.903  0.00  0.00    +0.000 A 
ATOM     16  C   UNL     1       2.020   3.615  21.710  0.00  0.00    +0.000 A 
ATOM     17  C   UNL     1       2.845   2.581  21.265  0.00  0.00    +0.000 A 
ATOM     18  C   UNL     1       3.467   2.661  20.013  0.00  0.00    +0.000 A 
ATOM     19 CL   UNL     1       4.465   1.336  19.527  0.00  0.00    +0.000 Cl
ENDBRANCH   2  13
BRANCH   1  20
ATOM     20  C   UNL     1       5.916   4.774  18.789  0.00  0.00    +0.000 C 
ATOM     21  N   UNL     1       6.557   5.220  19.780  0.00  0.00    +0.000 NA
ENDBRANCH   1  20
BRANCH   2  22
ATOM     22  O   UNL     1       2.919   3.672  16.823  0.00  0.00    +0.000 OA
ATOM     23  H   UNL     1       2.773   2.699  16.782  0.00  0.00    +0.000 HD
ENDBRANCH   2  22
TORSDOF 4
ENDMDL
MODEL 3
REMARK VINA RESULT:      -7.3      1.701      1.923
REMARK  Name = 
REMARK  5 active torsions:
REMARK  status: ('A' for Active; 'I' for Inactive)
REMARK    1  A    between atoms: C_1  and  N_2
REMARK    2  A    between atoms: C_3  and  C_4
REMARK    3  A    between atoms: C_4  and  C_5
REMARK    4  A    between atoms: C_7  and  O_8
REMARK    5  A    between atoms: C_7  and  C_9
REMARK                            x       y       z     vdW  Elec       q    Type
REMARK                         _______ _______ _______ _____ _____    ______ ____
ROOT
ATOM      1  C   UNL     1       4.166   4.525  17.418  0.00  0.00    +0.000 C 
ATOM      2  C   UNL     1       3.722   3.341  17.916  0.00  0.00    +0.000 C 
ENDROOT
BRANCH   1   5
ATOM      3  C   UNL     1       6.732   6.251  16.894  0.00  0.00    +0.000 C 
ATOM      4  N   UNL     1       6.059   5.321  16.011  0.00  0.00    +0.000 N 
ATOM      5  C   UNL     1       4.919   4.560  16.202  0.00  0.00    +0.000 A 
ATOM      6  N   UNL     1       4.678   3.827  15.119  0.00  0.00    +0.000 NA
ATOM      7  C   UNL     1       5.669   4.116  14.218  0.00  0.00    +0.000 A 
ATOM      8  C   UNL     1       5.870   3.637  12.914  0.00  0.00    +0.000 A 
ATOM      9  C   UNL     1       7.002   4.057  12.205  0.00  0.00    +0.000 A 
ATOM     10  C   UNL     1       7.923   4.928  12.785  0.00  0.00    +0.000 A 
ATOM     11  C   UNL     1       7.731   5.424  14.079  0.00  0.00    +0.000 A 
ATOM     12  C   UNL     1       6.578   5.012  14.763  0.00  0.00    +0.000 A 
ENDBRANCH   1   5
BRANCH   2  13
ATOM     13  C   UNL     1       2.937   3.233  19.171  0.00  0.00    +0.000 A 
ATOM     14  C   UNL     1       1.615   3.708  19.169  0.00  0.00    +0.000 A 
ATOM     15  C   UNL     1       0.805   3.589  20.303  0.00  0.00    +0.000 A 
ATOM     16  C   UNL     1       1.303   2.992  21.460  0.00  0.00    +0.000 A 
ATOM     17  C   UNL     1       2.616   2.521  21.483  0.00  0.00    +0.000 A 
ATOM     18  C   UNL     1       3.430   2.642  20.350  0.00  0.00    +0.000 A 
ATOM     19 CL   UNL     1       5.042   2.025  20.453  0.00  0.00    +0.000 Cl
ENDBRANCH   2  13
BRANCH   1  20
ATOM     20  C   UNL     1       3.561   5.776  18.031  0.00  0.00    +0.000 C 
ATOM     21  N   UNL     1       3.058   6.816  18.540  0.00  0.00    +0.000 NA
ENDBRANCH   1  20
BRANCH   2  22
ATOM     22  O   UNL     1       3.936   2.115  17.313  0.00  0.00    +0.000 OA
ATOM     23  H   UNL     1       3.142   1.560  17.486  0.00  0.00    +0.000 HD
ENDBRANCH   2  22
TORSDOF 4
ENDMDL
MODEL 4
REMARK VINA RESULT:      -7.1      1.489      1.522
REMARK  Name = 
REMARK  5 active torsions:
REMARK  status: ('A' for Active; 'I' for Inactive)
REMARK    1  A    between atoms: C_1  and  N_2
REMARK    2  A    between atoms: C_3  and  C_4
REMARK    3  A    between atoms: C_4  and  C_5
REMARK    4  A    between atoms: C_7  and  O_8
REMARK    5  A    between atoms: C_7  and  C_9
REMARK                            x       y       z     vdW  Elec       q    Type
REMARK                         _______ _______ _______ _____ _____    ______ ____
ROOT
ATOM      1  C   UNL     1       4.269   4.408  17.401  0.00  0.00    +0.000 C 
ATOM      2  C   UNL     1       3.864   3.201  17.875  0.00  0.00    +0.000 C 
ENDROOT
BRANCH   1   5
ATOM      3  C   UNL     1       6.785   6.216  16.914  0.00  0.00    +0.000 C 
ATOM      4  N   UNL     1       6.136   5.289  16.010  0.00  0.00    +0.000 N 
ATOM      5  C   UNL     1       5.018   4.492  16.185  0.00  0.00    +0.000 A 
ATOM      6  N   UNL     1       4.795   3.779  15.085  0.00  0.00    +0.000 NA
ATOM      7  C   UNL     1       5.775   4.116  14.189  0.00  0.00    +0.000 A 
ATOM      8  C   UNL     1       5.986   3.674  12.875  0.00  0.00    +0.000 A 
ATOM      9  C   UNL     1       7.105   4.142  12.173  0.00  0.00    +0.000 A 
ATOM     10  C   UNL     1       8.003   5.024  12.772  0.00  0.00    +0.000 A 
ATOM     11  C   UNL     1       7.800   5.484  14.078  0.00  0.00    +0.000 A 
ATOM     12  C   UNL     1       6.661   5.024  14.754  0.00  0.00    +0.000 A 
ENDBRANCH   1   5
BRANCH   2  13
ATOM     13  C   UNL     1       3.086   3.041  19.128  0.00  0.00    +0.000 A 
ATOM     14  C   UNL     1       3.775   2.663  20.293  0.00  0.00    +0.000 A 
ATOM     15  C   UNL     1       3.109   2.545  21.518  0.00  0.00    +0.000 A 
ATOM     16  C   UNL     1       1.742   2.803  21.600  0.00  0.00    +0.000 A 
ATOM     17  C   UNL     1       1.039   3.171  20.451  0.00  0.00    +0.000 A 
ATOM     18  C   UNL     1       1.703   3.287  19.224  0.00  0.00    +0.000 A 
ATOM     19 CL   UNL     1       0.766   3.758  17.848  0.00  0.00    +0.000 Cl
ENDBRANCH   2  13
BRANCH   1  20
ATOM     20  C   UNL     1       3.626   5.626  18.041  0.00  0.00    +0.000 C 
ATOM     21  N   UNL     1       3.091   6.637  18.574  0.00  0.00    +0.000 NA
ENDBRANCH   1  20
BRANCH   2  22
ATOM     22  O   UNL     1       4.116   1.994  17.245  0.00  0.00    +0.000 OA
ATOM     23  H   UNL     1       3.546   1.316  17.674  0.00  0.00    +0.000 HD
ENDBRANCH   2  22
TORSDOF 4
ENDMDL
MODEL 5
REMARK VINA RESULT:      -6.9      4.115      7.326
REMARK  Name = 
REMARK  5 active torsions:
REMARK  status: ('A' for Active; 'I' for Inactive)
REMARK    1  A    between atoms: C_1  and  N_2
REMARK    2  A    between atoms: C_3  and  C_4
REMARK    3  A    between atoms: C_4  and  C_5
REMARK    4  A    between atoms: C_7  and  O_8
REMARK    5  A    between atoms: C_7  and  C_9
REMARK                            x       y       z     vdW  Elec       q    Type
REMARK                         _______ _______ _______ _____ _____    ______ ____
ROOT
ATOM      1  C   UNL     1       2.443   6.441  19.403  0.00  0.00    +0.000 C 
ATOM      2  C   UNL     1       2.069   5.212  19.848  0.00  0.00    +0.000 C 
ENDROOT
BRANCH   1   5
ATOM      3  C   UNL     1       1.784   9.080  17.842  0.00  0.00    +0.000 C 
ATOM      4  N   UNL     1       1.561   8.763  19.238  0.00  0.00    +0.000 N 
ATOM      5  C   UNL     1       1.855   7.620  19.960  0.00  0.00    +0.000 A 
ATOM      6  N   UNL     1       1.448   7.763  21.218  0.00  0.00    +0.000 NA
ATOM      7  C   UNL     1       0.888   9.011  21.312  0.00  0.00    +0.000 A 
ATOM      8  C   UNL     1       0.330   9.667  22.420  0.00  0.00    +0.000 A 
ATOM      9  C   UNL     1      -0.228  10.940  22.243  0.00  0.00    +0.000 A 
ATOM     10  C   UNL     1      -0.242  11.543  20.986  0.00  0.00    +0.000 A 
ATOM     11  C   UNL     1       0.322  10.907  19.875  0.00  0.00    +0.000 A 
ATOM     12  C   UNL     1       0.898   9.645  20.078  0.00  0.00    +0.000 A 
ENDBRANCH   1   5
BRANCH   2  13
ATOM     13  C   UNL     1       2.637   3.949  19.315  0.00  0.00    +0.000 A 
ATOM     14  C   UNL     1       3.612   3.286  20.078  0.00  0.00    +0.000 A 
ATOM     15  C   UNL     1       4.151   2.065  19.657  0.00  0.00    +0.000 A 
ATOM     16  C   UNL     1       3.722   1.485  18.464  0.00  0.00    +0.000 A 
ATOM     17  C   UNL     1       2.761   2.134  17.688  0.00  0.00    +0.000 A 
ATOM     18  C   UNL     1       2.222   3.357  18.106  0.00  0.00    +0.000 A 
ATOM     19 CL   UNL     1       1.028   4.093  17.096  0.00  0.00    +0.000 Cl
ENDBRANCH   2  13
BRANCH   1  20
ATOM     20  C   UNL     1       3.698   6.488  18.549  0.00  0.00    +0.000 C 
ATOM     21  N   UNL     1       4.740   6.528  17.839  0.00  0.00    +0.000 NA
ENDBRANCH   1  20
BRANCH   2  22
ATOM     22  O   UNL     1       1.137   4.998  20.848  0.00  0.00    +0.000 OA
ATOM     23  H   UNL     1       1.137   5.796  21.424  0.00  0.00    +0.000 HD
ENDBRANCH   2  22
TORSDOF 4
ENDMDL
MODEL 6
REMARK VINA RESULT:      -6.8      4.950      6.384
REMARK  Name = 
REMARK  5 active torsions:
REMARK  status: ('A' for Active; 'I' for Inactive)
REMARK    1  A    between atoms: C_1  and  N_2
REMARK    2  A    between atoms: C_3  and  C_4
REMARK    3  A    between atoms: C_4  and  C_5
REMARK    4  A    between atoms: C_7  and  O_8
REMARK    5  A    between atoms: C_7  and  C_9
REMARK                            x       y       z     vdW  Elec       q    Type
REMARK                         _______ _______ _______ _____ _____    ______ ____
ROOT
ATOM      1  C   UNL     1       1.803   8.371  19.046  0.00  0.00    +0.000 C 
ATOM      2  C   UNL     1       1.461   9.547  18.457  0.00  0.00    +0.000 C 
ENDROOT
BRANCH   1   5
ATOM      3  C   UNL     1       1.844   5.252  19.379  0.00  0.00    +0.000 C 
ATOM      4  N   UNL     1       2.679   6.094  18.548  0.00  0.00    +0.000 N 
ATOM      5  C   UNL     1       2.700   7.469  18.391  0.00  0.00    +0.000 A 
ATOM      6  N   UNL     1       3.626   7.808  17.499  0.00  0.00    +0.000 NA
ATOM      7  C   UNL     1       4.211   6.644  17.075  0.00  0.00    +0.000 A 
ATOM      8  C   UNL     1       5.256   6.441  16.161  0.00  0.00    +0.000 A 
ATOM      9  C   UNL     1       5.646   5.130  15.858  0.00  0.00    +0.000 A 
ATOM     10  C   UNL     1       5.002   4.042  16.444  0.00  0.00    +0.000 A 
ATOM     11  C   UNL     1       3.967   4.228  17.367  0.00  0.00    +0.000 A 
ATOM     12  C   UNL     1       3.609   5.548  17.677  0.00  0.00    +0.000 A 
ENDBRANCH   1   5
BRANCH   2  13
ATOM     13  C   UNL     1       0.536  10.527  19.079  0.00  0.00    +0.000 A 
ATOM     14  C   UNL     1       1.033  11.350  20.103  0.00  0.00    +0.000 A 
ATOM     15  C   UNL     1       0.228  12.329  20.695  0.00  0.00    +0.000 A 
ATOM     16  C   UNL     1      -1.089  12.502  20.273  0.00  0.00    +0.000 A 
ATOM     17  C   UNL     1      -1.603  11.688  19.263  0.00  0.00    +0.000 A 
ATOM     18  C   UNL     1      -0.800  10.705  18.670  0.00  0.00    +0.000 A 
ATOM     19 CL   UNL     1      -1.504   9.743  17.418  0.00  0.00    +0.000 Cl
ENDBRANCH   2  13
BRANCH   1  20
ATOM     20  C   UNL     1       1.444   8.231  20.516  0.00  0.00    +0.000 C 
ATOM     21  N   UNL     1       1.146   8.114  21.736  0.00  0.00    +0.000 NA
ENDBRANCH   1  20
BRANCH   2  22
ATOM     22  O   UNL     1       1.941   9.970  17.230  0.00  0.00    +0.000 OA
ATOM     23  H   UNL     1       2.889  10.205  17.351  0.00  0.00    +0.000 HD
ENDBRANCH   2  22
TORSDOF 4
ENDMDL
MODEL 7
REMARK VINA RESULT:      -6.8      4.555      8.163
REMARK  Name = 
REMARK  5 active torsions:
REMARK  status: ('A' for Active; 'I' for Inactive)
REMARK    1  A    between atoms: C_1  and  N_2
REMARK    2  A    between atoms: C_3  and  C_4
REMARK    3  A    between atoms: C_4  and  C_5
REMARK    4  A    between atoms: C_7  and  O_8
REMARK    5  A    between atoms: C_7  and  C_9
REMARK                            x       y       z     vdW  Elec       q    Type
REMARK                         _______ _______ _______ _____ _____    ______ ____
ROOT
ATOM      1  C   UNL     1       2.203   7.519  19.299  0.00  0.00    +0.000 C 
ATOM      2  C   UNL     1       2.605   6.306  19.762  0.00  0.00    +0.000 C 
ENDROOT
BRANCH   1   5
ATOM      3  C   UNL     1       0.639  10.066  18.350  0.00  0.00    +0.000 C 
ATOM      4  N   UNL     1       0.747   9.501  19.679  0.00  0.00    +0.000 N 
ATOM      5  C   UNL     1       1.440   8.394  20.135  0.00  0.00    +0.000 A 
ATOM      6  N   UNL     1       1.233   8.235  21.439  0.00  0.00    +0.000 NA
ATOM      7  C   UNL     1       0.399   9.250  21.832  0.00  0.00    +0.000 A 
ATOM      8  C   UNL     1      -0.108   9.557  23.104  0.00  0.00    +0.000 A 
ATOM      9  C   UNL     1      -0.992  10.636  23.237  0.00  0.00    +0.000 A 
ATOM     10  C   UNL     1      -1.374  11.386  22.126  0.00  0.00    +0.000 A 
ATOM     11  C   UNL     1      -0.868  11.099  20.854  0.00  0.00    +0.000 A 
ATOM     12  C   UNL     1       0.037  10.033  20.745  0.00  0.00    +0.000 A 
ENDBRANCH   1   5
BRANCH   2  13
ATOM     13  C   UNL     1       3.397   5.349  18.949  0.00  0.00    +0.000 A 
ATOM     14  C   UNL     1       4.779   5.261  19.189  0.00  0.00    +0.000 A 
ATOM     15  C   UNL     1       5.574   4.344  18.494  0.00  0.00    +0.000 A 
ATOM     16  C   UNL     1       5.001   3.497  17.546  0.00  0.00    +0.000 A 
ATOM     17  C   UNL     1       3.632   3.576  17.289  0.00  0.00    +0.000 A 
ATOM     18  C   UNL     1       2.834   4.495  17.981  0.00  0.00    +0.000 A 
ATOM     19 CL   UNL     1       1.145   4.526  17.615  0.00  0.00    +0.000 Cl
ENDBRANCH   2  13
BRANCH   1  20
ATOM     20  C   UNL     1       2.863   7.995  18.016  0.00  0.00    +0.000 C 
ATOM     21  N   UNL     1       3.411   8.391  16.951  0.00  0.00    +0.000 NA
ENDBRANCH   1  20
BRANCH   2  22
ATOM     22  O   UNL     1       2.338   5.832  21.034  0.00  0.00    +0.000 OA
ATOM     23  H   UNL     1       1.790   5.020  20.935  0.00  0.00    +0.000 HD
ENDBRANCH   2  22
TORSDOF 4
ENDMDL
MODEL 8
REMARK VINA RESULT:      -6.6      3.690      7.500
REMARK  Name = 
REMARK  5 active torsions:
REMARK  status: ('A' for Active; 'I' for Inactive)
REMARK    1  A    between atoms: C_1  and  N_2
REMARK    2  A    between atoms: C_3  and  C_4
REMARK    3  A    between atoms: C_4  and  C_5
REMARK    4  A    between atoms: C_7  and  O_8
REMARK    5  A    between atoms: C_7  and  C_9
REMARK                            x       y       z     vdW  Elec       q    Type
REMARK                         _______ _______ _______ _____ _____    ______ ____
ROOT
ATOM      1  C   UNL     1       3.263   6.368  18.137  0.00  0.00    +0.000 C 
ATOM      2  C   UNL     1       4.380   6.812  17.502  0.00  0.00    +0.000 C 
ENDROOT
BRANCH   1   5
ATOM      3  C   UNL     1       1.842   5.856  20.885  0.00  0.00    +0.000 C 
ATOM      4  N   UNL     1       1.810   7.035  20.044  0.00  0.00    +0.000 N 
ATOM      5  C   UNL     1       2.408   7.287  18.822  0.00  0.00    +0.000 A 
ATOM      6  N   UNL     1       2.121   8.523  18.425  0.00  0.00    +0.000 NA
ATOM      7  C   UNL     1       1.330   9.077  19.397  0.00  0.00    +0.000 A 
ATOM      8  C   UNL     1       0.735  10.346  19.460  0.00  0.00    +0.000 A 
ATOM      9  C   UNL     1      -0.001  10.693  20.601  0.00  0.00    +0.000 A 
ATOM     10  C   UNL     1      -0.132   9.800  21.663  0.00  0.00    +0.000 A 
ATOM     11  C   UNL     1       0.445   8.526  21.610  0.00  0.00    +0.000 A 
ATOM     12  C   UNL     1       1.155   8.188  20.449  0.00  0.00    +0.000 A 
ENDBRANCH   1   5
BRANCH   2  13
ATOM     13  C   UNL     1       5.310   5.915  16.773  0.00  0.00    +0.000 A 
ATOM     14  C   UNL     1       5.201   5.840  15.375  0.00  0.00    +0.000 A 
ATOM     15  C   UNL     1       6.080   5.053  14.624  0.00  0.00    +0.000 A 
ATOM     16  C   UNL     1       7.086   4.326  15.259  0.00  0.00    +0.000 A 
ATOM     17  C   UNL     1       7.205   4.382  16.648  0.00  0.00    +0.000 A 
ATOM     18  C   UNL     1       6.324   5.167  17.402  0.00  0.00    +0.000 A 
ATOM     19 CL   UNL     1       6.542   5.192  19.117  0.00  0.00    +0.000 Cl
ENDBRANCH   2  13
BRANCH   1  20
ATOM     20  C   UNL     1       2.830   4.949  17.810  0.00  0.00    +0.000 C 
ATOM     21  N   UNL     1       2.471   3.770  17.540  0.00  0.00    +0.000 NA
ENDBRANCH   1  20
BRANCH   2  22
ATOM     22  O   UNL     1       4.768   8.140  17.450  0.00  0.00    +0.000 OA
ATOM     23  H   UNL     1       5.750   8.155  17.380  0.00  0.00    +0.000 HD
ENDBRANCH   2  22
TORSDOF 4
ENDMDL
MODEL 9
REMARK VINA RESULT:      -6.5      6.257      8.258
REMARK  Name = 
REMARK  5 active torsions:
REMARK  status: ('A' for Active; 'I' for Inactive)
REMARK    1  A    between atoms: C_1  and  N_2
REMARK    2  A    between atoms: C_3  and  C_4
REMARK    3  A    between atoms: C_4  and  C_5
REMARK    4  A    between atoms: C_7  and  O_8
REMARK    5  A    between atoms: C_7  and  C_9
REMARK                            x       y       z     vdW  Elec       q    Type
REMARK                         _______ _______ _______ _____ _____    ______ ____
ROOT
ATOM      1  C   UNL     1       0.448   9.615  20.363  0.00  0.00    +0.000 C 
ATOM      2  C   UNL     1       0.547  10.143  21.611  0.00  0.00    +0.000 C 
ENDROOT
BRANCH   1   5
ATOM      3  C   UNL     1       2.157   9.252  17.758  0.00  0.00    +0.000 C 
ATOM      4  N   UNL     1       1.959   8.330  18.858  0.00  0.00    +0.000 N 
ATOM      5  C   UNL     1       1.200   8.450  20.009  0.00  0.00    +0.000 A 
ATOM      6  N   UNL     1       1.333   7.357  20.755  0.00  0.00    +0.000 NA
ATOM      7  C   UNL     1       2.184   6.521  20.081  0.00  0.00    +0.000 A 
ATOM      8  C   UNL     1       2.637   5.235  20.415  0.00  0.00    +0.000 A 
ATOM      9  C   UNL     1       3.554   4.599  19.569  0.00  0.00    +0.000 A 
ATOM     10  C   UNL     1       4.022   5.234  18.420  0.00  0.00    +0.000 A 
ATOM     11  C   UNL     1       3.571   6.510  18.066  0.00  0.00    +0.000 A 
ATOM     12  C   UNL     1       2.633   7.120  18.912  0.00  0.00    +0.000 A 
ENDBRANCH   1   5
BRANCH   2  13
ATOM     13  C   UNL     1      -0.203  11.348  22.044  0.00  0.00    +0.000 A 
ATOM     14  C   UNL     1      -1.322  11.169  22.874  0.00  0.00    +0.000 A 
ATOM     15  C   UNL     1      -2.042  12.266  23.360  0.00  0.00    +0.000 A 
ATOM     16  C   UNL     1      -1.656  13.562  23.023  0.00  0.00    +0.000 A 
ATOM     17  C   UNL     1      -0.552  13.759  22.192  0.00  0.00    +0.000 A 
ATOM     18  C   UNL     1       0.169  12.662  21.703  0.00  0.00    +0.000 A 
ATOM     19 CL   UNL     1       1.531  12.987  20.688  0.00  0.00    +0.000 Cl
ENDBRANCH   2  13
BRANCH   1  20
ATOM     20  C   UNL     1      -0.704  10.123  19.513  0.00  0.00    +0.000 C 
ATOM     21  N   UNL     1      -1.661  10.546  18.807  0.00  0.00    +0.000 NA
ENDBRANCH   1  20
BRANCH   2  22
ATOM     22  O   UNL     1       1.339   9.617  22.616  0.00  0.00    +0.000 OA
ATOM     23  H   UNL     1       0.843   8.868  23.018  0.00  0.00    +0.000 HD
ENDBRANCH   2  22
TORSDOF 4
ENDMDL
