MODEL 1
REMARK VINA RESULT:      -9.1      0.000      0.000
REMARK  Name = 
REMARK  7 active torsions:
REMARK  status: ('A' for Active; 'I' for Inactive)
REMARK    1  A    between atoms: C_1  and  O_2
REMARK    2  A    between atoms: O_2  and  C_3
REMARK    3  A    between atoms: C_6  and  N_7
REMARK    4  A    between atoms: C_8  and  C_10
REMARK    5  A    between atoms: C_13  and  C_14
REMARK    6  A    between atoms: C_23  and  S_24
REMARK    7  A    between atoms: S_24  and  N_27
REMARK                            x       y       z     vdW  Elec       q    Type
REMARK                         _______ _______ _______ _____ _____    ______ ____
ROOT
ATOM      1  C   UNL     1       3.451   3.505  19.630  0.00  0.00    +0.000 A 
ATOM      2  C   UNL     1       2.147   3.369  20.101  0.00  0.00    +0.000 A 
ATOM      3  C   UNL     1       1.430   4.519  20.497  0.00  0.00    +0.000 A 
ATOM      4  C   UNL     1       2.007   5.799  20.466  0.00  0.00    +0.000 A 
ATOM      5  C   UNL     1       3.293   5.939  19.935  0.00  0.00    +0.000 A 
ATOM      6  C   UNL     1       4.004   4.792  19.509  0.00  0.00    +0.000 A 
ENDROOT
BRANCH   4   7
ATOM      7  N   UNL     1       1.335   6.955  20.967  0.00  0.00    +0.000 N 
ATOM      8  C   UNL     1       1.275   8.175  20.308  0.00  0.00    +0.000 C 
ATOM      9  O   UNL     1       1.790   8.409  19.212  0.00  0.00    +0.000 OA
ATOM     10  H   UNL     1       0.772   6.836  21.796  0.00  0.00    +0.000 HD
BRANCH   8  11
ATOM     11  C   UNL     1       0.534   9.294  20.945  0.00  0.00    +0.000 A 
ATOM     12  C   UNL     1       0.223   9.159  22.304  0.00  0.00    +0.000 A 
ATOM     13  C   UNL     1      -0.490  10.144  22.985  0.00  0.00    +0.000 A 
ATOM     14  C   UNL     1      -0.885  11.333  22.332  0.00  0.00    +0.000 A 
ATOM     15  C   UNL     1      -0.511  11.477  20.979  0.00  0.00    +0.000 A 
ATOM     16  C   UNL     1       0.184  10.471  20.287  0.00  0.00    +0.000 A 
BRANCH  14  17
ATOM     17  C   UNL     1      -1.651  12.366  23.056  0.00  0.00    +0.000 A 
ATOM     18  C   UNL     1      -1.089  13.617  23.370  0.00  0.00    +0.000 A 
ATOM     19  C   UNL     1      -1.807  14.582  24.087  0.00  0.00    +0.000 A 
ATOM     20  C   UNL     1      -3.113  14.320  24.484  0.00  0.00    +0.000 A 
ATOM     21  C   UNL     1      -3.698  13.097  24.176  0.00  0.00    +0.000 A 
ATOM     22  C   UNL     1      -2.970  12.128  23.474  0.00  0.00    +0.000 A 
ENDBRANCH  14  17
ENDBRANCH   8  11
ENDBRANCH   4   7
BRANCH   6  23
ATOM     23  S   UNL     1       5.665   4.880  18.892  0.00  0.00    +0.000 S 
ATOM     24  O   UNL     1       6.458   5.376  19.991  0.00  0.00    +0.000 OA
ATOM     25  O   UNL     1       5.986   3.636  18.213  0.00  0.00    +0.000 OA
BRANCH  23  26
ATOM     26  N   UNL     1       5.707   6.062  17.665  0.00  0.00    +0.000 NA
ATOM     27  C   UNL     1       4.677   5.974  16.584  0.00  0.00    +0.000 C 
ATOM     28  C   UNL     1       5.116   5.158  15.361  0.00  0.00    +0.000 C 
ATOM     29  O   UNL     1       6.395   5.559  14.868  0.00  0.00    +0.000 OA
ATOM     30  C   UNL     1       7.408   5.462  15.866  0.00  0.00    +0.000 C 
ATOM     31  C   UNL     1       7.087   6.289  17.115  0.00  0.00    +0.000 C 
ENDBRANCH  23  26
ENDBRANCH   6  23
BRANCH   1  33
ATOM     32  C   UNL     1       3.403   1.412  18.402  0.00  0.00    +0.000 C 
ATOM     33  O   UNL     1       4.114   2.468  19.038  0.00  0.00    +0.000 OA
ENDBRANCH   1  33
TORSDOF 6
ENDMDL
MODEL 2
REMARK VINA RESULT:      -9.1      0.662      1.115
REMARK  Name = 
REMARK  7 active torsions:
REMARK  status: ('A' for Active; 'I' for Inactive)
REMARK    1  A    between atoms: C_1  and  O_2
REMARK    2  A    between atoms: O_2  and  C_3
REMARK    3  A    between atoms: C_6  and  N_7
REMARK    4  A    between atoms: C_8  and  C_10
REMARK    5  A    between atoms: C_13  and  C_14
REMARK    6  A    between atoms: C_23  and  S_24
REMARK    7  A    between atoms: S_24  and  N_27
REMARK                            x       y       z     vdW  Elec       q    Type
REMARK                         _______ _______ _______ _____ _____    ______ ____
ROOT
ATOM      1  C   UNL     1       3.595   3.693  19.594  0.00  0.00    +0.000 A 
ATOM      2  C   UNL     1       2.332   3.494  20.148  0.00  0.00    +0.000 A 
ATOM      3  C   UNL     1       1.570   4.610  20.554  0.00  0.00    +0.000 A 
ATOM      4  C   UNL     1       2.062   5.921  20.450  0.00  0.00    +0.000 A 
ATOM      5  C   UNL     1       3.303   6.121  19.836  0.00  0.00    +0.000 A 
ATOM      6  C   UNL     1       4.058   5.006  19.400  0.00  0.00    +0.000 A 
ENDROOT
BRANCH   4   7
ATOM      7  N   UNL     1       1.351   7.051  20.957  0.00  0.00    +0.000 N 
ATOM      8  C   UNL     1       1.244   8.270  20.303  0.00  0.00    +0.000 C 
ATOM      9  O   UNL     1       1.746   8.526  19.206  0.00  0.00    +0.000 OA
ATOM     10  H   UNL     1       0.795   6.908  21.787  0.00  0.00    +0.000 HD
BRANCH   8  11
ATOM     11  C   UNL     1       0.466   9.358  20.946  0.00  0.00    +0.000 A 
ATOM     12  C   UNL     1       0.326   9.303  22.339  0.00  0.00    +0.000 A 
ATOM     13  C   UNL     1      -0.406  10.267  23.032  0.00  0.00    +0.000 A 
ATOM     14  C   UNL     1      -0.996  11.355  22.352  0.00  0.00    +0.000 A 
ATOM     15  C   UNL     1      -0.795  11.425  20.957  0.00  0.00    +0.000 A 
ATOM     16  C   UNL     1      -0.081  10.439  20.256  0.00  0.00    +0.000 A 
BRANCH  14  17
ATOM     17  C   UNL     1      -1.780  12.363  23.090  0.00  0.00    +0.000 A 
ATOM     18  C   UNL     1      -1.243  13.621  23.418  0.00  0.00    +0.000 A 
ATOM     19  C   UNL     1      -1.979  14.563  24.149  0.00  0.00    +0.000 A 
ATOM     20  C   UNL     1      -3.277  14.270  24.546  0.00  0.00    +0.000 A 
ATOM     21  C   UNL     1      -3.838  13.039  24.225  0.00  0.00    +0.000 A 
ATOM     22  C   UNL     1      -3.093  12.093  23.509  0.00  0.00    +0.000 A 
ENDBRANCH  14  17
ENDBRANCH   8  11
ENDBRANCH   4   7
BRANCH   6  23
ATOM     23  S   UNL     1       5.669   5.174  18.679  0.00  0.00    +0.000 S 
ATOM     24  O   UNL     1       5.818   6.581  18.390  0.00  0.00    +0.000 OA
ATOM     25  O   UNL     1       6.632   4.452  19.493  0.00  0.00    +0.000 OA
BRANCH  23  26
ATOM     26  N   UNL     1       5.665   4.350  17.187  0.00  0.00    +0.000 NA
ATOM     27  C   UNL     1       6.986   4.108  16.527  0.00  0.00    +0.000 C 
ATOM     28  C   UNL     1       7.411   5.209  15.547  0.00  0.00    +0.000 C 
ATOM     29  O   UNL     1       6.383   5.534  14.611  0.00  0.00    +0.000 OA
ATOM     30  C   UNL     1       5.179   5.941  15.258  0.00  0.00    +0.000 C 
ATOM     31  C   UNL     1       4.641   4.882  16.224  0.00  0.00    +0.000 C 
ENDBRANCH  23  26
ENDBRANCH   6  23
BRANCH   1  33
ATOM     32  C   UNL     1       3.618   1.502  18.547  0.00  0.00    +0.000 C 
ATOM     33  O   UNL     1       4.285   2.678  18.992  0.00  0.00    +0.000 OA
ENDBRANCH   1  33
TORSDOF 6
ENDMDL
MODEL 3
REMARK VINA RESULT:      -9.0      2.912      3.742
REMARK  Name = 
REMARK  7 active torsions:
REMARK  status: ('A' for Active; 'I' for Inactive)
REMARK    1  A    between atoms: C_1  and  O_2
REMARK    2  A    between atoms: O_2  and  C_3
REMARK    3  A    between atoms: C_6  and  N_7
REMARK    4  A    between atoms: C_8  and  C_10
REMARK    5  A    between atoms: C_13  and  C_14
REMARK    6  A    between atoms: C_23  and  S_24
REMARK    7  A    between atoms: S_24  and  N_27
REMARK                            x       y       z     vdW  Elec       q    Type
REMARK                         _______ _______ _______ _____ _____    ______ ____
ROOT
ATOM      1  C   UNL     1       2.729   4.357  19.968  0.00  0.00    +0.000 A 
ATOM      2  C   UNL     1       1.778   4.912  20.822  0.00  0.00    +0.000 A 
ATOM      3  C   UNL     1       1.466   6.284  20.713  0.00  0.00    +0.000 A 
ATOM      4  C   UNL     1       2.114   7.120  19.789  0.00  0.00    +0.000 A 
ATOM      5  C   UNL     1       3.021   6.547  18.892  0.00  0.00    +0.000 A 
ATOM      6  C   UNL     1       3.315   5.166  18.978  0.00  0.00    +0.000 A 
ENDROOT
BRANCH   4   7
ATOM      7  N   UNL     1       1.889   8.530  19.741  0.00  0.00    +0.000 N 
ATOM      8  C   UNL     1       1.512   9.226  18.603  0.00  0.00    +0.000 C 
ATOM      9  O   UNL     1       1.320   8.716  17.496  0.00  0.00    +0.000 OA
ATOM     10  H   UNL     1       1.893   9.025  20.621  0.00  0.00    +0.000 HD
BRANCH   8  11
ATOM     11  C   UNL     1       1.307  10.694  18.699  0.00  0.00    +0.000 A 
ATOM     12  C   UNL     1       2.257  11.512  18.073  0.00  0.00    +0.000 A 
ATOM     13  C   UNL     1       2.164  12.901  18.127  0.00  0.00    +0.000 A 
ATOM     14  C   UNL     1       1.081  13.529  18.782  0.00  0.00    +0.000 A 
ATOM     15  C   UNL     1       0.104  12.689  19.356  0.00  0.00    +0.000 A 
ATOM     16  C   UNL     1       0.213  11.289  19.325  0.00  0.00    +0.000 A 
BRANCH  14  17
ATOM     17  C   UNL     1       0.997  15.001  18.846  0.00  0.00    +0.000 A 
ATOM     18  C   UNL     1      -0.216  15.681  18.636  0.00  0.00    +0.000 A 
ATOM     19  C   UNL     1      -0.286  17.080  18.665  0.00  0.00    +0.000 A 
ATOM     20  C   UNL     1       0.857  17.824  18.928  0.00  0.00    +0.000 A 
ATOM     21  C   UNL     1       2.068  17.179  19.152  0.00  0.00    +0.000 A 
ATOM     22  C   UNL     1       2.136  15.780  19.105  0.00  0.00    +0.000 A 
ENDBRANCH  14  17
ENDBRANCH   8  11
ENDBRANCH   4   7
BRANCH   6  23
ATOM     23  S   UNL     1       4.506   4.381  17.924  0.00  0.00    +0.000 S 
ATOM     24  O   UNL     1       5.667   4.159  18.754  0.00  0.00    +0.000 OA
ATOM     25  O   UNL     1       3.861   3.298  17.202  0.00  0.00    +0.000 OA
BRANCH  23  26
ATOM     26  N   UNL     1       4.954   5.497  16.717  0.00  0.00    +0.000 NA
ATOM     27  C   UNL     1       5.436   4.947  15.412  0.00  0.00    +0.000 C 
ATOM     28  C   UNL     1       6.955   4.750  15.335  0.00  0.00    +0.000 C 
ATOM     29  O   UNL     1       7.678   5.912  15.739  0.00  0.00    +0.000 OA
ATOM     30  C   UNL     1       7.339   6.320  17.063  0.00  0.00    +0.000 C 
ATOM     31  C   UNL     1       5.842   6.594  17.231  0.00  0.00    +0.000 C 
ENDBRANCH  23  26
ENDBRANCH   6  23
BRANCH   1  33
ATOM     32  C   UNL     1       1.811   2.118  19.777  0.00  0.00    +0.000 C 
ATOM     33  O   UNL     1       2.917   3.006  19.882  0.00  0.00    +0.000 OA
ENDBRANCH   1  33
TORSDOF 6
ENDMDL
MODEL 4
REMARK VINA RESULT:      -9.0      0.588      1.115
REMARK  Name = 
REMARK  7 active torsions:
REMARK  status: ('A' for Active; 'I' for Inactive)
REMARK    1  A    between atoms: C_1  and  O_2
REMARK    2  A    between atoms: O_2  and  C_3
REMARK    3  A    between atoms: C_6  and  N_7
REMARK    4  A    between atoms: C_8  and  C_10
REMARK    5  A    between atoms: C_13  and  C_14
REMARK    6  A    between atoms: C_23  and  S_24
REMARK    7  A    between atoms: S_24  and  N_27
REMARK                            x       y       z     vdW  Elec       q    Type
REMARK                         _______ _______ _______ _____ _____    ______ ____
ROOT
ATOM      1  C   UNL     1       3.233   3.399  19.843  0.00  0.00    +0.000 A 
ATOM      2  C   UNL     1       1.947   3.259  20.363  0.00  0.00    +0.000 A 
ATOM      3  C   UNL     1       1.218   4.411  20.728  0.00  0.00    +0.000 A 
ATOM      4  C   UNL     1       1.766   5.700  20.618  0.00  0.00    +0.000 A 
ATOM      5  C   UNL     1       3.031   5.841  20.038  0.00  0.00    +0.000 A 
ATOM      6  C   UNL     1       3.753   4.690  19.643  0.00  0.00    +0.000 A 
ENDROOT
BRANCH   4   7
ATOM      7  N   UNL     1       1.085   6.865  21.086  0.00  0.00    +0.000 N 
ATOM      8  C   UNL     1       1.171   8.116  20.492  0.00  0.00    +0.000 C 
ATOM      9  O   UNL     1       1.840   8.374  19.489  0.00  0.00    +0.000 OA
ATOM     10  H   UNL     1       0.409   6.736  21.824  0.00  0.00    +0.000 HD
BRANCH   8  11
ATOM     11  C   UNL     1       0.401   9.240  21.083  0.00  0.00    +0.000 A 
ATOM     12  C   UNL     1       0.320   9.290  22.480  0.00  0.00    +0.000 A 
ATOM     13  C   UNL     1      -0.399  10.294  23.128  0.00  0.00    +0.000 A 
ATOM     14  C   UNL     1      -1.033  11.319  22.393  0.00  0.00    +0.000 A 
ATOM     15  C   UNL     1      -0.891  11.285  20.990  0.00  0.00    +0.000 A 
ATOM     16  C   UNL     1      -0.190  10.258  20.336  0.00  0.00    +0.000 A 
BRANCH  14  17
ATOM     17  C   UNL     1      -1.803  12.370  23.086  0.00  0.00    +0.000 A 
ATOM     18  C   UNL     1      -3.178  12.229  23.345  0.00  0.00    +0.000 A 
ATOM     19  C   UNL     1      -3.914  13.243  23.973  0.00  0.00    +0.000 A 
ATOM     20  C   UNL     1      -3.278  14.411  24.373  0.00  0.00    +0.000 A 
ATOM     21  C   UNL     1      -1.916  14.573  24.141  0.00  0.00    +0.000 A 
ATOM     22  C   UNL     1      -1.189  13.564  23.498  0.00  0.00    +0.000 A 
ENDBRANCH  14  17
ENDBRANCH   8  11
ENDBRANCH   4   7
BRANCH   6  23
ATOM     23  S   UNL     1       5.390   4.783  18.967  0.00  0.00    +0.000 S 
ATOM     24  O   UNL     1       6.058   5.821  19.716  0.00  0.00    +0.000 OA
ATOM     25  O   UNL     1       5.937   3.441  18.861  0.00  0.00    +0.000 OA
BRANCH  23  26
ATOM     26  N   UNL     1       5.264   5.324  17.356  0.00  0.00    +0.000 NA
ATOM     27  C   UNL     1       5.595   4.349  16.271  0.00  0.00    +0.000 C 
ATOM     28  C   UNL     1       7.062   4.380  15.823  0.00  0.00    +0.000 C 
ATOM     29  O   UNL     1       7.515   5.702  15.528  0.00  0.00    +0.000 OA
ATOM     30  C   UNL     1       7.360   6.581  16.640  0.00  0.00    +0.000 C 
ATOM     31  C   UNL     1       5.913   6.661  17.133  0.00  0.00    +0.000 C 
ENDBRANCH  23  26
ENDBRANCH   6  23
BRANCH   1  33
ATOM     32  C   UNL     1       3.287   1.548  18.274  0.00  0.00    +0.000 C 
ATOM     33  O   UNL     1       3.899   2.348  19.278  0.00  0.00    +0.000 OA
ENDBRANCH   1  33
TORSDOF 6
ENDMDL
MODEL 5
REMARK VINA RESULT:      -8.9      2.970      3.729
REMARK  Name = 
REMARK  7 active torsions:
REMARK  status: ('A' for Active; 'I' for Inactive)
REMARK    1  A    between atoms: C_1  and  O_2
REMARK    2  A    between atoms: O_2  and  C_3
REMARK    3  A    between atoms: C_6  and  N_7
REMARK    4  A    between atoms: C_8  and  C_10
REMARK    5  A    between atoms: C_13  and  C_14
REMARK    6  A    between atoms: C_23  and  S_24
REMARK    7  A    between atoms: S_24  and  N_27
REMARK                            x       y       z     vdW  Elec       q    Type
REMARK                         _______ _______ _______ _____ _____    ______ ____
ROOT
ATOM      1  C   UNL     1       2.578   4.238  20.226  0.00  0.00    +0.000 A 
ATOM      2  C   UNL     1       1.609   4.850  21.018  0.00  0.00    +0.000 A 
ATOM      3  C   UNL     1       1.331   6.222  20.837  0.00  0.00    +0.000 A 
ATOM      4  C   UNL     1       2.032   7.002  19.903  0.00  0.00    +0.000 A 
ATOM      5  C   UNL     1       2.959   6.371  19.067  0.00  0.00    +0.000 A 
ATOM      6  C   UNL     1       3.218   4.989  19.225  0.00  0.00    +0.000 A 
ENDROOT
BRANCH   4   7
ATOM      7  N   UNL     1       1.840   8.412  19.785  0.00  0.00    +0.000 N 
ATOM      8  C   UNL     1       1.506   9.064  18.607  0.00  0.00    +0.000 C 
ATOM      9  O   UNL     1       1.330   8.507  17.520  0.00  0.00    +0.000 OA
ATOM     10  H   UNL     1       1.834   8.948  20.641  0.00  0.00    +0.000 HD
BRANCH   8  11
ATOM     11  C   UNL     1       1.332  10.538  18.631  0.00  0.00    +0.000 A 
ATOM     12  C   UNL     1       2.400  11.313  18.159  0.00  0.00    +0.000 A 
ATOM     13  C   UNL     1       2.341  12.706  18.162  0.00  0.00    +0.000 A 
ATOM     14  C   UNL     1       1.182  13.380  18.605  0.00  0.00    +0.000 A 
ATOM     15  C   UNL     1       0.095  12.582  19.022  0.00  0.00    +0.000 A 
ATOM     16  C   UNL     1       0.165  11.179  19.044  0.00  0.00    +0.000 A 
BRANCH  14  17
ATOM     17  C   UNL     1       1.132  14.855  18.619  0.00  0.00    +0.000 A 
ATOM     18  C   UNL     1       2.301  15.633  18.552  0.00  0.00    +0.000 A 
ATOM     19  C   UNL     1       2.253  17.032  18.599  0.00  0.00    +0.000 A 
ATOM     20  C   UNL     1       1.028  17.679  18.691  0.00  0.00    +0.000 A 
ATOM     21  C   UNL     1      -0.146  16.936  18.745  0.00  0.00    +0.000 A 
ATOM     22  C   UNL     1      -0.092  15.536  18.716  0.00  0.00    +0.000 A 
ENDBRANCH  14  17
ENDBRANCH   8  11
ENDBRANCH   4   7
BRANCH   6  23
ATOM     23  S   UNL     1       4.431   4.135  18.252  0.00  0.00    +0.000 S 
ATOM     24  O   UNL     1       5.310   3.499  19.205  0.00  0.00    +0.000 OA
ATOM     25  O   UNL     1       3.758   3.381  17.209  0.00  0.00    +0.000 OA
BRANCH  23  26
ATOM     26  N   UNL     1       5.350   5.301  17.416  0.00  0.00    +0.000 NA
ATOM     27  C   UNL     1       5.346   5.242  15.921  0.00  0.00    +0.000 C 
ATOM     28  C   UNL     1       6.477   4.396  15.322  0.00  0.00    +0.000 C 
ATOM     29  O   UNL     1       7.757   4.739  15.853  0.00  0.00    +0.000 OA
ATOM     30  C   UNL     1       7.798   4.613  17.273  0.00  0.00    +0.000 C 
ATOM     31  C   UNL     1       6.736   5.466  17.973  0.00  0.00    +0.000 C 
ENDBRANCH  23  26
ENDBRANCH   6  23
BRANCH   1  33
ATOM     32  C   UNL     1       1.741   2.032  19.652  0.00  0.00    +0.000 C 
ATOM     33  O   UNL     1       2.740   2.881  20.206  0.00  0.00    +0.000 OA
ENDBRANCH   1  33
TORSDOF 6
ENDMDL
MODEL 6
REMARK VINA RESULT:      -8.8      0.369      1.253
REMARK  Name = 
REMARK  7 active torsions:
REMARK  status: ('A' for Active; 'I' for Inactive)
REMARK    1  A    between atoms: C_1  and  O_2
REMARK    2  A    between atoms: O_2  and  C_3
REMARK    3  A    between atoms: C_6  and  N_7
REMARK    4  A    between atoms: C_8  and  C_10
REMARK    5  A    between atoms: C_13  and  C_14
REMARK    6  A    between atoms: C_23  and  S_24
REMARK    7  A    between atoms: S_24  and  N_27
REMARK                            x       y       z     vdW  Elec       q    Type
REMARK                         _______ _______ _______ _____ _____    ______ ____
ROOT
ATOM      1  C   UNL     1       3.423   3.563  19.416  0.00  0.00    +0.000 A 
ATOM      2  C   UNL     1       2.107   3.386  19.839  0.00  0.00    +0.000 A 
ATOM      3  C   UNL     1       1.385   4.491  20.337  0.00  0.00    +0.000 A 
ATOM      4  C   UNL     1       1.966   5.764  20.454  0.00  0.00    +0.000 A 
ATOM      5  C   UNL     1       3.265   5.952  19.970  0.00  0.00    +0.000 A 
ATOM      6  C   UNL     1       3.983   4.852  19.443  0.00  0.00    +0.000 A 
ENDROOT
BRANCH   4   7
ATOM      7  N   UNL     1       1.286   6.866  21.056  0.00  0.00    +0.000 N 
ATOM      8  C   UNL     1       1.196   8.133  20.499  0.00  0.00    +0.000 C 
ATOM      9  O   UNL     1       1.687   8.463  19.417  0.00  0.00    +0.000 OA
ATOM     10  H   UNL     1       0.739   6.671  21.882  0.00  0.00    +0.000 HD
BRANCH   8  11
ATOM     11  C   UNL     1       0.450   9.185  21.236  0.00  0.00    +0.000 A 
ATOM     12  C   UNL     1      -0.107  10.221  20.474  0.00  0.00    +0.000 A 
ATOM     13  C   UNL     1      -0.806  11.266  21.076  0.00  0.00    +0.000 A 
ATOM     14  C   UNL     1      -1.011  11.290  22.473  0.00  0.00    +0.000 A 
ATOM     15  C   UNL     1      -0.493  10.209  23.216  0.00  0.00    +0.000 A 
ATOM     16  C   UNL     1       0.235   9.170  22.613  0.00  0.00    +0.000 A 
BRANCH  14  17
ATOM     17  C   UNL     1      -1.740  12.407  23.104  0.00  0.00    +0.000 A 
ATOM     18  C   UNL     1      -3.086  12.284  23.492  0.00  0.00    +0.000 A 
ATOM     19  C   UNL     1      -3.786  13.357  24.060  0.00  0.00    +0.000 A 
ATOM     20  C   UNL     1      -3.141  14.569  24.271  0.00  0.00    +0.000 A 
ATOM     21  C   UNL     1      -1.806  14.716  23.909  0.00  0.00    +0.000 A 
ATOM     22  C   UNL     1      -1.116  13.646  23.325  0.00  0.00    +0.000 A 
ENDBRANCH  14  17
ENDBRANCH   8  11
ENDBRANCH   4   7
BRANCH   6  23
ATOM     23  S   UNL     1       5.658   4.995  18.878  0.00  0.00    +0.000 S 
ATOM     24  O   UNL     1       6.314   5.858  19.832  0.00  0.00    +0.000 OA
ATOM     25  O   UNL     1       6.168   3.672  18.563  0.00  0.00    +0.000 OA
BRANCH  23  26
ATOM     26  N   UNL     1       5.640   5.815  17.384  0.00  0.00    +0.000 NA
ATOM     27  C   UNL     1       4.685   5.330  16.340  0.00  0.00    +0.000 C 
ATOM     28  C   UNL     1       5.274   4.282  15.387  0.00  0.00    +0.000 C 
ATOM     29  O   UNL     1       6.527   4.688  14.836  0.00  0.00    +0.000 OA
ATOM     30  C   UNL     1       7.490   4.973  15.849  0.00  0.00    +0.000 C 
ATOM     31  C   UNL     1       7.016   6.052  16.827  0.00  0.00    +0.000 C 
ENDBRANCH  23  26
ENDBRANCH   6  23
BRANCH   1  33
ATOM     32  C   UNL     1       3.423   1.433  18.251  0.00  0.00    +0.000 C 
ATOM     33  O   UNL     1       4.097   2.589  18.734  0.00  0.00    +0.000 OA
ENDBRANCH   1  33
TORSDOF 6
ENDMDL
MODEL 7
REMARK VINA RESULT:      -8.7      2.905      3.731
REMARK  Name = 
REMARK  7 active torsions:
REMARK  status: ('A' for Active; 'I' for Inactive)
REMARK    1  A    between atoms: C_1  and  O_2
REMARK    2  A    between atoms: O_2  and  C_3
REMARK    3  A    between atoms: C_6  and  N_7
REMARK    4  A    between atoms: C_8  and  C_10
REMARK    5  A    between atoms: C_13  and  C_14
REMARK    6  A    between atoms: C_23  and  S_24
REMARK    7  A    between atoms: S_24  and  N_27
REMARK                            x       y       z     vdW  Elec       q    Type
REMARK                         _______ _______ _______ _____ _____    ______ ____
ROOT
ATOM      1  C   UNL     1       2.551   4.349  20.224  0.00  0.00    +0.000 A 
ATOM      2  C   UNL     1       1.576   5.006  20.972  0.00  0.00    +0.000 A 
ATOM      3  C   UNL     1       1.315   6.371  20.724  0.00  0.00    +0.000 A 
ATOM      4  C   UNL     1       2.039   7.101  19.767  0.00  0.00    +0.000 A 
ATOM      5  C   UNL     1       2.972   6.423  18.976  0.00  0.00    +0.000 A 
ATOM      6  C   UNL     1       3.215   5.048  19.200  0.00  0.00    +0.000 A 
ENDROOT
BRANCH   4   7
ATOM      7  N   UNL     1       1.864   8.506  19.582  0.00  0.00    +0.000 N 
ATOM      8  C   UNL     1       0.955   9.284  20.284  0.00  0.00    +0.000 C 
ATOM      9  O   UNL     1       0.190   8.859  21.154  0.00  0.00    +0.000 OA
ATOM     10  H   UNL     1       2.530   8.977  18.987  0.00  0.00    +0.000 HD
BRANCH   8  11
ATOM     11  C   UNL     1       0.885  10.738  19.993  0.00  0.00    +0.000 A 
ATOM     12  C   UNL     1       1.433  11.171  18.779  0.00  0.00    +0.000 A 
ATOM     13  C   UNL     1       1.437  12.519  18.426  0.00  0.00    +0.000 A 
ATOM     14  C   UNL     1       0.847  13.489  19.266  0.00  0.00    +0.000 A 
ATOM     15  C   UNL     1       0.248  13.027  20.457  0.00  0.00    +0.000 A 
ATOM     16  C   UNL     1       0.269  11.671  20.825  0.00  0.00    +0.000 A 
BRANCH  14  17
ATOM     17  C   UNL     1       0.866  14.916  18.891  0.00  0.00    +0.000 A 
ATOM     18  C   UNL     1      -0.321  15.655  18.739  0.00  0.00    +0.000 A 
ATOM     19  C   UNL     1      -0.300  17.001  18.350  0.00  0.00    +0.000 A 
ATOM     20  C   UNL     1       0.914  17.639  18.129  0.00  0.00    +0.000 A 
ATOM     21  C   UNL     1       2.104  16.936  18.285  0.00  0.00    +0.000 A 
ATOM     22  C   UNL     1       2.078  15.586  18.656  0.00  0.00    +0.000 A 
ENDBRANCH  14  17
ENDBRANCH   8  11
ENDBRANCH   4   7
BRANCH   6  23
ATOM     23  S   UNL     1       4.433   4.137  18.288  0.00  0.00    +0.000 S 
ATOM     24  O   UNL     1       5.299   3.549  19.282  0.00  0.00    +0.000 OA
ATOM     25  O   UNL     1       3.767   3.333  17.277  0.00  0.00    +0.000 OA
BRANCH  23  26
ATOM     26  N   UNL     1       5.368   5.254  17.402  0.00  0.00    +0.000 NA
ATOM     27  C   UNL     1       5.416   5.090  15.916  0.00  0.00    +0.000 C 
ATOM     28  C   UNL     1       6.575   4.219  15.416  0.00  0.00    +0.000 C 
ATOM     29  O   UNL     1       7.832   4.616  15.964  0.00  0.00    +0.000 OA
ATOM     30  C   UNL     1       7.827   4.591  17.390  0.00  0.00    +0.000 C 
ATOM     31  C   UNL     1       6.732   5.477  17.991  0.00  0.00    +0.000 C 
ENDBRANCH  23  26
ENDBRANCH   6  23
BRANCH   1  33
ATOM     32  C   UNL     1       1.648   2.126  19.852  0.00  0.00    +0.000 C 
ATOM     33  O   UNL     1       2.698   2.991  20.268  0.00  0.00    +0.000 OA
ENDBRANCH   1  33
TORSDOF 6
ENDMDL
MODEL 8
REMARK VINA RESULT:      -8.6      2.879      3.635
REMARK  Name = 
REMARK  7 active torsions:
REMARK  status: ('A' for Active; 'I' for Inactive)
REMARK    1  A    between atoms: C_1  and  O_2
REMARK    2  A    between atoms: O_2  and  C_3
REMARK    3  A    between atoms: C_6  and  N_7
REMARK    4  A    between atoms: C_8  and  C_10
REMARK    5  A    between atoms: C_13  and  C_14
REMARK    6  A    between atoms: C_23  and  S_24
REMARK    7  A    between atoms: S_24  and  N_27
REMARK                            x       y       z     vdW  Elec       q    Type
REMARK                         _______ _______ _______ _____ _____    ______ ____
ROOT
ATOM      1  C   UNL     1       2.751   4.484  20.022  0.00  0.00    +0.000 A 
ATOM      2  C   UNL     1       1.851   5.122  20.873  0.00  0.00    +0.000 A 
ATOM      3  C   UNL     1       1.536   6.481  20.657  0.00  0.00    +0.000 A 
ATOM      4  C   UNL     1       2.133   7.224  19.626  0.00  0.00    +0.000 A 
ATOM      5  C   UNL     1       2.988   6.565  18.735  0.00  0.00    +0.000 A 
ATOM      6  C   UNL     1       3.283   5.195  18.931  0.00  0.00    +0.000 A 
ENDROOT
BRANCH   4   7
ATOM      7  N   UNL     1       1.910   8.625  19.462  0.00  0.00    +0.000 N 
ATOM      8  C   UNL     1       0.970   9.359  20.171  0.00  0.00    +0.000 C 
ATOM      9  O   UNL     1       0.217   8.894  21.030  0.00  0.00    +0.000 OA
ATOM     10  H   UNL     1       2.561   9.128  18.876  0.00  0.00    +0.000 HD
BRANCH   8  11
ATOM     11  C   UNL     1       0.850  10.814  19.902  0.00  0.00    +0.000 A 
ATOM     12  C   UNL     1       1.495  11.305  18.760  0.00  0.00    +0.000 A 
ATOM     13  C   UNL     1       1.460  12.660  18.435  0.00  0.00    +0.000 A 
ATOM     14  C   UNL     1       0.734  13.576  19.227  0.00  0.00    +0.000 A 
ATOM     15  C   UNL     1       0.043  13.054  20.341  0.00  0.00    +0.000 A 
ATOM     16  C   UNL     1       0.102  11.693  20.684  0.00  0.00    +0.000 A 
BRANCH  14  17
ATOM     17  C   UNL     1       0.713  15.011  18.884  0.00  0.00    +0.000 A 
ATOM     18  C   UNL     1       1.898  15.732  18.650  0.00  0.00    +0.000 A 
ATOM     19  C   UNL     1       1.876  17.102  18.358  0.00  0.00    +0.000 A 
ATOM     20  C   UNL     1       0.661  17.771  18.271  0.00  0.00    +0.000 A 
ATOM     21  C   UNL     1      -0.527  17.081  18.485  0.00  0.00    +0.000 A 
ATOM     22  C   UNL     1      -0.499  15.716  18.795  0.00  0.00    +0.000 A 
ENDBRANCH  14  17
ENDBRANCH   8  11
ENDBRANCH   4   7
BRANCH   6  23
ATOM     23  S   UNL     1       4.411   4.309  17.889  0.00  0.00    +0.000 S 
ATOM     24  O   UNL     1       5.574   4.058  18.707  0.00  0.00    +0.000 OA
ATOM     25  O   UNL     1       3.697   3.235  17.221  0.00  0.00    +0.000 OA
BRANCH  23  26
ATOM     26  N   UNL     1       4.894   5.352  16.631  0.00  0.00    +0.000 NA
ATOM     27  C   UNL     1       5.398   4.727  15.369  0.00  0.00    +0.000 C 
ATOM     28  C   UNL     1       6.917   4.514  15.335  0.00  0.00    +0.000 C 
ATOM     29  O   UNL     1       7.641   5.692  15.690  0.00  0.00    +0.000 OA
ATOM     30  C   UNL     1       7.279   6.175  16.982  0.00  0.00    +0.000 C 
ATOM     31  C   UNL     1       5.781   6.470  17.103  0.00  0.00    +0.000 C 
ENDBRANCH  23  26
ENDBRANCH   6  23
BRANCH   1  33
ATOM     32  C   UNL     1       1.820   2.242  20.011  0.00  0.00    +0.000 C 
ATOM     33  O   UNL     1       2.931   3.130  20.049  0.00  0.00    +0.000 OA
ENDBRANCH   1  33
TORSDOF 6
ENDMDL
MODEL 9
REMARK VINA RESULT:      -8.6      4.987     11.290
REMARK  Name = 
REMARK  7 active torsions:
REMARK  status: ('A' for Active; 'I' for Inactive)
REMARK    1  A    between atoms: C_1  and  O_2
REMARK    2  A    between atoms: O_2  and  C_3
REMARK    3  A    between atoms: C_6  and  N_7
REMARK    4  A    between atoms: C_8  and  C_10
REMARK    5  A    between atoms: C_13  and  C_14
REMARK    6  A    between atoms: C_23  and  S_24
REMARK    7  A    between atoms: S_24  and  N_27
REMARK                            x       y       z     vdW  Elec       q    Type
REMARK                         _______ _______ _______ _____ _____    ______ ____
ROOT
ATOM      1  C   UNL     1      -2.437  13.780  22.338  0.00  0.00    +0.000 A 
ATOM      2  C   UNL     1      -1.057  13.796  22.529  0.00  0.00    +0.000 A 
ATOM      3  C   UNL     1      -0.240  12.946  21.751  0.00  0.00    +0.000 A 
ATOM      4  C   UNL     1      -0.782  12.054  20.812  0.00  0.00    +0.000 A 
ATOM      5  C   UNL     1      -2.161  12.087  20.578  0.00  0.00    +0.000 A 
ATOM      6  C   UNL     1      -2.980  12.958  21.335  0.00  0.00    +0.000 A 
ENDROOT
BRANCH   4   7
ATOM      7  N   UNL     1       0.018  11.112  20.098  0.00  0.00    +0.000 N 
ATOM      8  C   UNL     1       0.434   9.890  20.607  0.00  0.00    +0.000 C 
ATOM      9  O   UNL     1       0.160   9.467  21.733  0.00  0.00    +0.000 OA
ATOM     10  H   UNL     1       0.190  11.302  19.122  0.00  0.00    +0.000 HD
BRANCH   8  11
ATOM     11  C   UNL     1       1.260   9.003  19.749  0.00  0.00    +0.000 A 
ATOM     12  C   UNL     1       1.681   7.789  20.308  0.00  0.00    +0.000 A 
ATOM     13  C   UNL     1       2.480   6.900  19.590  0.00  0.00    +0.000 A 
ATOM     14  C   UNL     1       2.855   7.178  18.257  0.00  0.00    +0.000 A 
ATOM     15  C   UNL     1       2.373   8.378  17.692  0.00  0.00    +0.000 A 
ATOM     16  C   UNL     1       1.591   9.286  18.425  0.00  0.00    +0.000 A 
BRANCH  14  17
ATOM     17  C   UNL     1       3.711   6.238  17.508  0.00  0.00    +0.000 A 
ATOM     18  C   UNL     1       3.548   4.845  17.616  0.00  0.00    +0.000 A 
ATOM     19  C   UNL     1       4.384   3.955  16.930  0.00  0.00    +0.000 A 
ATOM     20  C   UNL     1       5.387   4.446  16.104  0.00  0.00    +0.000 A 
ATOM     21  C   UNL     1       5.564   5.819  15.968  0.00  0.00    +0.000 A 
ATOM     22  C   UNL     1       4.737   6.705  16.670  0.00  0.00    +0.000 A 
ENDBRANCH  14  17
ENDBRANCH   8  11
ENDBRANCH   4   7
BRANCH   6  23
ATOM     23  S   UNL     1      -4.743  13.005  21.148  0.00  0.00    +0.000 S 
ATOM     24  O   UNL     1      -5.277  12.582  22.421  0.00  0.00    +0.000 OA
ATOM     25  O   UNL     1      -5.123  14.267  20.538  0.00  0.00    +0.000 OA
BRANCH  23  26
ATOM     26  N   UNL     1      -5.181  11.824  19.999  0.00  0.00    +0.000 NA
ATOM     27  C   UNL     1      -4.833  12.088  18.569  0.00  0.00    +0.000 C 
ATOM     28  C   UNL     1      -5.935  12.800  17.774  0.00  0.00    +0.000 C 
ATOM     29  O   UNL     1      -7.208  12.170  17.921  0.00  0.00    +0.000 OA
ATOM     30  C   UNL     1      -7.612  12.089  19.286  0.00  0.00    +0.000 C 
ATOM     31  C   UNL     1      -6.597  11.345  20.159  0.00  0.00    +0.000 C 
ENDBRANCH  23  26
ENDBRANCH   6  23
BRANCH   1  33
ATOM     32  C   UNL     1      -2.731  15.965  23.354  0.00  0.00    +0.000 C 
ATOM     33  O   UNL     1      -3.252  14.721  22.901  0.00  0.00    +0.000 OA
ENDBRANCH   1  33
TORSDOF 6
ENDMDL
