MODEL 1
REMARK VINA RESULT:      -8.6      0.000      0.000
REMARK  Name = 
REMARK  8 active torsions:
REMARK  status: ('A' for Active; 'I' for Inactive)
REMARK    1  A    between atoms: C_1  and  C_2
REMARK    2  A    between atoms: C_2  and  O_3
REMARK    3  A    between atoms: O_3  and  C_4
REMARK    4  A    between atoms: C_4  and  C_6
REMARK    5  A    between atoms: C_15  and  C_16
REMARK    6  A    between atoms: N_17  and  N_18
REMARK    7  A    between atoms: C_19  and  C_21
REMARK    8  A    between atoms: C_21  and  C_22
REMARK                            x       y       z     vdW  Elec       q    Type
REMARK                         _______ _______ _______ _____ _____    ______ ____
ROOT
ATOM      1  C   UNL     1       5.625   4.429  16.506  0.00  0.00    +0.000 A 
ATOM      2  N   UNL     1       4.777   3.346  16.565  0.00  0.00    +0.000 N 
ATOM      3  C   UNL     1       3.734   3.586  17.419  0.00  0.00    +0.000 A 
ATOM      4  C   UNL     1       2.617   2.796  17.724  0.00  0.00    +0.000 A 
ATOM      5  C   UNL     1       1.679   3.327  18.614  0.00  0.00    +0.000 A 
ATOM      6 CL   UNL     1       0.279   2.404  19.006  0.00  0.00    +0.000 Cl
ATOM      7  C   UNL     1       1.850   4.587  19.182  0.00  0.00    +0.000 A 
ATOM      8  C   UNL     1       2.977   5.352  18.876  0.00  0.00    +0.000 A 
ATOM      9  C   UNL     1       3.940   4.848  17.978  0.00  0.00    +0.000 A 
ATOM     10  C   UNL     1       5.150   5.366  17.420  0.00  0.00    +0.000 A 
ATOM     11  H   UNL     1       4.887   2.517  15.996  0.00  0.00    +0.000 HD
ENDROOT
BRANCH   1  12
ATOM     12  C   UNL     1       6.748   4.524  15.601  0.00  0.00    +0.000 C 
ATOM     13  O   UNL     1       7.926   4.451  15.912  0.00  0.00    +0.000 OA
BRANCH  12  14
ATOM     14  O   UNL     1       6.295   4.872  14.363  0.00  0.00    +0.000 OA
BRANCH  14  16
ATOM     15  C   UNL     1       5.330   3.539  12.640  0.00  0.00    +0.000 C 
ATOM     16  C   UNL     1       6.624   3.923  13.338  0.00  0.00    +0.000 C 
ENDBRANCH  14  16
ENDBRANCH  12  14
ENDBRANCH   1  12
BRANCH  10  17
ATOM     17  C   UNL     1       5.783   6.649  17.663  0.00  0.00    +0.000 C 
ATOM     18  N   UNL     1       6.695   7.087  16.851  0.00  0.00    +0.000 NA
BRANCH  18  19
ATOM     19  N   UNL     1       7.171   8.360  17.080  0.00  0.00    +0.000 N 
ATOM     20  C   UNL     1       8.114   8.665  18.053  0.00  0.00    +0.000 C 
ATOM     21  O   UNL     1       8.664   7.860  18.797  0.00  0.00    +0.000 OA
ATOM     22  H   UNL     1       6.549   9.092  16.751  0.00  0.00    +0.000 HD
BRANCH  20  23
ATOM     23  C   UNL     1       8.424  10.139  18.180  0.00  0.00    +0.000 C 
BRANCH  23  24
ATOM     24  C   UNL     1       9.721  10.399  18.959  0.00  0.00    +0.000 C 
ATOM     25  C   UNL     1       9.406  10.999  20.342  0.00  0.00    +0.000 C 
ATOM     26  C   UNL     1       9.110  12.481  20.134  0.00  0.00    +0.000 C 
ATOM     27  S   UNL     1      10.294  13.020  18.919  0.00  0.00    +0.000 S 
ATOM     28  O   UNL     1      11.452  13.542  19.616  0.00  0.00    +0.000 OA
ATOM     29  O   UNL     1       9.596  13.776  17.903  0.00  0.00    +0.000 OA
ATOM     30  C   UNL     1      10.695  11.392  18.296  0.00  0.00    +0.000 C 
ENDBRANCH  23  24
ENDBRANCH  20  23
ENDBRANCH  18  19
ENDBRANCH  10  17
TORSDOF 7
ENDMDL
MODEL 2
REMARK VINA RESULT:      -8.6      1.041      1.107
REMARK  Name = 
REMARK  8 active torsions:
REMARK  status: ('A' for Active; 'I' for Inactive)
REMARK    1  A    between atoms: C_1  and  C_2
REMARK    2  A    between atoms: C_2  and  O_3
REMARK    3  A    between atoms: O_3  and  C_4
REMARK    4  A    between atoms: C_4  and  C_6
REMARK    5  A    between atoms: C_15  and  C_16
REMARK    6  A    between atoms: N_17  and  N_18
REMARK    7  A    between atoms: C_19  and  C_21
REMARK    8  A    between atoms: C_21  and  C_22
REMARK                            x       y       z     vdW  Elec       q    Type
REMARK                         _______ _______ _______ _____ _____    ______ ____
ROOT
ATOM      1  C   UNL     1       5.547   4.540  16.295  0.00  0.00    +0.000 A 
ATOM      2  N   UNL     1       4.773   3.517  16.794  0.00  0.00    +0.000 N 
ATOM      3  C   UNL     1       3.986   3.955  17.825  0.00  0.00    +0.000 A 
ATOM      4  C   UNL     1       3.010   3.276  18.567  0.00  0.00    +0.000 A 
ATOM      5  C   UNL     1       2.325   4.003  19.545  0.00  0.00    +0.000 A 
ATOM      6 CL   UNL     1       1.103   3.220  20.471  0.00  0.00    +0.000 Cl
ATOM      7  C   UNL     1       2.605   5.347  19.779  0.00  0.00    +0.000 A 
ATOM      8  C   UNL     1       3.592   6.002  19.038  0.00  0.00    +0.000 A 
ATOM      9  C   UNL     1       4.298   5.299  18.041  0.00  0.00    +0.000 A 
ATOM     10  C   UNL     1       5.304   5.657  17.091  0.00  0.00    +0.000 A 
ATOM     11  H   UNL     1       4.752   2.587  16.398  0.00  0.00    +0.000 HD
ENDROOT
BRANCH   1  12
ATOM     12  C   UNL     1       6.389   4.418  15.127  0.00  0.00    +0.000 C 
ATOM     13  O   UNL     1       7.568   4.726  15.060  0.00  0.00    +0.000 OA
BRANCH  12  14
ATOM     14  O   UNL     1       5.622   4.056  14.060  0.00  0.00    +0.000 OA
BRANCH  14  16
ATOM     15  C   UNL     1       5.418   3.201  11.845  0.00  0.00    +0.000 C 
ATOM     16  C   UNL     1       6.377   3.784  12.870  0.00  0.00    +0.000 C 
ENDBRANCH  14  16
ENDBRANCH  12  14
ENDBRANCH   1  12
BRANCH  10  17
ATOM     17  C   UNL     1       5.943   6.944  16.892  0.00  0.00    +0.000 C 
ATOM     18  N   UNL     1       6.767   7.405  17.783  0.00  0.00    +0.000 NA
BRANCH  18  19
ATOM     19  N   UNL     1       7.421   8.578  17.476  0.00  0.00    +0.000 N 
ATOM     20  C   UNL     1       8.482   9.084  18.217  0.00  0.00    +0.000 C 
ATOM     21  O   UNL     1       8.990   8.552  19.199  0.00  0.00    +0.000 OA
ATOM     22  H   UNL     1       6.870   9.214  16.909  0.00  0.00    +0.000 HD
BRANCH  20  23
ATOM     23  C   UNL     1       8.987  10.427  17.744  0.00  0.00    +0.000 C 
BRANCH  23  24
ATOM     24  C   UNL     1       9.874  11.120  18.789  0.00  0.00    +0.000 C 
ATOM     25  C   UNL     1       9.184  12.387  19.325  0.00  0.00    +0.000 C 
ATOM     26  C   UNL     1       9.377  13.482  18.282  0.00  0.00    +0.000 C 
ATOM     27  S   UNL     1      11.047  13.273  17.701  0.00  0.00    +0.000 S 
ATOM     28  O   UNL     1      11.910  14.131  18.488  0.00  0.00    +0.000 OA
ATOM     29  O   UNL     1      11.037  13.302  16.255  0.00  0.00    +0.000 OA
ATOM     30  C   UNL     1      11.248  11.591  18.273  0.00  0.00    +0.000 C 
ENDBRANCH  23  24
ENDBRANCH  20  23
ENDBRANCH  18  19
ENDBRANCH  10  17
TORSDOF 7
ENDMDL
MODEL 3
REMARK VINA RESULT:      -8.4      1.275      1.624
REMARK  Name = 
REMARK  8 active torsions:
REMARK  status: ('A' for Active; 'I' for Inactive)
REMARK    1  A    between atoms: C_1  and  C_2
REMARK    2  A    between atoms: C_2  and  O_3
REMARK    3  A    between atoms: O_3  and  C_4
REMARK    4  A    between atoms: C_4  and  C_6
REMARK    5  A    between atoms: C_15  and  C_16
REMARK    6  A    between atoms: N_17  and  N_18
REMARK    7  A    between atoms: C_19  and  C_21
REMARK    8  A    between atoms: C_21  and  C_22
REMARK                            x       y       z     vdW  Elec       q    Type
REMARK                         _______ _______ _______ _____ _____    ______ ____
ROOT
ATOM      1  C   UNL     1       5.999   4.641  16.339  0.00  0.00    +0.000 A 
ATOM      2  N   UNL     1       4.812   3.944  16.313  0.00  0.00    +0.000 N 
ATOM      3  C   UNL     1       4.101   4.144  17.465  0.00  0.00    +0.000 A 
ATOM      4  C   UNL     1       2.826   3.689  17.831  0.00  0.00    +0.000 A 
ATOM      5  C   UNL     1       2.331   4.094  19.073  0.00  0.00    +0.000 A 
ATOM      6 CL   UNL     1       0.762   3.578  19.559  0.00  0.00    +0.000 Cl
ATOM      7  C   UNL     1       3.076   4.912  19.920  0.00  0.00    +0.000 A 
ATOM      8  C   UNL     1       4.350   5.343  19.543  0.00  0.00    +0.000 A 
ATOM      9  C   UNL     1       4.877   4.956  18.294  0.00  0.00    +0.000 A 
ATOM     10  C   UNL     1       6.087   5.245  17.590  0.00  0.00    +0.000 A 
ATOM     11  H   UNL     1       4.491   3.413  15.514  0.00  0.00    +0.000 HD
ENDROOT
BRANCH   1  12
ATOM     12  C   UNL     1       6.907   4.727  15.218  0.00  0.00    +0.000 C 
ATOM     13  O   UNL     1       7.695   5.634  15.004  0.00  0.00    +0.000 OA
BRANCH  12  14
ATOM     14  O   UNL     1       6.635   3.716  14.345  0.00  0.00    +0.000 OA
BRANCH  14  16
ATOM     15  C   UNL     1       6.462   3.133  12.040  0.00  0.00    +0.000 C 
ATOM     16  C   UNL     1       6.088   4.161  13.095  0.00  0.00    +0.000 C 
ENDBRANCH  14  16
ENDBRANCH  12  14
ENDBRANCH   1  12
BRANCH  10  17
ATOM     17  C   UNL     1       7.206   6.065  18.013  0.00  0.00    +0.000 C 
ATOM     18  N   UNL     1       7.239   7.326  17.710  0.00  0.00    +0.000 NA
BRANCH  18  19
ATOM     19  N   UNL     1       8.274   8.066  18.239  0.00  0.00    +0.000 N 
ATOM     20  C   UNL     1       8.347   9.451  18.163  0.00  0.00    +0.000 C 
ATOM     21  O   UNL     1       7.505  10.187  17.660  0.00  0.00    +0.000 OA
ATOM     22  H   UNL     1       9.130   7.534  18.366  0.00  0.00    +0.000 HD
BRANCH  20  23
ATOM     23  C   UNL     1       9.614  10.040  18.738  0.00  0.00    +0.000 C 
BRANCH  23  24
ATOM     24  C   UNL     1       9.948  11.412  18.135  0.00  0.00    +0.000 C 
ATOM     25  C   UNL     1      11.470  11.642  18.130  0.00  0.00    +0.000 C 
ATOM     26  C   UNL     1      11.869  12.051  19.544  0.00  0.00    +0.000 C 
ATOM     27  S   UNL     1      10.570  13.138  20.092  0.00  0.00    +0.000 S 
ATOM     28  O   UNL     1      10.964  14.500  19.790  0.00  0.00    +0.000 OA
ATOM     29  O   UNL     1      10.156  12.728  21.416  0.00  0.00    +0.000 OA
ATOM     30  C   UNL     1       9.355  12.620  18.887  0.00  0.00    +0.000 C 
ENDBRANCH  23  24
ENDBRANCH  20  23
ENDBRANCH  18  19
ENDBRANCH  10  17
TORSDOF 7
ENDMDL
MODEL 4
REMARK VINA RESULT:      -8.3      1.234      1.509
REMARK  Name = 
REMARK  8 active torsions:
REMARK  status: ('A' for Active; 'I' for Inactive)
REMARK    1  A    between atoms: C_1  and  C_2
REMARK    2  A    between atoms: C_2  and  O_3
REMARK    3  A    between atoms: O_3  and  C_4
REMARK    4  A    between atoms: C_4  and  C_6
REMARK    5  A    between atoms: C_15  and  C_16
REMARK    6  A    between atoms: N_17  and  N_18
REMARK    7  A    between atoms: C_19  and  C_21
REMARK    8  A    between atoms: C_21  and  C_22
REMARK                            x       y       z     vdW  Elec       q    Type
REMARK                         _______ _______ _______ _____ _____    ______ ____
ROOT
ATOM      1  C   UNL     1       5.740   4.648  16.490  0.00  0.00    +0.000 A 
ATOM      2  N   UNL     1       4.730   3.713  16.498  0.00  0.00    +0.000 N 
ATOM      3  C   UNL     1       3.893   3.905  17.565  0.00  0.00    +0.000 A 
ATOM      4  C   UNL     1       2.713   3.237  17.918  0.00  0.00    +0.000 A 
ATOM      5  C   UNL     1       2.036   3.686  19.055  0.00  0.00    +0.000 A 
ATOM      6 CL   UNL     1       0.571   2.911  19.520  0.00  0.00    +0.000 Cl
ATOM      7  C   UNL     1       2.517   4.751  19.813  0.00  0.00    +0.000 A 
ATOM      8  C   UNL     1       3.703   5.395  19.452  0.00  0.00    +0.000 A 
ATOM      9  C   UNL     1       4.408   4.969  18.308  0.00  0.00    +0.000 A 
ATOM     10  C   UNL     1       5.590   5.418  17.641  0.00  0.00    +0.000 A 
ATOM     11  H   UNL     1       4.599   3.024  15.770  0.00  0.00    +0.000 HD
ENDROOT
BRANCH   1  12
ATOM     12  C   UNL     1       6.707   4.780  15.424  0.00  0.00    +0.000 C 
ATOM     13  O   UNL     1       7.486   5.708  15.275  0.00  0.00    +0.000 OA
BRANCH  12  14
ATOM     14  O   UNL     1       6.507   3.784  14.514  0.00  0.00    +0.000 OA
BRANCH  14  16
ATOM     15  C   UNL     1       5.827   3.282  12.286  0.00  0.00    +0.000 C 
ATOM     16  C   UNL     1       6.670   4.204  13.152  0.00  0.00    +0.000 C 
ENDBRANCH  14  16
ENDBRANCH  12  14
ENDBRANCH   1  12
BRANCH  10  17
ATOM     17  C   UNL     1       6.473   6.510  18.002  0.00  0.00    +0.000 C 
ATOM     18  N   UNL     1       7.590   6.266  18.616  0.00  0.00    +0.000 NA
BRANCH  18  19
ATOM     19  N   UNL     1       8.430   7.338  18.828  0.00  0.00    +0.000 N 
ATOM     20  C   UNL     1       8.296   8.561  18.181  0.00  0.00    +0.000 C 
ATOM     21  O   UNL     1       7.414   8.856  17.382  0.00  0.00    +0.000 OA
ATOM     22  H   UNL     1       9.337   7.076  19.201  0.00  0.00    +0.000 HD
BRANCH  20  23
ATOM     23  C   UNL     1       9.381   9.560  18.508  0.00  0.00    +0.000 C 
BRANCH  23  24
ATOM     24  C   UNL     1       8.826  10.832  19.167  0.00  0.00    +0.000 C 
ATOM     25  C   UNL     1       9.031  12.048  18.245  0.00  0.00    +0.000 C 
ATOM     26  C   UNL     1      10.486  12.483  18.387  0.00  0.00    +0.000 C 
ATOM     27  S   UNL     1      10.847  12.315  20.123  0.00  0.00    +0.000 S 
ATOM     28  O   UNL     1      10.599  13.591  20.762  0.00  0.00    +0.000 OA
ATOM     29  O   UNL     1      12.102  11.610  20.264  0.00  0.00    +0.000 OA
ATOM     30  C   UNL     1       9.488  11.218  20.504  0.00  0.00    +0.000 C 
ENDBRANCH  23  24
ENDBRANCH  20  23
ENDBRANCH  18  19
ENDBRANCH  10  17
TORSDOF 7
ENDMDL
MODEL 5
REMARK VINA RESULT:      -8.0      2.678      4.299
REMARK  Name = 
REMARK  8 active torsions:
REMARK  status: ('A' for Active; 'I' for Inactive)
REMARK    1  A    between atoms: C_1  and  C_2
REMARK    2  A    between atoms: C_2  and  O_3
REMARK    3  A    between atoms: O_3  and  C_4
REMARK    4  A    between atoms: C_4  and  C_6
REMARK    5  A    between atoms: C_15  and  C_16
REMARK    6  A    between atoms: N_17  and  N_18
REMARK    7  A    between atoms: C_19  and  C_21
REMARK    8  A    between atoms: C_21  and  C_22
REMARK                            x       y       z     vdW  Elec       q    Type
REMARK                         _______ _______ _______ _____ _____    ______ ____
ROOT
ATOM      1  C   UNL     1       5.237   4.904  17.614  0.00  0.00    +0.000 A 
ATOM      2  N   UNL     1       4.590   4.203  16.622  0.00  0.00    +0.000 N 
ATOM      3  C   UNL     1       5.309   4.224  15.458  0.00  0.00    +0.000 A 
ATOM      4  C   UNL     1       5.062   3.592  14.231  0.00  0.00    +0.000 A 
ATOM      5  C   UNL     1       6.009   3.762  13.218  0.00  0.00    +0.000 A 
ATOM      6 CL   UNL     1       5.760   2.990  11.699  0.00  0.00    +0.000 Cl
ATOM      7  C   UNL     1       7.151   4.534  13.414  0.00  0.00    +0.000 A 
ATOM      8  C   UNL     1       7.373   5.167  14.639  0.00  0.00    +0.000 A 
ATOM      9  C   UNL     1       6.439   5.013  15.684  0.00  0.00    +0.000 A 
ATOM     10  C   UNL     1       6.376   5.463  17.039  0.00  0.00    +0.000 A 
ATOM     11  H   UNL     1       3.730   3.690  16.768  0.00  0.00    +0.000 HD
ENDROOT
BRANCH   1  12
ATOM     12  C   UNL     1       4.787   4.959  18.986  0.00  0.00    +0.000 C 
ATOM     13  O   UNL     1       4.238   5.909  19.522  0.00  0.00    +0.000 OA
BRANCH  12  14
ATOM     14  O   UNL     1       5.215   3.843  19.642  0.00  0.00    +0.000 OA
BRANCH  14  16
ATOM     15  C   UNL     1       3.344   2.768  20.655  0.00  0.00    +0.000 C 
ATOM     16  C   UNL     1       4.335   2.717  19.504  0.00  0.00    +0.000 C 
ENDBRANCH  14  16
ENDBRANCH  12  14
ENDBRANCH   1  12
BRANCH  10  17
ATOM     17  C   UNL     1       7.322   6.290  17.763  0.00  0.00    +0.000 C 
ATOM     18  N   UNL     1       7.476   7.537  17.440  0.00  0.00    +0.000 NA
BRANCH  18  19
ATOM     19  N   UNL     1       8.308   8.289  18.241  0.00  0.00    +0.000 N 
ATOM     20  C   UNL     1       8.398   9.673  18.171  0.00  0.00    +0.000 C 
ATOM     21  O   UNL     1       7.742  10.399  17.431  0.00  0.00    +0.000 OA
ATOM     22  H   UNL     1       9.088   7.764  18.622  0.00  0.00    +0.000 HD
BRANCH  20  23
ATOM     23  C   UNL     1       9.438  10.277  19.086  0.00  0.00    +0.000 C 
BRANCH  23  24
ATOM     24  C   UNL     1      10.079  11.539  18.491  0.00  0.00    +0.000 C 
ATOM     25  C   UNL     1      11.596  11.548  18.757  0.00  0.00    +0.000 C 
ATOM     26  C   UNL     1      11.799  11.998  20.200  0.00  0.00    +0.000 C 
ATOM     27  S   UNL     1      10.607  13.297  20.448  0.00  0.00    +0.000 S 
ATOM     28  O   UNL     1      11.251  14.562  20.161  0.00  0.00    +0.000 OA
ATOM     29  O   UNL     1       9.909  13.048  21.690  0.00  0.00    +0.000 OA
ATOM     30  C   UNL     1       9.556  12.871  19.065  0.00  0.00    +0.000 C 
ENDBRANCH  23  24
ENDBRANCH  20  23
ENDBRANCH  18  19
ENDBRANCH  10  17
TORSDOF 7
ENDMDL
MODEL 6
REMARK VINA RESULT:      -8.0      2.639      4.281
REMARK  Name = 
REMARK  8 active torsions:
REMARK  status: ('A' for Active; 'I' for Inactive)
REMARK    1  A    between atoms: C_1  and  C_2
REMARK    2  A    between atoms: C_2  and  O_3
REMARK    3  A    between atoms: O_3  and  C_4
REMARK    4  A    between atoms: C_4  and  C_6
REMARK    5  A    between atoms: C_15  and  C_16
REMARK    6  A    between atoms: N_17  and  N_18
REMARK    7  A    between atoms: C_19  and  C_21
REMARK    8  A    between atoms: C_21  and  C_22
REMARK                            x       y       z     vdW  Elec       q    Type
REMARK                         _______ _______ _______ _____ _____    ______ ____
ROOT
ATOM      1  C   UNL     1       5.568   4.637  17.728  0.00  0.00    +0.000 A 
ATOM      2  N   UNL     1       4.933   3.926  16.735  0.00  0.00    +0.000 N 
ATOM      3  C   UNL     1       5.567   4.090  15.533  0.00  0.00    +0.000 A 
ATOM      4  C   UNL     1       5.305   3.504  14.287  0.00  0.00    +0.000 A 
ATOM      5  C   UNL     1       6.159   3.832  13.231  0.00  0.00    +0.000 A 
ATOM      6 CL   UNL     1       5.892   3.123  11.684  0.00  0.00    +0.000 Cl
ATOM      7  C   UNL     1       7.225   4.712  13.405  0.00  0.00    +0.000 A 
ATOM      8  C   UNL     1       7.460   5.296  14.652  0.00  0.00    +0.000 A 
ATOM      9  C   UNL     1       6.620   4.983  15.739  0.00  0.00    +0.000 A 
ATOM     10  C   UNL     1       6.600   5.348  17.121  0.00  0.00    +0.000 A 
ATOM     11  H   UNL     1       4.143   3.316  16.900  0.00  0.00    +0.000 HD
ENDROOT
BRANCH   1  12
ATOM     12  C   UNL     1       5.207   4.566  19.126  0.00  0.00    +0.000 C 
ATOM     13  O   UNL     1       5.476   3.653  19.889  0.00  0.00    +0.000 OA
BRANCH  12  14
ATOM     14  O   UNL     1       4.376   5.605  19.425  0.00  0.00    +0.000 OA
BRANCH  14  16
ATOM     15  C   UNL     1       2.287   5.067  20.438  0.00  0.00    +0.000 C 
ATOM     16  C   UNL     1       2.997   5.349  19.124  0.00  0.00    +0.000 C 
ENDBRANCH  14  16
ENDBRANCH  12  14
ENDBRANCH   1  12
BRANCH  10  17
ATOM     17  C   UNL     1       7.501   6.231  17.837  0.00  0.00    +0.000 C 
ATOM     18  N   UNL     1       7.604   7.476  17.487  0.00  0.00    +0.000 NA
BRANCH  18  19
ATOM     19  N   UNL     1       8.393   8.282  18.280  0.00  0.00    +0.000 N 
ATOM     20  C   UNL     1       8.420   9.667  18.183  0.00  0.00    +0.000 C 
ATOM     21  O   UNL     1       7.738  10.347  17.422  0.00  0.00    +0.000 OA
ATOM     22  H   UNL     1       9.193   7.801  18.679  0.00  0.00    +0.000 HD
BRANCH  20  23
ATOM     23  C   UNL     1       9.422  10.336  19.095  0.00  0.00    +0.000 C 
BRANCH  23  24
ATOM     24  C   UNL     1      10.294  11.361  18.355  0.00  0.00    +0.000 C 
ATOM     25  C   UNL     1      11.647  11.531  19.069  0.00  0.00    +0.000 C 
ATOM     26  C   UNL     1      11.413  12.441  20.270  0.00  0.00    +0.000 C 
ATOM     27  S   UNL     1      10.286  13.690  19.686  0.00  0.00    +0.000 S 
ATOM     28  O   UNL     1      11.064  14.819  19.220  0.00  0.00    +0.000 OA
ATOM     29  O   UNL     1       9.219  13.831  20.652  0.00  0.00    +0.000 OA
ATOM     30  C   UNL     1       9.700  12.780  18.263  0.00  0.00    +0.000 C 
ENDBRANCH  23  24
ENDBRANCH  20  23
ENDBRANCH  18  19
ENDBRANCH  10  17
TORSDOF 7
ENDMDL
MODEL 7
REMARK VINA RESULT:      -8.0      2.809      4.286
REMARK  Name = 
REMARK  8 active torsions:
REMARK  status: ('A' for Active; 'I' for Inactive)
REMARK    1  A    between atoms: C_1  and  C_2
REMARK    2  A    between atoms: C_2  and  O_3
REMARK    3  A    between atoms: O_3  and  C_4
REMARK    4  A    between atoms: C_4  and  C_6
REMARK    5  A    between atoms: C_15  and  C_16
REMARK    6  A    between atoms: N_17  and  N_18
REMARK    7  A    between atoms: C_19  and  C_21
REMARK    8  A    between atoms: C_21  and  C_22
REMARK                            x       y       z     vdW  Elec       q    Type
REMARK                         _______ _______ _______ _____ _____    ______ ____
ROOT
ATOM      1  C   UNL     1       5.161   5.412  17.367  0.00  0.00    +0.000 A 
ATOM      2  N   UNL     1       4.508   4.676  16.403  0.00  0.00    +0.000 N 
ATOM      3  C   UNL     1       5.304   4.491  15.305  0.00  0.00    +0.000 A 
ATOM      4  C   UNL     1       5.071   3.754  14.135  0.00  0.00    +0.000 A 
ATOM      5  C   UNL     1       6.099   3.709  13.189  0.00  0.00    +0.000 A 
ATOM      6 CL   UNL     1       5.869   2.802  11.744  0.00  0.00    +0.000 Cl
ATOM      7  C   UNL     1       7.305   4.374  13.396  0.00  0.00    +0.000 A 
ATOM      8  C   UNL     1       7.512   5.114  14.562  0.00  0.00    +0.000 A 
ATOM      9  C   UNL     1       6.497   5.177  15.539  0.00  0.00    +0.000 A 
ATOM     10  C   UNL     1       6.392   5.780  16.830  0.00  0.00    +0.000 A 
ATOM     11  H   UNL     1       3.588   4.276  16.532  0.00  0.00    +0.000 HD
ENDROOT
BRANCH   1  12
ATOM     12  C   UNL     1       4.626   5.668  18.685  0.00  0.00    +0.000 C 
ATOM     13  O   UNL     1       5.105   5.279  19.738  0.00  0.00    +0.000 OA
BRANCH  12  14
ATOM     14  O   UNL     1       3.412   6.275  18.564  0.00  0.00    +0.000 OA
BRANCH  14  16
ATOM     15  C   UNL     1       2.082   8.167  17.988  0.00  0.00    +0.000 C 
ATOM     16  C   UNL     1       3.460   7.534  17.878  0.00  0.00    +0.000 C 
ENDBRANCH  14  16
ENDBRANCH  12  14
ENDBRANCH   1  12
BRANCH  10  17
ATOM     17  C   UNL     1       7.374   6.579  17.538  0.00  0.00    +0.000 C 
ATOM     18  N   UNL     1       7.447   7.857  17.326  0.00  0.00    +0.000 NA
BRANCH  18  19
ATOM     19  N   UNL     1       8.326   8.569  18.113  0.00  0.00    +0.000 N 
ATOM     20  C   UNL     1       8.440   9.953  18.081  0.00  0.00    +0.000 C 
ATOM     21  O   UNL     1       7.768  10.712  17.391  0.00  0.00    +0.000 OA
ATOM     22  H   UNL     1       9.111   8.018  18.446  0.00  0.00    +0.000 HD
BRANCH  20  23
ATOM     23  C   UNL     1       9.528  10.509  18.970  0.00  0.00    +0.000 C 
BRANCH  23  24
ATOM     24  C   UNL     1      10.262  11.694  18.326  0.00  0.00    +0.000 C 
ATOM     25  C   UNL     1      11.775  11.601  18.597  0.00  0.00    +0.000 C 
ATOM     26  C   UNL     1      12.009  12.096  20.021  0.00  0.00    +0.000 C 
ATOM     27  S   UNL     1      10.917  13.489  20.208  0.00  0.00    +0.000 S 
ATOM     28  O   UNL     1      11.654  14.690  19.871  0.00  0.00    +0.000 OA
ATOM     29  O   UNL     1      10.201  13.346  21.457  0.00  0.00    +0.000 OA
ATOM     30  C   UNL     1       9.839  13.084  18.840  0.00  0.00    +0.000 C 
ENDBRANCH  23  24
ENDBRANCH  20  23
ENDBRANCH  18  19
ENDBRANCH  10  17
TORSDOF 7
ENDMDL
MODEL 8
REMARK VINA RESULT:      -7.9      6.546      8.936
REMARK  Name = 
REMARK  8 active torsions:
REMARK  status: ('A' for Active; 'I' for Inactive)
REMARK    1  A    between atoms: C_1  and  C_2
REMARK    2  A    between atoms: C_2  and  O_3
REMARK    3  A    between atoms: O_3  and  C_4
REMARK    4  A    between atoms: C_4  and  C_6
REMARK    5  A    between atoms: C_15  and  C_16
REMARK    6  A    between atoms: N_17  and  N_18
REMARK    7  A    between atoms: C_19  and  C_21
REMARK    8  A    between atoms: C_21  and  C_22
REMARK                            x       y       z     vdW  Elec       q    Type
REMARK                         _______ _______ _______ _____ _____    ______ ____
ROOT
ATOM      1  C   UNL     1      -0.364  10.923  19.764  0.00  0.00    +0.000 A 
ATOM      2  N   UNL     1      -1.607  11.487  19.949  0.00  0.00    +0.000 N 
ATOM      3  C   UNL     1      -2.370  11.372  18.819  0.00  0.00    +0.000 A 
ATOM      4  C   UNL     1      -3.703  11.741  18.588  0.00  0.00    +0.000 A 
ATOM      5  C   UNL     1      -4.239  11.458  17.329  0.00  0.00    +0.000 A 
ATOM      6 CL   UNL     1      -5.878  11.874  17.003  0.00  0.00    +0.000 Cl
ATOM      7  C   UNL     1      -3.480  10.839  16.339  0.00  0.00    +0.000 A 
ATOM      8  C   UNL     1      -2.149  10.492  16.584  0.00  0.00    +0.000 A 
ATOM      9  C   UNL     1      -1.579  10.760  17.845  0.00  0.00    +0.000 A 
ATOM     10  C   UNL     1      -0.303  10.503  18.438  0.00  0.00    +0.000 A 
ATOM     11  H   UNL     1      -1.921  11.872  20.830  0.00  0.00    +0.000 HD
ENDROOT
BRANCH   1  12
ATOM     12  C   UNL     1       0.620  10.781  20.812  0.00  0.00    +0.000 C 
ATOM     13  O   UNL     1       1.457  11.612  21.126  0.00  0.00    +0.000 OA
BRANCH  12  14
ATOM     14  O   UNL     1       0.577   9.506  21.295  0.00  0.00    +0.000 OA
BRANCH  14  16
ATOM     15  C   UNL     1      -0.170   9.515  23.558  0.00  0.00    +0.000 C 
ATOM     16  C   UNL     1       1.040   9.383  22.648  0.00  0.00    +0.000 C 
ENDBRANCH  14  16
ENDBRANCH  12  14
ENDBRANCH   1  12
BRANCH  10  17
ATOM     17  C   UNL     1       0.857   9.864  17.846  0.00  0.00    +0.000 C 
ATOM     18  N   UNL     1       1.467   8.911  18.481  0.00  0.00    +0.000 NA
BRANCH  18  19
ATOM     19  N   UNL     1       2.491   8.275  17.812  0.00  0.00    +0.000 N 
ATOM     20  C   UNL     1       2.931   6.994  18.118  0.00  0.00    +0.000 C 
ATOM     21  O   UNL     1       2.457   6.260  18.980  0.00  0.00    +0.000 OA
ATOM     22  H   UNL     1       3.122   8.912  17.336  0.00  0.00    +0.000 HD
BRANCH  20  23
ATOM     23  C   UNL     1       4.120   6.533  17.309  0.00  0.00    +0.000 C 
BRANCH  23  24
ATOM     24  C   UNL     1       4.828   5.327  17.943  0.00  0.00    +0.000 C 
ATOM     25  C   UNL     1       5.826   5.794  19.019  0.00  0.00    +0.000 C 
ATOM     26  C   UNL     1       7.077   6.280  18.294  0.00  0.00    +0.000 C 
ATOM     27  S   UNL     1       7.318   5.119  16.966  0.00  0.00    +0.000 S 
ATOM     28  O   UNL     1       8.218   4.082  17.430  0.00  0.00    +0.000 OA
ATOM     29  O   UNL     1       7.554   5.860  15.747  0.00  0.00    +0.000 OA
ATOM     30  C   UNL     1       5.654   4.465  16.968  0.00  0.00    +0.000 C 
ENDBRANCH  23  24
ENDBRANCH  20  23
ENDBRANCH  18  19
ENDBRANCH  10  17
TORSDOF 7
ENDMDL
MODEL 9
REMARK VINA RESULT:      -7.9      6.987      9.988
REMARK  Name = 
REMARK  8 active torsions:
REMARK  status: ('A' for Active; 'I' for Inactive)
REMARK    1  A    between atoms: C_1  and  C_2
REMARK    2  A    between atoms: C_2  and  O_3
REMARK    3  A    between atoms: O_3  and  C_4
REMARK    4  A    between atoms: C_4  and  C_6
REMARK    5  A    between atoms: C_15  and  C_16
REMARK    6  A    between atoms: N_17  and  N_18
REMARK    7  A    between atoms: C_19  and  C_21
REMARK    8  A    between atoms: C_21  and  C_22
REMARK                            x       y       z     vdW  Elec       q    Type
REMARK                         _______ _______ _______ _____ _____    ______ ____
ROOT
ATOM      1  C   UNL     1      -0.223  11.559  20.005  0.00  0.00    +0.000 A 
ATOM      2  N   UNL     1      -1.427  12.220  19.910  0.00  0.00    +0.000 N 
ATOM      3  C   UNL     1      -2.201  11.687  18.914  0.00  0.00    +0.000 A 
ATOM      4  C   UNL     1      -3.508  12.003  18.520  0.00  0.00    +0.000 A 
ATOM      5  C   UNL     1      -4.066  11.250  17.483  0.00  0.00    +0.000 A 
ATOM      6 CL   UNL     1      -5.677  11.586  16.975  0.00  0.00    +0.000 Cl
ATOM      7  C   UNL     1      -3.350  10.231  16.859  0.00  0.00    +0.000 A 
ATOM      8  C   UNL     1      -2.043   9.942  17.257  0.00  0.00    +0.000 A 
ATOM      9  C   UNL     1      -1.452  10.679  18.304  0.00  0.00    +0.000 A 
ATOM     10  C   UNL     1      -0.193  10.620  18.978  0.00  0.00    +0.000 A 
ATOM     11  H   UNL     1      -1.713  12.955  20.542  0.00  0.00    +0.000 HD
ENDROOT
BRANCH   1  12
ATOM     12  C   UNL     1       0.755  11.811  21.040  0.00  0.00    +0.000 C 
ATOM     13  O   UNL     1       1.874  12.266  20.870  0.00  0.00    +0.000 OA
BRANCH  12  14
ATOM     14  O   UNL     1       0.294  11.310  22.221  0.00  0.00    +0.000 OA
BRANCH  14  16
ATOM     15  C   UNL     1      -0.540   9.170  22.858  0.00  0.00    +0.000 C 
ATOM     16  C   UNL     1       0.702   9.958  22.475  0.00  0.00    +0.000 C 
ENDBRANCH  14  16
ENDBRANCH  12  14
ENDBRANCH   1  12
BRANCH  10  17
ATOM     17  C   UNL     1       0.922   9.725  18.734  0.00  0.00    +0.000 C 
ATOM     18  N   UNL     1       1.139   8.724  19.531  0.00  0.00    +0.000 NA
BRANCH  18  19
ATOM     19  N   UNL     1       2.146   7.853  19.177  0.00  0.00    +0.000 N 
ATOM     20  C   UNL     1       2.384   6.647  19.824  0.00  0.00    +0.000 C 
ATOM     21  O   UNL     1       1.725   6.189  20.752  0.00  0.00    +0.000 OA
ATOM     22  H   UNL     1       2.903   8.295  18.665  0.00  0.00    +0.000 HD
BRANCH  20  23
ATOM     23  C   UNL     1       3.593   5.897  19.317  0.00  0.00    +0.000 C 
BRANCH  23  24
ATOM     24  C   UNL     1       3.242   4.910  18.194  0.00  0.00    +0.000 C 
ATOM     25  C   UNL     1       1.953   4.142  18.538  0.00  0.00    +0.000 C 
ATOM     26  C   UNL     1       2.331   3.044  19.526  0.00  0.00    +0.000 C 
ATOM     27  S   UNL     1       3.891   2.416  18.940  0.00  0.00    +0.000 S 
ATOM     28  O   UNL     1       3.627   1.285  18.074  0.00  0.00    +0.000 OA
ATOM     29  O   UNL     1       4.804   2.337  20.059  0.00  0.00    +0.000 OA
ATOM     30  C   UNL     1       4.303   3.826  17.920  0.00  0.00    +0.000 C 
ENDBRANCH  23  24
ENDBRANCH  20  23
ENDBRANCH  18  19
ENDBRANCH  10  17
TORSDOF 7
ENDMDL
