MODEL 1
REMARK VINA RESULT:      -8.0      0.000      0.000
REMARK  Name = 
REMARK  9 active torsions:
REMARK  status: ('A' for Active; 'I' for Inactive)
REMARK    1  A    between atoms: C_2  and  C_3
REMARK    2  A    between atoms: C_3  and  C_4
REMARK    3  A    between atoms: N_14  and  C_15
REMARK    4  A    between atoms: C_15  and  C_16
REMARK    5  A    between atoms: C_15  and  C_19
REMARK    6  A    between atoms: C_16  and  C_17
REMARK    7  A    between atoms: C_17  and  O_18
REMARK    8  A    between atoms: N_24  and  C_25
REMARK    9  A    between atoms: C_25  and  C_26
REMARK                            x       y       z     vdW  Elec       q    Type
REMARK                         _______ _______ _______ _____ _____    ______ ____
ROOT
ATOM      1  C   UNL     1       0.766  10.008  19.117  0.00  0.00    +0.000 C 
ENDROOT
BRANCH   1   2
ATOM      2  C   UNL     1       0.116  10.928  20.199  0.00  0.00    +0.000 C 
ATOM      3  O   UNL     1      -0.245  10.410  21.269  0.00  0.00    +0.000 OA
ATOM      4  N   UNL     1      -0.006  12.292  19.999  0.00  0.00    +0.000 N 
ATOM      5  C   UNL     1      -0.523  13.147  21.079  0.00  0.00    +0.000 C 
ATOM      6  C   UNL     1       0.456  14.304  21.409  0.00  0.00    +0.000 C 
ATOM      7  N   UNL     1       0.951  15.076  20.238  0.00  0.00    +0.000 NA
ATOM      8  C   UNL     1       1.445  14.121  19.221  0.00  0.00    +0.000 C 
ATOM      9  C   UNL     1       0.430  13.041  18.820  0.00  0.00    +0.000 C 
BRANCH   7  10
ATOM     10  C   UNL     1      -0.098  15.981  19.732  0.00  0.00    +0.000 C 
BRANCH  10  11
ATOM     11  C   UNL     1       0.307  16.835  18.547  0.00  0.00    +0.000 A 
ATOM     12  C   UNL     1      -0.665  17.533  17.816  0.00  0.00    +0.000 A 
ATOM     13  C   UNL     1      -0.301  18.349  16.739  0.00  0.00    +0.000 A 
ATOM     14  C   UNL     1       1.039  18.471  16.385  0.00  0.00    +0.000 A 
ATOM     15  C   UNL     1       2.014  17.778  17.096  0.00  0.00    +0.000 A 
ATOM     16  C   UNL     1       1.653  16.961  18.171  0.00  0.00    +0.000 A 
ENDBRANCH  10  11
ENDBRANCH   7  10
ENDBRANCH   1   2
BRANCH   1  19
ATOM     17  O   UNL     1       2.730   8.010  18.383  0.00  0.00    +0.000 OA
ATOM     18  C   UNL     1       2.083   7.867  19.411  0.00  0.00    +0.000 C 
ATOM     19  N   UNL     1       1.134   8.764  19.829  0.00  0.00    +0.000 N 
ATOM     20  H   UNL     1       0.771   8.696  20.777  0.00  0.00    +0.000 HD
BRANCH  18  21
ATOM     21  C   UNL     1       2.235   6.638  20.313  0.00  0.00    +0.000 C 
BRANCH  21  22
ATOM     22  C   UNL     1       2.525   5.304  19.589  0.00  0.00    +0.000 C 
ATOM     23  C   UNL     1       1.859   5.262  18.191  0.00  0.00    +0.000 C 
ATOM     24  C   UNL     1       2.161   3.929  17.482  0.00  0.00    +0.000 C 
ATOM     25  C   UNL     1       3.681   3.780  17.296  0.00  0.00    +0.000 C 
ATOM     26  C   UNL     1       4.380   3.810  18.663  0.00  0.00    +0.000 C 
ATOM     27  C   UNL     1       3.862   2.637  19.509  0.00  0.00    +0.000 C 
ATOM     28  C   UNL     1       2.346   2.770  19.713  0.00  0.00    +0.000 C 
ATOM     29  C   UNL     1       1.638   2.772  18.348  0.00  0.00    +0.000 C 
ATOM     30  C   UNL     1       2.043   4.096  20.431  0.00  0.00    +0.000 C 
ATOM     31  C   UNL     1       4.059   5.141  19.377  0.00  0.00    +0.000 C 
ENDBRANCH  21  22
ENDBRANCH  18  21
ENDBRANCH   1  19
BRANCH   1  32
ATOM     32  C   UNL     1      -0.094   9.721  17.872  0.00  0.00    +0.000 C 
BRANCH  32  33
ATOM     33  C   UNL     1      -1.549  10.148  17.972  0.00  0.00    +0.000 C 
BRANCH  33  34
ATOM     34  O   UNL     1      -1.863  11.099  16.968  0.00  0.00    +0.000 OA
ATOM     35  H   UNL     1      -2.708  11.516  17.216  0.00  0.00    +0.000 HD
ENDBRANCH  33  34
ENDBRANCH  32  33
ENDBRANCH   1  32
TORSDOF 9
ENDMDL
MODEL 2
REMARK VINA RESULT:      -7.9      6.840     11.560
REMARK  Name = 
REMARK  9 active torsions:
REMARK  status: ('A' for Active; 'I' for Inactive)
REMARK    1  A    between atoms: C_2  and  C_3
REMARK    2  A    between atoms: C_3  and  C_4
REMARK    3  A    between atoms: N_14  and  C_15
REMARK    4  A    between atoms: C_15  and  C_16
REMARK    5  A    between atoms: C_15  and  C_19
REMARK    6  A    between atoms: C_16  and  C_17
REMARK    7  A    between atoms: C_17  and  O_18
REMARK    8  A    between atoms: N_24  and  C_25
REMARK    9  A    between atoms: C_25  and  C_26
REMARK                            x       y       z     vdW  Elec       q    Type
REMARK                         _______ _______ _______ _____ _____    ______ ____
ROOT
ATOM      1  C   UNL     1       7.941   6.857  17.700  0.00  0.00    +0.000 C 
ENDROOT
BRANCH   1   2
ATOM      2  C   UNL     1       7.132   6.232  16.519  0.00  0.00    +0.000 C 
ATOM      3  O   UNL     1       7.616   6.299  15.377  0.00  0.00    +0.000 OA
ATOM      4  N   UNL     1       5.936   5.571  16.741  0.00  0.00    +0.000 N 
ATOM      5  C   UNL     1       5.254   4.899  15.624  0.00  0.00    +0.000 C 
ATOM      6  C   UNL     1       4.972   3.407  15.942  0.00  0.00    +0.000 C 
ATOM      7  N   UNL     1       4.337   3.143  17.260  0.00  0.00    +0.000 NA
ATOM      8  C   UNL     1       5.102   3.862  18.303  0.00  0.00    +0.000 C 
ATOM      9  C   UNL     1       5.284   5.363  18.033  0.00  0.00    +0.000 C 
BRANCH   7  10
ATOM     10  C   UNL     1       2.907   3.504  17.228  0.00  0.00    +0.000 C 
BRANCH  10  11
ATOM     11  C   UNL     1       2.220   3.529  18.580  0.00  0.00    +0.000 A 
ATOM     12  C   UNL     1       1.947   2.330  19.254  0.00  0.00    +0.000 A 
ATOM     13  C   UNL     1       1.341   2.340  20.515  0.00  0.00    +0.000 A 
ATOM     14  C   UNL     1       1.003   3.551  21.110  0.00  0.00    +0.000 A 
ATOM     15  C   UNL     1       1.261   4.749  20.449  0.00  0.00    +0.000 A 
ATOM     16  C   UNL     1       1.864   4.741  19.189  0.00  0.00    +0.000 A 
ENDBRANCH  10  11
ENDBRANCH   7  10
ENDBRANCH   1   2
BRANCH   1  19
ATOM     17  O   UNL     1       9.229   8.975  19.197  0.00  0.00    +0.000 OA
ATOM     18  C   UNL     1       8.462   9.262  18.290  0.00  0.00    +0.000 C 
ATOM     19  N   UNL     1       7.810   8.321  17.534  0.00  0.00    +0.000 N 
ATOM     20  H   UNL     1       7.342   8.610  16.678  0.00  0.00    +0.000 HD
BRANCH  18  21
ATOM     21  C   UNL     1       8.111  10.711  17.938  0.00  0.00    +0.000 C 
BRANCH  21  22
ATOM     22  C   UNL     1       9.197  11.763  18.257  0.00  0.00    +0.000 C 
ATOM     23  C   UNL     1       8.804  13.162  17.723  0.00  0.00    +0.000 C 
ATOM     24  C   UNL     1       9.894  14.199  18.053  0.00  0.00    +0.000 C 
ATOM     25  C   UNL     1      10.064  14.297  19.578  0.00  0.00    +0.000 C 
ATOM     26  C   UNL     1      10.461  12.928  20.149  0.00  0.00    +0.000 C 
ATOM     27  C   UNL     1      11.797  12.501  19.523  0.00  0.00    +0.000 C 
ATOM     28  C   UNL     1      11.648  12.390  17.999  0.00  0.00    +0.000 C 
ATOM     29  C   UNL     1      11.220  13.748  17.420  0.00  0.00    +0.000 C 
ATOM     30  C   UNL     1      10.568  11.347  17.668  0.00  0.00    +0.000 C 
ATOM     31  C   UNL     1       9.373  11.889  19.800  0.00  0.00    +0.000 C 
ENDBRANCH  21  22
ENDBRANCH  18  21
ENDBRANCH   1  19
BRANCH   1  32
ATOM     32  C   UNL     1       7.528   6.402  19.113  0.00  0.00    +0.000 C 
BRANCH  32  33
ATOM     33  C   UNL     1       8.343   5.259  19.694  0.00  0.00    +0.000 C 
BRANCH  33  34
ATOM     34  O   UNL     1       8.279   5.268  21.111  0.00  0.00    +0.000 OA
ATOM     35  H   UNL     1       7.413   5.639  21.361  0.00  0.00    +0.000 HD
ENDBRANCH  33  34
ENDBRANCH  32  33
ENDBRANCH   1  32
TORSDOF 9
ENDMDL
MODEL 3
REMARK VINA RESULT:      -7.9      6.906     11.592
REMARK  Name = 
REMARK  9 active torsions:
REMARK  status: ('A' for Active; 'I' for Inactive)
REMARK    1  A    between atoms: C_2  and  C_3
REMARK    2  A    between atoms: C_3  and  C_4
REMARK    3  A    between atoms: N_14  and  C_15
REMARK    4  A    between atoms: C_15  and  C_16
REMARK    5  A    between atoms: C_15  and  C_19
REMARK    6  A    between atoms: C_16  and  C_17
REMARK    7  A    between atoms: C_17  and  O_18
REMARK    8  A    between atoms: N_24  and  C_25
REMARK    9  A    between atoms: C_25  and  C_26
REMARK                            x       y       z     vdW  Elec       q    Type
REMARK                         _______ _______ _______ _____ _____    ______ ____
ROOT
ATOM      1  C   UNL     1       7.928   6.796  17.670  0.00  0.00    +0.000 C 
ENDROOT
BRANCH   1   2
ATOM      2  C   UNL     1       7.082   6.195  16.502  0.00  0.00    +0.000 C 
ATOM      3  O   UNL     1       7.531   6.285  15.347  0.00  0.00    +0.000 OA
ATOM      4  N   UNL     1       5.894   5.530  16.747  0.00  0.00    +0.000 N 
ATOM      5  C   UNL     1       5.176   4.882  15.638  0.00  0.00    +0.000 C 
ATOM      6  C   UNL     1       4.903   3.384  15.936  0.00  0.00    +0.000 C 
ATOM      7  N   UNL     1       4.308   3.094  17.268  0.00  0.00    +0.000 NA
ATOM      8  C   UNL     1       5.106   3.791  18.300  0.00  0.00    +0.000 C 
ATOM      9  C   UNL     1       5.282   5.297  18.055  0.00  0.00    +0.000 C 
BRANCH   7  10
ATOM     10  C   UNL     1       2.879   3.456  17.287  0.00  0.00    +0.000 C 
BRANCH  10  11
ATOM     11  C   UNL     1       2.230   3.441  18.658  0.00  0.00    +0.000 A 
ATOM     12  C   UNL     1       2.075   2.233  19.351  0.00  0.00    +0.000 A 
ATOM     13  C   UNL     1       1.507   2.209  20.629  0.00  0.00    +0.000 A 
ATOM     14  C   UNL     1       1.089   3.396  21.223  0.00  0.00    +0.000 A 
ATOM     15  C   UNL     1       1.229   4.603  20.542  0.00  0.00    +0.000 A 
ATOM     16  C   UNL     1       1.794   4.628  19.266  0.00  0.00    +0.000 A 
ENDBRANCH  10  11
ENDBRANCH   7  10
ENDBRANCH   1   2
BRANCH   1  19
ATOM     17  O   UNL     1       9.213   8.878  19.219  0.00  0.00    +0.000 OA
ATOM     18  C   UNL     1       8.485   9.186  18.287  0.00  0.00    +0.000 C 
ATOM     19  N   UNL     1       7.838   8.264  17.505  0.00  0.00    +0.000 N 
ATOM     20  H   UNL     1       7.408   8.566  16.634  0.00  0.00    +0.000 HD
BRANCH  18  21
ATOM     21  C   UNL     1       8.182  10.644  17.929  0.00  0.00    +0.000 C 
BRANCH  21  22
ATOM     22  C   UNL     1       9.285  11.668  18.281  0.00  0.00    +0.000 C 
ATOM     23  C   UNL     1      10.643  11.275  17.647  0.00  0.00    +0.000 C 
ATOM     24  C   UNL     1      11.730  12.306  18.003  0.00  0.00    +0.000 C 
ATOM     25  C   UNL     1      11.326  13.687  17.458  0.00  0.00    +0.000 C 
ATOM     26  C   UNL     1       9.984  14.117  18.068  0.00  0.00    +0.000 C 
ATOM     27  C   UNL     1      10.141  14.207  19.594  0.00  0.00    +0.000 C 
ATOM     28  C   UNL     1      10.538  12.836  20.160  0.00  0.00    +0.000 C 
ATOM     29  C   UNL     1      11.866  12.382  19.532  0.00  0.00    +0.000 C 
ATOM     30  C   UNL     1       9.448  11.808  19.815  0.00  0.00    +0.000 C 
ATOM     31  C   UNL     1       8.902  13.070  17.723  0.00  0.00    +0.000 C 
ENDBRANCH  21  22
ENDBRANCH  18  21
ENDBRANCH   1  19
BRANCH   1  32
ATOM     32  C   UNL     1       7.525   6.354  19.089  0.00  0.00    +0.000 C 
BRANCH  32  33
ATOM     33  C   UNL     1       8.484   5.392  19.770  0.00  0.00    +0.000 C 
BRANCH  33  34
ATOM     34  O   UNL     1       8.152   5.239  21.140  0.00  0.00    +0.000 OA
ATOM     35  H   UNL     1       8.341   4.315  21.385  0.00  0.00    +0.000 HD
ENDBRANCH  33  34
ENDBRANCH  32  33
ENDBRANCH   1  32
TORSDOF 9
ENDMDL
MODEL 4
REMARK VINA RESULT:      -7.8      2.498      4.407
REMARK  Name = 
REMARK  9 active torsions:
REMARK  status: ('A' for Active; 'I' for Inactive)
REMARK    1  A    between atoms: C_2  and  C_3
REMARK    2  A    between atoms: C_3  and  C_4
REMARK    3  A    between atoms: N_14  and  C_15
REMARK    4  A    between atoms: C_15  and  C_16
REMARK    5  A    between atoms: C_15  and  C_19
REMARK    6  A    between atoms: C_16  and  C_17
REMARK    7  A    between atoms: C_17  and  O_18
REMARK    8  A    between atoms: N_24  and  C_25
REMARK    9  A    between atoms: C_25  and  C_26
REMARK                            x       y       z     vdW  Elec       q    Type
REMARK                         _______ _______ _______ _____ _____    ______ ____
ROOT
ATOM      1  C   UNL     1       0.184  10.239  18.344  0.00  0.00    +0.000 C 
ENDROOT
BRANCH   1   2
ATOM      2  C   UNL     1       0.632  11.604  18.959  0.00  0.00    +0.000 C 
ATOM      3  O   UNL     1       1.657  12.142  18.508  0.00  0.00    +0.000 OA
ATOM      4  N   UNL     1      -0.120  12.229  19.939  0.00  0.00    +0.000 N 
ATOM      5  C   UNL     1       0.269  13.564  20.420  0.00  0.00    +0.000 C 
ATOM      6  C   UNL     1      -0.901  14.576  20.299  0.00  0.00    +0.000 C 
ATOM      7  N   UNL     1      -2.205  14.114  20.845  0.00  0.00    +0.000 NA
ATOM      8  C   UNL     1      -2.494  12.771  20.297  0.00  0.00    +0.000 C 
ATOM      9  C   UNL     1      -1.373  11.743  20.515  0.00  0.00    +0.000 C 
BRANCH   7  10
ATOM     10  C   UNL     1      -2.194  14.157  22.319  0.00  0.00    +0.000 C 
BRANCH  10  11
ATOM     11  C   UNL     1      -3.475  13.690  22.985  0.00  0.00    +0.000 A 
ATOM     12  C   UNL     1      -3.437  12.681  23.957  0.00  0.00    +0.000 A 
ATOM     13  C   UNL     1      -4.607  12.264  24.601  0.00  0.00    +0.000 A 
ATOM     14  C   UNL     1      -5.824  12.853  24.275  0.00  0.00    +0.000 A 
ATOM     15  C   UNL     1      -5.878  13.850  23.305  0.00  0.00    +0.000 A 
ATOM     16  C   UNL     1      -4.711  14.267  22.660  0.00  0.00    +0.000 A 
ENDBRANCH  10  11
ENDBRANCH   7  10
ENDBRANCH   1   2
BRANCH   1  19
ATOM     17  O   UNL     1       2.511   8.560  17.961  0.00  0.00    +0.000 OA
ATOM     18  C   UNL     1       1.853   8.449  18.985  0.00  0.00    +0.000 C 
ATOM     19  N   UNL     1       0.737   9.203  19.243  0.00  0.00    +0.000 N 
ATOM     20  H   UNL     1       0.348   9.207  20.184  0.00  0.00    +0.000 HD
BRANCH  18  21
ATOM     21  C   UNL     1       2.182   7.414  20.066  0.00  0.00    +0.000 C 
BRANCH  21  22
ATOM     22  C   UNL     1       2.341   5.957  19.576  0.00  0.00    +0.000 C 
ATOM     23  C   UNL     1       1.739   5.767  18.162  0.00  0.00    +0.000 C 
ATOM     24  C   UNL     1       1.909   4.312  17.687  0.00  0.00    +0.000 C 
ATOM     25  C   UNL     1       3.406   3.965  17.623  0.00  0.00    +0.000 C 
ATOM     26  C   UNL     1       4.042   4.135  19.010  0.00  0.00    +0.000 C 
ATOM     27  C   UNL     1       3.348   3.178  19.992  0.00  0.00    +0.000 C 
ATOM     28  C   UNL     1       1.852   3.512  20.077  0.00  0.00    +0.000 C 
ATOM     29  C   UNL     1       1.211   3.375  18.686  0.00  0.00    +0.000 C 
ATOM     30  C   UNL     1       1.680   4.961  20.561  0.00  0.00    +0.000 C 
ATOM     31  C   UNL     1       3.853   5.591  19.489  0.00  0.00    +0.000 C 
ENDBRANCH  21  22
ENDBRANCH  18  21
ENDBRANCH   1  19
BRANCH   1  32
ATOM     32  C   UNL     1      -1.331  10.062  18.132  0.00  0.00    +0.000 C 
BRANCH  32  33
ATOM     33  C   UNL     1      -1.875  10.609  16.822  0.00  0.00    +0.000 C 
BRANCH  33  34
ATOM     34  O   UNL     1      -2.456  11.888  17.016  0.00  0.00    +0.000 OA
ATOM     35  H   UNL     1      -3.409  11.808  16.826  0.00  0.00    +0.000 HD
ENDBRANCH  33  34
ENDBRANCH  32  33
ENDBRANCH   1  32
TORSDOF 9
ENDMDL
MODEL 5
REMARK VINA RESULT:      -7.8      6.911     11.555
REMARK  Name = 
REMARK  9 active torsions:
REMARK  status: ('A' for Active; 'I' for Inactive)
REMARK    1  A    between atoms: C_2  and  C_3
REMARK    2  A    between atoms: C_3  and  C_4
REMARK    3  A    between atoms: N_14  and  C_15
REMARK    4  A    between atoms: C_15  and  C_16
REMARK    5  A    between atoms: C_15  and  C_19
REMARK    6  A    between atoms: C_16  and  C_17
REMARK    7  A    between atoms: C_17  and  O_18
REMARK    8  A    between atoms: N_24  and  C_25
REMARK    9  A    between atoms: C_25  and  C_26
REMARK                            x       y       z     vdW  Elec       q    Type
REMARK                         _______ _______ _______ _____ _____    ______ ____
ROOT
ATOM      1  C   UNL     1       7.893   6.700  17.624  0.00  0.00    +0.000 C 
ENDROOT
BRANCH   1   2
ATOM      2  C   UNL     1       7.043   6.101  16.457  0.00  0.00    +0.000 C 
ATOM      3  O   UNL     1       7.490   6.188  15.302  0.00  0.00    +0.000 OA
ATOM      4  N   UNL     1       5.852   5.440  16.705  0.00  0.00    +0.000 N 
ATOM      5  C   UNL     1       5.131   4.792  15.598  0.00  0.00    +0.000 C 
ATOM      6  C   UNL     1       4.853   3.296  15.898  0.00  0.00    +0.000 C 
ATOM      7  N   UNL     1       4.260   3.009  17.231  0.00  0.00    +0.000 NA
ATOM      8  C   UNL     1       5.061   3.705  18.261  0.00  0.00    +0.000 C 
ATOM      9  C   UNL     1       5.242   5.210  18.014  0.00  0.00    +0.000 C 
BRANCH   7  10
ATOM     10  C   UNL     1       2.831   3.376  17.252  0.00  0.00    +0.000 C 
BRANCH  10  11
ATOM     11  C   UNL     1       2.202   3.429  18.631  0.00  0.00    +0.000 A 
ATOM     12  C   UNL     1       1.825   4.659  19.188  0.00  0.00    +0.000 A 
ATOM     13  C   UNL     1       1.215   4.718  20.445  0.00  0.00    +0.000 A 
ATOM     14  C   UNL     1       0.979   3.546  21.155  0.00  0.00    +0.000 A 
ATOM     15  C   UNL     1       1.355   2.317  20.619  0.00  0.00    +0.000 A 
ATOM     16  C   UNL     1       1.965   2.256  19.364  0.00  0.00    +0.000 A 
ENDBRANCH  10  11
ENDBRANCH   7  10
ENDBRANCH   1   2
BRANCH   1  19
ATOM     17  O   UNL     1       9.098   8.782  19.236  0.00  0.00    +0.000 OA
ATOM     18  C   UNL     1       8.446   9.089  18.248  0.00  0.00    +0.000 C 
ATOM     19  N   UNL     1       7.842   8.166  17.433  0.00  0.00    +0.000 N 
ATOM     20  H   UNL     1       7.483   8.463  16.528  0.00  0.00    +0.000 HD
BRANCH  18  21
ATOM     21  C   UNL     1       8.197  10.546  17.849  0.00  0.00    +0.000 C 
BRANCH  21  22
ATOM     22  C   UNL     1       9.266  11.563  18.310  0.00  0.00    +0.000 C 
ATOM     23  C   UNL     1       9.454  11.527  19.847  0.00  0.00    +0.000 C 
ATOM     24  C   UNL     1      10.525  12.541  20.289  0.00  0.00    +0.000 C 
ATOM     25  C   UNL     1      11.870  12.188  19.631  0.00  0.00    +0.000 C 
ATOM     26  C   UNL     1      11.727  12.219  18.103  0.00  0.00    +0.000 C 
ATOM     27  C   UNL     1      11.316  13.636  17.673  0.00  0.00    +0.000 C 
ATOM     28  C   UNL     1       9.971  14.007  18.314  0.00  0.00    +0.000 C 
ATOM     29  C   UNL     1      10.094  13.949  19.846  0.00  0.00    +0.000 C 
ATOM     30  C   UNL     1       8.899  13.000  17.864  0.00  0.00    +0.000 C 
ATOM     31  C   UNL     1      10.640  11.213  17.666  0.00  0.00    +0.000 C 
ENDBRANCH  21  22
ENDBRANCH  18  21
ENDBRANCH   1  19
BRANCH   1  32
ATOM     32  C   UNL     1       7.464   6.293  19.046  0.00  0.00    +0.000 C 
BRANCH  32  33
ATOM     33  C   UNL     1       8.347   5.258  19.722  0.00  0.00    +0.000 C 
BRANCH  33  34
ATOM     34  O   UNL     1       8.206   5.322  21.132  0.00  0.00    +0.000 OA
ATOM     35  H   UNL     1       8.819   6.007  21.456  0.00  0.00    +0.000 HD
ENDBRANCH  33  34
ENDBRANCH  32  33
ENDBRANCH   1  32
TORSDOF 9
ENDMDL
MODEL 6
REMARK VINA RESULT:      -7.8      3.708      4.696
REMARK  Name = 
REMARK  9 active torsions:
REMARK  status: ('A' for Active; 'I' for Inactive)
REMARK    1  A    between atoms: C_2  and  C_3
REMARK    2  A    between atoms: C_3  and  C_4
REMARK    3  A    between atoms: N_14  and  C_15
REMARK    4  A    between atoms: C_15  and  C_16
REMARK    5  A    between atoms: C_15  and  C_19
REMARK    6  A    between atoms: C_16  and  C_17
REMARK    7  A    between atoms: C_17  and  O_18
REMARK    8  A    between atoms: N_24  and  C_25
REMARK    9  A    between atoms: C_25  and  C_26
REMARK                            x       y       z     vdW  Elec       q    Type
REMARK                         _______ _______ _______ _____ _____    ______ ____
ROOT
ATOM      1  C   UNL     1       2.000   8.535  19.149  0.00  0.00    +0.000 C 
ENDROOT
BRANCH   1   2
ATOM      2  C   UNL     1       1.134   8.198  20.406  0.00  0.00    +0.000 C 
ATOM      3  O   UNL     1       1.284   7.087  20.941  0.00  0.00    +0.000 OA
ATOM      4  N   UNL     1       0.264   9.130  20.945  0.00  0.00    +0.000 N 
ATOM      5  C   UNL     1      -0.455   8.823  22.192  0.00  0.00    +0.000 C 
ATOM      6  C   UNL     1      -0.220   9.914  23.269  0.00  0.00    +0.000 C 
ATOM      7  N   UNL     1      -0.413  11.316  22.813  0.00  0.00    +0.000 NA
ATOM      8  C   UNL     1       0.352  11.511  21.561  0.00  0.00    +0.000 C 
ATOM      9  C   UNL     1       0.034  10.490  20.459  0.00  0.00    +0.000 C 
BRANCH   7  10
ATOM     10  C   UNL     1      -1.848  11.625  22.677  0.00  0.00    +0.000 C 
BRANCH  10  11
ATOM     11  C   UNL     1      -2.300  12.896  23.369  0.00  0.00    +0.000 A 
ATOM     12  C   UNL     1      -1.373  13.903  23.670  0.00  0.00    +0.000 A 
ATOM     13  C   UNL     1      -1.782  15.094  24.280  0.00  0.00    +0.000 A 
ATOM     14  C   UNL     1      -3.123  15.284  24.595  0.00  0.00    +0.000 A 
ATOM     15  C   UNL     1      -4.055  14.289  24.311  0.00  0.00    +0.000 A 
ATOM     16  C   UNL     1      -3.648  13.099  23.703  0.00  0.00    +0.000 A 
ENDBRANCH  10  11
ENDBRANCH   7  10
ENDBRANCH   1   2
BRANCH   1  19
ATOM     17  O   UNL     1       4.433   7.647  17.854  0.00  0.00    +0.000 OA
ATOM     18  C   UNL     1       3.475   6.889  17.917  0.00  0.00    +0.000 C 
ATOM     19  N   UNL     1       2.287   7.232  18.510  0.00  0.00    +0.000 N 
ATOM     20  H   UNL     1       1.602   6.505  18.705  0.00  0.00    +0.000 HD
BRANCH  18  21
ATOM     21  C   UNL     1       3.491   5.491  17.290  0.00  0.00    +0.000 C 
BRANCH  21  22
ATOM     22  C   UNL     1       3.051   4.334  18.216  0.00  0.00    +0.000 C 
ATOM     23  C   UNL     1       3.335   4.660  19.703  0.00  0.00    +0.000 C 
ATOM     24  C   UNL     1       2.888   3.500  20.611  0.00  0.00    +0.000 C 
ATOM     25  C   UNL     1       1.375   3.275  20.449  0.00  0.00    +0.000 C 
ATOM     26  C   UNL     1       1.051   2.942  18.985  0.00  0.00    +0.000 C 
ATOM     27  C   UNL     1       1.793   1.655  18.596  0.00  0.00    +0.000 C 
ATOM     28  C   UNL     1       3.308   1.860  18.744  0.00  0.00    +0.000 C 
ATOM     29  C   UNL     1       3.640   2.225  20.200  0.00  0.00    +0.000 C 
ATOM     30  C   UNL     1       3.758   3.011  17.829  0.00  0.00    +0.000 C 
ATOM     31  C   UNL     1       1.518   4.101  18.077  0.00  0.00    +0.000 C 
ENDBRANCH  21  22
ENDBRANCH  18  21
ENDBRANCH   1  19
BRANCH   1  32
ATOM     32  C   UNL     1       1.381   9.535  18.155  0.00  0.00    +0.000 C 
BRANCH  32  33
ATOM     33  C   UNL     1       2.276  10.697  17.757  0.00  0.00    +0.000 C 
BRANCH  33  34
ATOM     34  O   UNL     1       1.573  11.925  17.848  0.00  0.00    +0.000 OA
ATOM     35  H   UNL     1       1.393  12.227  16.938  0.00  0.00    +0.000 HD
ENDBRANCH  33  34
ENDBRANCH  32  33
ENDBRANCH   1  32
TORSDOF 9
ENDMDL
MODEL 7
REMARK VINA RESULT:      -7.7      0.905      1.764
REMARK  Name = 
REMARK  9 active torsions:
REMARK  status: ('A' for Active; 'I' for Inactive)
REMARK    1  A    between atoms: C_2  and  C_3
REMARK    2  A    between atoms: C_3  and  C_4
REMARK    3  A    between atoms: N_14  and  C_15
REMARK    4  A    between atoms: C_15  and  C_16
REMARK    5  A    between atoms: C_15  and  C_19
REMARK    6  A    between atoms: C_16  and  C_17
REMARK    7  A    between atoms: C_17  and  O_18
REMARK    8  A    between atoms: N_24  and  C_25
REMARK    9  A    between atoms: C_25  and  C_26
REMARK                            x       y       z     vdW  Elec       q    Type
REMARK                         _______ _______ _______ _____ _____    ______ ____
ROOT
ATOM      1  C   UNL     1       1.225   9.586  18.647  0.00  0.00    +0.000 C 
ENDROOT
BRANCH   1   2
ATOM      2  C   UNL     1       0.866  10.454  19.896  0.00  0.00    +0.000 C 
ATOM      3  O   UNL     1       0.807   9.892  21.002  0.00  0.00    +0.000 OA
ATOM      4  N   UNL     1       0.675  11.820  19.787  0.00  0.00    +0.000 N 
ATOM      5  C   UNL     1       0.446  12.625  20.997  0.00  0.00    +0.000 C 
ATOM      6  C   UNL     1       1.458  13.795  21.103  0.00  0.00    +0.000 C 
ATOM      7  N   UNL     1       1.617  14.618  19.874  0.00  0.00    +0.000 NA
ATOM      8  C   UNL     1       1.842  13.710  18.727  0.00  0.00    +0.000 C 
ATOM      9  C   UNL     1       0.775  12.618  18.565  0.00  0.00    +0.000 C 
BRANCH   7  10
ATOM     10  C   UNL     1       0.458  15.512  19.695  0.00  0.00    +0.000 C 
BRANCH  10  11
ATOM     11  C   UNL     1       0.606  16.543  18.593  0.00  0.00    +0.000 A 
ATOM     12  C   UNL     1       1.876  16.865  18.095  0.00  0.00    +0.000 A 
ATOM     13  C   UNL     1       2.024  17.792  17.057  0.00  0.00    +0.000 A 
ATOM     14  C   UNL     1       0.901  18.404  16.512  0.00  0.00    +0.000 A 
ATOM     15  C   UNL     1      -0.366  18.101  17.002  0.00  0.00    +0.000 A 
ATOM     16  C   UNL     1      -0.516  17.177  18.039  0.00  0.00    +0.000 A 
ENDBRANCH  10  11
ENDBRANCH   7  10
ENDBRANCH   1   2
BRANCH   1  19
ATOM     17  O   UNL     1       2.942   7.783  17.168  0.00  0.00    +0.000 OA
ATOM     18  C   UNL     1       2.877   7.686  18.385  0.00  0.00    +0.000 C 
ATOM     19  N   UNL     1       2.088   8.499  19.159  0.00  0.00    +0.000 N 
ATOM     20  H   UNL     1       2.221   8.504  20.168  0.00  0.00    +0.000 HD
BRANCH  18  21
ATOM     21  C   UNL     1       3.636   6.610  19.166  0.00  0.00    +0.000 C 
BRANCH  21  22
ATOM     22  C   UNL     1       2.946   5.230  19.254  0.00  0.00    +0.000 C 
ATOM     23  C   UNL     1       2.019   5.140  20.491  0.00  0.00    +0.000 C 
ATOM     24  C   UNL     1       1.336   3.761  20.562  0.00  0.00    +0.000 C 
ATOM     25  C   UNL     1       0.480   3.547  19.302  0.00  0.00    +0.000 C 
ATOM     26  C   UNL     1       1.365   3.623  18.050  0.00  0.00    +0.000 C 
ATOM     27  C   UNL     1       2.426   2.515  18.128  0.00  0.00    +0.000 C 
ATOM     28  C   UNL     1       3.298   2.714  19.376  0.00  0.00    +0.000 C 
ATOM     29  C   UNL     1       2.416   2.671  20.635  0.00  0.00    +0.000 C 
ATOM     30  C   UNL     1       3.989   4.086  19.301  0.00  0.00    +0.000 C 
ATOM     31  C   UNL     1       2.061   5.001  17.994  0.00  0.00    +0.000 C 
ENDBRANCH  21  22
ENDBRANCH  18  21
ENDBRANCH   1  19
BRANCH   1  32
ATOM     32  C   UNL     1       0.032   9.038  17.843  0.00  0.00    +0.000 C 
BRANCH  32  33
ATOM     33  C   UNL     1      -1.277   9.789  18.024  0.00  0.00    +0.000 C 
BRANCH  33  34
ATOM     34  O   UNL     1      -1.653  10.439  16.820  0.00  0.00    +0.000 OA
ATOM     35  H   UNL     1      -1.393   9.858  16.082  0.00  0.00    +0.000 HD
ENDBRANCH  33  34
ENDBRANCH  32  33
ENDBRANCH   1  32
TORSDOF 9
ENDMDL
MODEL 8
REMARK VINA RESULT:      -7.6      1.667      2.821
REMARK  Name = 
REMARK  9 active torsions:
REMARK  status: ('A' for Active; 'I' for Inactive)
REMARK    1  A    between atoms: C_2  and  C_3
REMARK    2  A    between atoms: C_3  and  C_4
REMARK    3  A    between atoms: N_14  and  C_15
REMARK    4  A    between atoms: C_15  and  C_16
REMARK    5  A    between atoms: C_15  and  C_19
REMARK    6  A    between atoms: C_16  and  C_17
REMARK    7  A    between atoms: C_17  and  O_18
REMARK    8  A    between atoms: N_24  and  C_25
REMARK    9  A    between atoms: C_25  and  C_26
REMARK                            x       y       z     vdW  Elec       q    Type
REMARK                         _______ _______ _______ _____ _____    ______ ____
ROOT
ATOM      1  C   UNL     1       0.471   9.048  20.875  0.00  0.00    +0.000 C 
ENDROOT
BRANCH   1   2
ATOM      2  C   UNL     1       1.142  10.436  21.128  0.00  0.00    +0.000 C 
ATOM      3  O   UNL     1       2.223  10.462  21.740  0.00  0.00    +0.000 OA
ATOM      4  N   UNL     1       0.580  11.602  20.638  0.00  0.00    +0.000 N 
ATOM      5  C   UNL     1       1.291  12.880  20.798  0.00  0.00    +0.000 C 
ATOM      6  C   UNL     1       1.489  13.598  19.437  0.00  0.00    +0.000 C 
ATOM      7  N   UNL     1       0.272  13.707  18.589  0.00  0.00    +0.000 NA
ATOM      8  C   UNL     1      -0.358  12.372  18.496  0.00  0.00    +0.000 C 
ATOM      9  C   UNL     1      -0.649  11.713  19.853  0.00  0.00    +0.000 C 
BRANCH   7  10
ATOM     10  C   UNL     1      -0.633  14.747  19.113  0.00  0.00    +0.000 C 
BRANCH  10  11
ATOM     11  C   UNL     1      -0.001  16.112  19.307  0.00  0.00    +0.000 A 
ATOM     12  C   UNL     1       0.211  16.614  20.599  0.00  0.00    +0.000 A 
ATOM     13  C   UNL     1       0.822  17.858  20.792  0.00  0.00    +0.000 A 
ATOM     14  C   UNL     1       1.224  18.609  19.692  0.00  0.00    +0.000 A 
ATOM     15  C   UNL     1       1.013  18.127  18.403  0.00  0.00    +0.000 A 
ATOM     16  C   UNL     1       0.402  16.886  18.209  0.00  0.00    +0.000 A 
ENDBRANCH  10  11
ENDBRANCH   7  10
ENDBRANCH   1   2
BRANCH   1  19
ATOM     17  O   UNL     1       1.659   8.275  18.350  0.00  0.00    +0.000 OA
ATOM     18  C   UNL     1       2.095   7.800  19.389  0.00  0.00    +0.000 C 
ATOM     19  N   UNL     1       1.588   8.112  20.625  0.00  0.00    +0.000 N 
ATOM     20  H   UNL     1       2.110   7.843  21.456  0.00  0.00    +0.000 HD
BRANCH  18  21
ATOM     21  C   UNL     1       3.224   6.765  19.409  0.00  0.00    +0.000 C 
BRANCH  21  22
ATOM     22  C   UNL     1       2.780   5.286  19.457  0.00  0.00    +0.000 C 
ATOM     23  C   UNL     1       3.997   4.333  19.551  0.00  0.00    +0.000 C 
ATOM     24  C   UNL     1       3.538   2.864  19.603  0.00  0.00    +0.000 C 
ATOM     25  C   UNL     1       2.657   2.645  20.845  0.00  0.00    +0.000 C 
ATOM     26  C   UNL     1       1.432   3.569  20.787  0.00  0.00    +0.000 C 
ATOM     27  C   UNL     1       0.617   3.230  19.529  0.00  0.00    +0.000 C 
ATOM     28  C   UNL     1       1.476   3.449  18.275  0.00  0.00    +0.000 C 
ATOM     29  C   UNL     1       2.722   2.551  18.338  0.00  0.00    +0.000 C 
ATOM     30  C   UNL     1       1.927   4.919  18.217  0.00  0.00    +0.000 C 
ATOM     31  C   UNL     1       1.899   5.039  20.718  0.00  0.00    +0.000 C 
ENDBRANCH  21  22
ENDBRANCH  18  21
ENDBRANCH   1  19
BRANCH   1  32
ATOM     32  C   UNL     1      -0.463   8.539  21.989  0.00  0.00    +0.000 C 
BRANCH  32  33
ATOM     33  C   UNL     1      -0.691   9.504  23.141  0.00  0.00    +0.000 C 
BRANCH  33  34
ATOM     34  O   UNL     1       0.452   9.567  23.977  0.00  0.00    +0.000 OA
ATOM     35  H   UNL     1       0.214  10.101  24.757  0.00  0.00    +0.000 HD
ENDBRANCH  33  34
ENDBRANCH  32  33
ENDBRANCH   1  32
TORSDOF 9
ENDMDL
MODEL 9
REMARK VINA RESULT:      -7.6      2.457      4.502
REMARK  Name = 
REMARK  9 active torsions:
REMARK  status: ('A' for Active; 'I' for Inactive)
REMARK    1  A    between atoms: C_2  and  C_3
REMARK    2  A    between atoms: C_3  and  C_4
REMARK    3  A    between atoms: N_14  and  C_15
REMARK    4  A    between atoms: C_15  and  C_16
REMARK    5  A    between atoms: C_15  and  C_19
REMARK    6  A    between atoms: C_16  and  C_17
REMARK    7  A    between atoms: C_17  and  O_18
REMARK    8  A    between atoms: N_24  and  C_25
REMARK    9  A    between atoms: C_25  and  C_26
REMARK                            x       y       z     vdW  Elec       q    Type
REMARK                         _______ _______ _______ _____ _____    ______ ____
ROOT
ATOM      1  C   UNL     1       0.217  10.123  18.288  0.00  0.00    +0.000 C 
ENDROOT
BRANCH   1   2
ATOM      2  C   UNL     1       0.681  11.498  18.868  0.00  0.00    +0.000 C 
ATOM      3  O   UNL     1       1.698  12.024  18.386  0.00  0.00    +0.000 OA
ATOM      4  N   UNL     1      -0.048  12.143  19.851  0.00  0.00    +0.000 N 
ATOM      5  C   UNL     1       0.355  13.486  20.299  0.00  0.00    +0.000 C 
ATOM      6  C   UNL     1      -0.814  14.500  20.184  0.00  0.00    +0.000 C 
ATOM      7  N   UNL     1      -2.108  14.053  20.765  0.00  0.00    +0.000 NA
ATOM      8  C   UNL     1      -2.412  12.700  20.249  0.00  0.00    +0.000 C 
ATOM      9  C   UNL     1      -1.290  11.673  20.463  0.00  0.00    +0.000 C 
BRANCH   7  10
ATOM     10  C   UNL     1      -2.066  14.123  22.238  0.00  0.00    +0.000 C 
BRANCH  10  11
ATOM     11  C   UNL     1      -3.347  13.712  22.937  0.00  0.00    +0.000 A 
ATOM     12  C   UNL     1      -4.553  14.361  22.637  0.00  0.00    +0.000 A 
ATOM     13  C   UNL     1      -5.748  13.971  23.252  0.00  0.00    +0.000 A 
ATOM     14  C   UNL     1      -5.743  12.928  24.173  0.00  0.00    +0.000 A 
ATOM     15  C   UNL     1      -4.552  12.280  24.487  0.00  0.00    +0.000 A 
ATOM     16  C   UNL     1      -3.358  12.669  23.875  0.00  0.00    +0.000 A 
ENDBRANCH  10  11
ENDBRANCH   7  10
ENDBRANCH   1   2
BRANCH   1  19
ATOM     17  O   UNL     1       2.572   8.483  17.902  0.00  0.00    +0.000 OA
ATOM     18  C   UNL     1       1.921   8.366  18.930  0.00  0.00    +0.000 C 
ATOM     19  N   UNL     1       0.793   9.102  19.190  0.00  0.00    +0.000 N 
ATOM     20  H   UNL     1       0.409   9.104  20.133  0.00  0.00    +0.000 HD
BRANCH  18  21
ATOM     21  C   UNL     1       2.274   7.343  20.014  0.00  0.00    +0.000 C 
BRANCH  21  22
ATOM     22  C   UNL     1       2.412   5.879  19.539  0.00  0.00    +0.000 C 
ATOM     23  C   UNL     1       3.893   5.426  19.529  0.00  0.00    +0.000 C 
ATOM     24  C   UNL     1       4.013   3.965  19.057  0.00  0.00    +0.000 C 
ATOM     25  C   UNL     1       3.236   3.050  20.019  0.00  0.00    +0.000 C 
ATOM     26  C   UNL     1       1.758   3.463  20.054  0.00  0.00    +0.000 C 
ATOM     27  C   UNL     1       1.171   3.318  18.641  0.00  0.00    +0.000 C 
ATOM     28  C   UNL     1       1.929   4.229  17.665  0.00  0.00    +0.000 C 
ATOM     29  C   UNL     1       3.417   3.844  17.646  0.00  0.00    +0.000 C 
ATOM     30  C   UNL     1       1.800   5.690  18.129  0.00  0.00    +0.000 C 
ATOM     31  C   UNL     1       1.645   4.934  20.510  0.00  0.00    +0.000 C 
ENDBRANCH  21  22
ENDBRANCH  18  21
ENDBRANCH   1  19
BRANCH   1  32
ATOM     32  C   UNL     1      -1.303   9.944  18.119  0.00  0.00    +0.000 C 
BRANCH  32  33
ATOM     33  C   UNL     1      -1.895  10.548  16.856  0.00  0.00    +0.000 C 
BRANCH  33  34
ATOM     34  O   UNL     1      -2.909   9.710  16.327  0.00  0.00    +0.000 OA
ATOM     35  H   UNL     1      -3.336   9.259  17.079  0.00  0.00    +0.000 HD
ENDBRANCH  33  34
ENDBRANCH  32  33
ENDBRANCH   1  32
TORSDOF 9
ENDMDL
