MODEL 1
REMARK VINA RESULT:      -8.0      0.000      0.000
REMARK  Name = 
REMARK  12 active torsions:
REMARK  status: ('A' for Active; 'I' for Inactive)
REMARK    1  A    between atoms: C_1  and  C_2
REMARK    2  A    between atoms: C_2  and  C_3
REMARK    3  A    between atoms: C_3  and  C_4
REMARK    4  A    between atoms: C_3  and  C_5
REMARK    5  A    between atoms: C_3  and  C_6
REMARK    6  A    between atoms: C_6  and  C_8
REMARK    7  A    between atoms: C_14  and  C_15
REMARK    8  A    between atoms: C_15  and  S_17
REMARK    9  A    between atoms: S_17  and  C_18
REMARK   10  A    between atoms: C_18  and  C_19
REMARK   11  A    between atoms: C_19  and  C_20
REMARK   12  A    between atoms: C_20  and  C_21
REMARK                            x       y       z     vdW  Elec       q    Type
REMARK                         _______ _______ _______ _____ _____    ______ ____
ROOT
ATOM      1  C   UNL     1       4.755   3.680  18.637  0.00  0.00    +0.000 C 
ATOM      2  O   UNL     1       5.447   3.279  19.568  0.00  0.00    +0.000 OA
ATOM      3  N   UNL     1       5.278   4.355  17.547  0.00  0.00    +0.000 N 
ATOM      4  C   UNL     1       4.570   4.873  16.389  0.00  0.00    +0.000 C 
ATOM      5  C   UNL     1       5.471   4.471  15.235  0.00  0.00    +0.000 C 
ATOM      6  C   UNL     1       6.877   4.637  15.810  0.00  0.00    +0.000 C 
ATOM      7  C   UNL     1       6.726   4.359  17.315  0.00  0.00    +0.000 C 
ENDROOT
BRANCH   1   8
ATOM      8  C   UNL     1       3.254   3.359  18.647  0.00  0.00    +0.000 C 
ATOM      9  O   UNL     1       2.817   2.626  17.761  0.00  0.00    +0.000 OA
BRANCH   8  10
ATOM     10  C   UNL     1       2.399   3.861  19.822  0.00  0.00    +0.000 C 
ATOM     11  C   UNL     1       2.683   2.970  21.049  0.00  0.00    +0.000 C 
ATOM     12  C   UNL     1       0.899   3.745  19.494  0.00  0.00    +0.000 C 
BRANCH  10  14
ATOM     13  C   UNL     1       2.451   6.343  19.029  0.00  0.00    +0.000 C 
ATOM     14  C   UNL     1       2.722   5.342  20.148  0.00  0.00    +0.000 C 
ENDBRANCH  10  14
ENDBRANCH   8  10
ENDBRANCH   1   8
BRANCH   7  15
ATOM     15  C   UNL     1       7.460   5.431  18.142  0.00  0.00    +0.000 C 
ATOM     16  O   UNL     1       8.016   5.226  19.214  0.00  0.00    +0.000 OA
BRANCH  15  17
ATOM     17  S   UNL     1       7.321   7.063  17.469  0.00  0.00    +0.000 S 
BRANCH  17  18
ATOM     18  C   UNL     1       8.345   7.985  18.658  0.00  0.00    +0.000 C 
BRANCH  18  19
ATOM     19  C   UNL     1       8.481   9.439  18.192  0.00  0.00    +0.000 C 
BRANCH  19  20
ATOM     20  C   UNL     1       9.409  10.244  19.109  0.00  0.00    +0.000 C 
BRANCH  20  21
ATOM     21  C   UNL     1       9.822  11.556  18.491  0.00  0.00    +0.000 A 
ATOM     22  C   UNL     1      11.024  11.688  17.791  0.00  0.00    +0.000 A 
ATOM     23  C   UNL     1      11.368  12.916  17.228  0.00  0.00    +0.000 A 
ATOM     24  C   UNL     1      10.490  13.975  17.382  0.00  0.00    +0.000 A 
ATOM     25  N   UNL     1       9.317  13.887  18.045  0.00  0.00    +0.000 NA
ATOM     26  C   UNL     1       9.012  12.682  18.580  0.00  0.00    +0.000 A 
ENDBRANCH  20  21
ENDBRANCH  19  20
ENDBRANCH  18  19
ENDBRANCH  17  18
ENDBRANCH  15  17
ENDBRANCH   7  15
TORSDOF 9
ENDMDL
MODEL 2
REMARK VINA RESULT:      -8.0      1.084      1.295
REMARK  Name = 
REMARK  12 active torsions:
REMARK  status: ('A' for Active; 'I' for Inactive)
REMARK    1  A    between atoms: C_1  and  C_2
REMARK    2  A    between atoms: C_2  and  C_3
REMARK    3  A    between atoms: C_3  and  C_4
REMARK    4  A    between atoms: C_3  and  C_5
REMARK    5  A    between atoms: C_3  and  C_6
REMARK    6  A    between atoms: C_6  and  C_8
REMARK    7  A    between atoms: C_14  and  C_15
REMARK    8  A    between atoms: C_15  and  S_17
REMARK    9  A    between atoms: S_17  and  C_18
REMARK   10  A    between atoms: C_18  and  C_19
REMARK   11  A    between atoms: C_19  and  C_20
REMARK   12  A    between atoms: C_20  and  C_21
REMARK                            x       y       z     vdW  Elec       q    Type
REMARK                         _______ _______ _______ _____ _____    ______ ____
ROOT
ATOM      1  C   UNL     1       4.709   3.322  18.741  0.00  0.00    +0.000 C 
ATOM      2  O   UNL     1       5.335   3.167  19.785  0.00  0.00    +0.000 OA
ATOM      3  N   UNL     1       5.199   4.052  17.672  0.00  0.00    +0.000 N 
ATOM      4  C   UNL     1       4.562   4.304  16.390  0.00  0.00    +0.000 C 
ATOM      5  C   UNL     1       5.695   4.093  15.403  0.00  0.00    +0.000 C 
ATOM      6  C   UNL     1       6.912   4.653  16.136  0.00  0.00    +0.000 C 
ATOM      7  C   UNL     1       6.617   4.425  17.628  0.00  0.00    +0.000 C 
ENDROOT
BRANCH   1   8
ATOM      8  C   UNL     1       3.354   2.618  18.587  0.00  0.00    +0.000 C 
ATOM      9  O   UNL     1       3.316   1.584  17.922  0.00  0.00    +0.000 OA
BRANCH   8  10
ATOM     10  C   UNL     1       2.145   3.164  19.364  0.00  0.00    +0.000 C 
ATOM     11  C   UNL     1       2.242   2.674  20.824  0.00  0.00    +0.000 C 
ATOM     12  C   UNL     1       0.828   2.624  18.775  0.00  0.00    +0.000 C 
BRANCH  10  14
ATOM     13  C   UNL     1       1.586   5.403  20.573  0.00  0.00    +0.000 C 
ATOM     14  C   UNL     1       2.111   4.713  19.318  0.00  0.00    +0.000 C 
ENDBRANCH  10  14
ENDBRANCH   8  10
ENDBRANCH   1   8
BRANCH   7  15
ATOM     15  C   UNL     1       6.925   5.695  18.444  0.00  0.00    +0.000 C 
ATOM     16  O   UNL     1       7.341   5.701  19.596  0.00  0.00    +0.000 OA
BRANCH  15  17
ATOM     17  S   UNL     1       6.493   7.195  17.609  0.00  0.00    +0.000 S 
BRANCH  17  18
ATOM     18  C   UNL     1       8.135   7.966  17.470  0.00  0.00    +0.000 C 
BRANCH  18  19
ATOM     19  C   UNL     1       8.071   9.400  18.007  0.00  0.00    +0.000 C 
BRANCH  19  20
ATOM     20  C   UNL     1       9.001   9.597  19.210  0.00  0.00    +0.000 C 
BRANCH  20  21
ATOM     21  C   UNL     1       9.825  10.854  19.093  0.00  0.00    +0.000 A 
ATOM     22  C   UNL     1      10.218  11.578  20.222  0.00  0.00    +0.000 A 
ATOM     23  C   UNL     1      10.985  12.732  20.073  0.00  0.00    +0.000 A 
ATOM     24  C   UNL     1      11.339  13.123  18.793  0.00  0.00    +0.000 A 
ATOM     25  N   UNL     1      10.986  12.448  17.679  0.00  0.00    +0.000 NA
ATOM     26  C   UNL     1      10.241  11.332  17.856  0.00  0.00    +0.000 A 
ENDBRANCH  20  21
ENDBRANCH  19  20
ENDBRANCH  18  19
ENDBRANCH  17  18
ENDBRANCH  15  17
ENDBRANCH   7  15
TORSDOF 9
ENDMDL
MODEL 3
REMARK VINA RESULT:      -7.8      1.111      1.709
REMARK  Name = 
REMARK  12 active torsions:
REMARK  status: ('A' for Active; 'I' for Inactive)
REMARK    1  A    between atoms: C_1  and  C_2
REMARK    2  A    between atoms: C_2  and  C_3
REMARK    3  A    between atoms: C_3  and  C_4
REMARK    4  A    between atoms: C_3  and  C_5
REMARK    5  A    between atoms: C_3  and  C_6
REMARK    6  A    between atoms: C_6  and  C_8
REMARK    7  A    between atoms: C_14  and  C_15
REMARK    8  A    between atoms: C_15  and  S_17
REMARK    9  A    between atoms: S_17  and  C_18
REMARK   10  A    between atoms: C_18  and  C_19
REMARK   11  A    between atoms: C_19  and  C_20
REMARK   12  A    between atoms: C_20  and  C_21
REMARK                            x       y       z     vdW  Elec       q    Type
REMARK                         _______ _______ _______ _____ _____    ______ ____
ROOT
ATOM      1  C   UNL     1       4.927   3.844  18.696  0.00  0.00    +0.000 C 
ATOM      2  O   UNL     1       5.563   3.796  19.744  0.00  0.00    +0.000 OA
ATOM      3  N   UNL     1       5.459   4.334  17.515  0.00  0.00    +0.000 N 
ATOM      4  C   UNL     1       4.814   4.441  16.217  0.00  0.00    +0.000 C 
ATOM      5  C   UNL     1       5.892   3.953  15.265  0.00  0.00    +0.000 C 
ATOM      6  C   UNL     1       7.180   4.493  15.883  0.00  0.00    +0.000 C 
ATOM      7  C   UNL     1       6.906   4.543  17.395  0.00  0.00    +0.000 C 
ENDROOT
BRANCH   1   8
ATOM      8  C   UNL     1       3.503   3.271  18.674  0.00  0.00    +0.000 C 
ATOM      9  O   UNL     1       3.372   2.063  18.482  0.00  0.00    +0.000 OA
BRANCH   8  10
ATOM     10  C   UNL     1       2.327   4.202  19.014  0.00  0.00    +0.000 C 
ATOM     11  C   UNL     1       1.461   4.376  17.749  0.00  0.00    +0.000 C 
ATOM     12  C   UNL     1       2.837   5.594  19.431  0.00  0.00    +0.000 C 
BRANCH  10  14
ATOM     13  C   UNL     1       2.193   3.458  21.508  0.00  0.00    +0.000 C 
ATOM     14  C   UNL     1       1.476   3.618  20.171  0.00  0.00    +0.000 C 
ENDBRANCH  10  14
ENDBRANCH   8  10
ENDBRANCH   1   8
BRANCH   7  15
ATOM     15  C   UNL     1       7.365   5.890  17.987  0.00  0.00    +0.000 C 
ATOM     16  O   UNL     1       7.638   6.077  19.166  0.00  0.00    +0.000 OA
BRANCH  15  17
ATOM     17  S   UNL     1       7.340   7.221  16.820  0.00  0.00    +0.000 S 
BRANCH  17  18
ATOM     18  C   UNL     1       7.263   8.639  17.959  0.00  0.00    +0.000 C 
BRANCH  18  19
ATOM     19  C   UNL     1       8.526   9.493  17.794  0.00  0.00    +0.000 C 
BRANCH  19  20
ATOM     20  C   UNL     1       9.157   9.839  19.148  0.00  0.00    +0.000 C 
BRANCH  20  21
ATOM     21  C   UNL     1      10.029  11.067  19.072  0.00  0.00    +0.000 A 
ATOM     22  C   UNL     1      10.480  11.714  20.225  0.00  0.00    +0.000 A 
ATOM     23  C   UNL     1      11.290  12.844  20.114  0.00  0.00    +0.000 A 
ATOM     24  C   UNL     1      11.626  13.286  18.846  0.00  0.00    +0.000 A 
ATOM     25  N   UNL     1      11.217  12.684  17.709  0.00  0.00    +0.000 NA
ATOM     26  C   UNL     1      10.432  11.591  17.850  0.00  0.00    +0.000 A 
ENDBRANCH  20  21
ENDBRANCH  19  20
ENDBRANCH  18  19
ENDBRANCH  17  18
ENDBRANCH  15  17
ENDBRANCH   7  15
TORSDOF 9
ENDMDL
MODEL 4
REMARK VINA RESULT:      -7.8      1.332      1.768
REMARK  Name = 
REMARK  12 active torsions:
REMARK  status: ('A' for Active; 'I' for Inactive)
REMARK    1  A    between atoms: C_1  and  C_2
REMARK    2  A    between atoms: C_2  and  C_3
REMARK    3  A    between atoms: C_3  and  C_4
REMARK    4  A    between atoms: C_3  and  C_5
REMARK    5  A    between atoms: C_3  and  C_6
REMARK    6  A    between atoms: C_6  and  C_8
REMARK    7  A    between atoms: C_14  and  C_15
REMARK    8  A    between atoms: C_15  and  S_17
REMARK    9  A    between atoms: S_17  and  C_18
REMARK   10  A    between atoms: C_18  and  C_19
REMARK   11  A    between atoms: C_19  and  C_20
REMARK   12  A    between atoms: C_20  and  C_21
REMARK                            x       y       z     vdW  Elec       q    Type
REMARK                         _______ _______ _______ _____ _____    ______ ____
ROOT
ATOM      1  C   UNL     1       4.596   3.363  18.711  0.00  0.00    +0.000 C 
ATOM      2  O   UNL     1       5.106   3.203  19.816  0.00  0.00    +0.000 OA
ATOM      3  N   UNL     1       5.215   4.068  17.693  0.00  0.00    +0.000 N 
ATOM      4  C   UNL     1       4.721   4.322  16.350  0.00  0.00    +0.000 C 
ATOM      5  C   UNL     1       5.946   4.072  15.488  0.00  0.00    +0.000 C 
ATOM      6  C   UNL     1       7.094   4.609  16.340  0.00  0.00    +0.000 C 
ATOM      7  C   UNL     1       6.639   4.405  17.795  0.00  0.00    +0.000 C 
ENDROOT
BRANCH   1   8
ATOM      8  C   UNL     1       3.247   2.691  18.421  0.00  0.00    +0.000 C 
ATOM      9  O   UNL     1       3.259   1.534  18.003  0.00  0.00    +0.000 OA
BRANCH   8  10
ATOM     10  C   UNL     1       1.955   3.443  18.781  0.00  0.00    +0.000 C 
ATOM     11  C   UNL     1       0.784   2.439  18.761  0.00  0.00    +0.000 C 
ATOM     12  C   UNL     1       1.653   4.537  17.741  0.00  0.00    +0.000 C 
BRANCH  10  14
ATOM     13  C   UNL     1       1.881   3.175  21.372  0.00  0.00    +0.000 C 
ATOM     14  C   UNL     1       2.071   4.105  20.178  0.00  0.00    +0.000 C 
ENDBRANCH  10  14
ENDBRANCH   8  10
ENDBRANCH   1   8
BRANCH   7  15
ATOM     15  C   UNL     1       6.893   5.676  18.628  0.00  0.00    +0.000 C 
ATOM     16  O   UNL     1       7.284   5.682  19.789  0.00  0.00    +0.000 OA
BRANCH  15  17
ATOM     17  S   UNL     1       6.435   7.171  17.797  0.00  0.00    +0.000 S 
BRANCH  17  18
ATOM     18  C   UNL     1       8.081   7.893  17.515  0.00  0.00    +0.000 C 
BRANCH  18  19
ATOM     19  C   UNL     1       8.289   9.075  18.470  0.00  0.00    +0.000 C 
BRANCH  19  20
ATOM     20  C   UNL     1       9.082  10.207  17.806  0.00  0.00    +0.000 C 
BRANCH  20  21
ATOM     21  C   UNL     1       9.621  11.190  18.814  0.00  0.00    +0.000 A 
ATOM     22  C   UNL     1      10.276  12.358  18.417  0.00  0.00    +0.000 A 
ATOM     23  C   UNL     1      10.756  13.246  19.379  0.00  0.00    +0.000 A 
ATOM     24  C   UNL     1      10.557  12.935  20.713  0.00  0.00    +0.000 A 
ATOM     25  N   UNL     1       9.923  11.822  21.138  0.00  0.00    +0.000 NA
ATOM     26  C   UNL     1       9.470  10.980  20.180  0.00  0.00    +0.000 A 
ENDBRANCH  20  21
ENDBRANCH  19  20
ENDBRANCH  18  19
ENDBRANCH  17  18
ENDBRANCH  15  17
ENDBRANCH   7  15
TORSDOF 9
ENDMDL
MODEL 5
REMARK VINA RESULT:      -7.7      1.415      2.028
REMARK  Name = 
REMARK  12 active torsions:
REMARK  status: ('A' for Active; 'I' for Inactive)
REMARK    1  A    between atoms: C_1  and  C_2
REMARK    2  A    between atoms: C_2  and  C_3
REMARK    3  A    between atoms: C_3  and  C_4
REMARK    4  A    between atoms: C_3  and  C_5
REMARK    5  A    between atoms: C_3  and  C_6
REMARK    6  A    between atoms: C_6  and  C_8
REMARK    7  A    between atoms: C_14  and  C_15
REMARK    8  A    between atoms: C_15  and  S_17
REMARK    9  A    between atoms: S_17  and  C_18
REMARK   10  A    between atoms: C_18  and  C_19
REMARK   11  A    between atoms: C_19  and  C_20
REMARK   12  A    between atoms: C_20  and  C_21
REMARK                            x       y       z     vdW  Elec       q    Type
REMARK                         _______ _______ _______ _____ _____    ______ ____
ROOT
ATOM      1  C   UNL     1       4.674   4.382  19.068  0.00  0.00    +0.000 C 
ATOM      2  O   UNL     1       5.257   3.526  19.726  0.00  0.00    +0.000 OA
ATOM      3  N   UNL     1       5.200   4.926  17.909  0.00  0.00    +0.000 N 
ATOM      4  C   UNL     1       4.611   5.935  17.044  0.00  0.00    +0.000 C 
ATOM      5  C   UNL     1       4.885   5.389  15.654  0.00  0.00    +0.000 C 
ATOM      6  C   UNL     1       6.266   4.751  15.790  0.00  0.00    +0.000 C 
ATOM      7  C   UNL     1       6.347   4.288  17.254  0.00  0.00    +0.000 C 
ENDROOT
BRANCH   1   8
ATOM      8  C   UNL     1       3.270   4.817  19.509  0.00  0.00    +0.000 C 
ATOM      9  O   UNL     1       3.155   5.902  20.076  0.00  0.00    +0.000 OA
BRANCH   8  10
ATOM     10  C   UNL     1       2.069   3.941  19.116  0.00  0.00    +0.000 C 
ATOM     11  C   UNL     1       1.522   4.442  17.762  0.00  0.00    +0.000 C 
ATOM     12  C   UNL     1       0.938   4.068  20.154  0.00  0.00    +0.000 C 
BRANCH  10  14
ATOM     13  C   UNL     1       2.802   1.948  17.606  0.00  0.00    +0.000 C 
ATOM     14  C   UNL     1       2.481   2.451  19.010  0.00  0.00    +0.000 C 
ENDBRANCH  10  14
ENDBRANCH   8  10
ENDBRANCH   1   8
BRANCH   7  15
ATOM     15  C   UNL     1       7.695   4.697  17.880  0.00  0.00    +0.000 C 
ATOM     16  O   UNL     1       8.702   4.000  17.885  0.00  0.00    +0.000 OA
BRANCH  15  17
ATOM     17  S   UNL     1       7.638   6.247  18.734  0.00  0.00    +0.000 S 
BRANCH  17  18
ATOM     18  C   UNL     1       7.818   7.390  17.330  0.00  0.00    +0.000 C 
BRANCH  18  19
ATOM     19  C   UNL     1       7.823   8.834  17.847  0.00  0.00    +0.000 C 
BRANCH  19  20
ATOM     20  C   UNL     1       8.925   9.059  18.888  0.00  0.00    +0.000 C 
BRANCH  20  21
ATOM     21  C   UNL     1       9.286  10.516  19.028  0.00  0.00    +0.000 A 
ATOM     22  C   UNL     1       9.632  11.294  17.920  0.00  0.00    +0.000 A 
ATOM     23  C   UNL     1       9.954  12.639  18.089  0.00  0.00    +0.000 A 
ATOM     24  C   UNL     1       9.912  13.166  19.369  0.00  0.00    +0.000 A 
ATOM     25  N   UNL     1       9.576  12.451  20.464  0.00  0.00    +0.000 NA
ATOM     26  C   UNL     1       9.270  11.148  20.267  0.00  0.00    +0.000 A 
ENDBRANCH  20  21
ENDBRANCH  19  20
ENDBRANCH  18  19
ENDBRANCH  17  18
ENDBRANCH  15  17
ENDBRANCH   7  15
TORSDOF 9
ENDMDL
MODEL 6
REMARK VINA RESULT:      -7.7      1.493      2.016
REMARK  Name = 
REMARK  12 active torsions:
REMARK  status: ('A' for Active; 'I' for Inactive)
REMARK    1  A    between atoms: C_1  and  C_2
REMARK    2  A    between atoms: C_2  and  C_3
REMARK    3  A    between atoms: C_3  and  C_4
REMARK    4  A    between atoms: C_3  and  C_5
REMARK    5  A    between atoms: C_3  and  C_6
REMARK    6  A    between atoms: C_6  and  C_8
REMARK    7  A    between atoms: C_14  and  C_15
REMARK    8  A    between atoms: C_15  and  S_17
REMARK    9  A    between atoms: S_17  and  C_18
REMARK   10  A    between atoms: C_18  and  C_19
REMARK   11  A    between atoms: C_19  and  C_20
REMARK   12  A    between atoms: C_20  and  C_21
REMARK                            x       y       z     vdW  Elec       q    Type
REMARK                         _______ _______ _______ _____ _____    ______ ____
ROOT
ATOM      1  C   UNL     1       5.265   4.449  19.027  0.00  0.00    +0.000 C 
ATOM      2  O   UNL     1       5.963   4.962  19.896  0.00  0.00    +0.000 OA
ATOM      3  N   UNL     1       5.482   4.647  17.674  0.00  0.00    +0.000 N 
ATOM      4  C   UNL     1       4.735   4.097  16.556  0.00  0.00    +0.000 C 
ATOM      5  C   UNL     1       5.830   3.677  15.592  0.00  0.00    +0.000 C 
ATOM      6  C   UNL     1       6.885   4.769  15.758  0.00  0.00    +0.000 C 
ATOM      7  C   UNL     1       6.741   5.243  17.214  0.00  0.00    +0.000 C 
ENDROOT
BRANCH   1   8
ATOM      8  C   UNL     1       4.147   3.489  19.456  0.00  0.00    +0.000 C 
ATOM      9  O   UNL     1       4.447   2.315  19.667  0.00  0.00    +0.000 OA
BRANCH   8  10
ATOM     10  C   UNL     1       2.744   4.060  19.719  0.00  0.00    +0.000 C 
ATOM     11  C   UNL     1       2.838   5.600  19.727  0.00  0.00    +0.000 C 
ATOM     12  C   UNL     1       2.223   3.615  21.097  0.00  0.00    +0.000 C 
BRANCH  10  14
ATOM     13  C   UNL     1       0.918   2.353  18.982  0.00  0.00    +0.000 C 
ATOM     14  C   UNL     1       1.742   3.589  18.634  0.00  0.00    +0.000 C 
ENDBRANCH  10  14
ENDBRANCH   8  10
ENDBRANCH   1   8
BRANCH   7  15
ATOM     15  C   UNL     1       6.734   6.782  17.286  0.00  0.00    +0.000 C 
ATOM     16  O   UNL     1       5.994   7.507  16.633  0.00  0.00    +0.000 OA
BRANCH  15  17
ATOM     17  S   UNL     1       8.008   7.449  18.319  0.00  0.00    +0.000 S 
BRANCH  17  18
ATOM     18  C   UNL     1       8.352   9.001  17.435  0.00  0.00    +0.000 C 
BRANCH  18  19
ATOM     19  C   UNL     1       8.324  10.169  18.428  0.00  0.00    +0.000 C 
BRANCH  19  20
ATOM     20  C   UNL     1       9.541  10.150  19.360  0.00  0.00    +0.000 C 
BRANCH  20  21
ATOM     21  C   UNL     1      10.505  11.271  19.061  0.00  0.00    +0.000 A 
ATOM     22  C   UNL     1      11.195  11.932  20.080  0.00  0.00    +0.000 A 
ATOM     23  C   UNL     1      12.082  12.960  19.764  0.00  0.00    +0.000 A 
ATOM     24  C   UNL     1      12.253  13.289  18.430  0.00  0.00    +0.000 A 
ATOM     25  N   UNL     1      11.611  12.670  17.416  0.00  0.00    +0.000 NA
ATOM     26  C   UNL     1      10.757  11.678  17.756  0.00  0.00    +0.000 A 
ENDBRANCH  20  21
ENDBRANCH  19  20
ENDBRANCH  18  19
ENDBRANCH  17  18
ENDBRANCH  15  17
ENDBRANCH   7  15
TORSDOF 9
ENDMDL
MODEL 7
REMARK VINA RESULT:      -7.6      1.264      1.698
REMARK  Name = 
REMARK  12 active torsions:
REMARK  status: ('A' for Active; 'I' for Inactive)
REMARK    1  A    between atoms: C_1  and  C_2
REMARK    2  A    between atoms: C_2  and  C_3
REMARK    3  A    between atoms: C_3  and  C_4
REMARK    4  A    between atoms: C_3  and  C_5
REMARK    5  A    between atoms: C_3  and  C_6
REMARK    6  A    between atoms: C_6  and  C_8
REMARK    7  A    between atoms: C_14  and  C_15
REMARK    8  A    between atoms: C_15  and  S_17
REMARK    9  A    between atoms: S_17  and  C_18
REMARK   10  A    between atoms: C_18  and  C_19
REMARK   11  A    between atoms: C_19  and  C_20
REMARK   12  A    between atoms: C_20  and  C_21
REMARK                            x       y       z     vdW  Elec       q    Type
REMARK                         _______ _______ _______ _____ _____    ______ ____
ROOT
ATOM      1  C   UNL     1       4.557   4.330  18.908  0.00  0.00    +0.000 C 
ATOM      2  O   UNL     1       5.142   4.017  19.940  0.00  0.00    +0.000 OA
ATOM      3  N   UNL     1       5.216   4.785  17.779  0.00  0.00    +0.000 N 
ATOM      4  C   UNL     1       4.643   5.179  16.503  0.00  0.00    +0.000 C 
ATOM      5  C   UNL     1       5.579   4.533  15.498  0.00  0.00    +0.000 C 
ATOM      6  C   UNL     1       6.951   4.665  16.157  0.00  0.00    +0.000 C 
ATOM      7  C   UNL     1       6.671   4.632  17.669  0.00  0.00    +0.000 C 
ENDROOT
BRANCH   1   8
ATOM      8  C   UNL     1       3.035   4.140  18.840  0.00  0.00    +0.000 C 
ATOM      9  O   UNL     1       2.353   5.096  18.475  0.00  0.00    +0.000 OA
BRANCH   8  10
ATOM     10  C   UNL     1       2.452   2.743  19.110  0.00  0.00    +0.000 C 
ATOM     11  C   UNL     1       3.297   1.705  18.342  0.00  0.00    +0.000 C 
ATOM     12  C   UNL     1       1.006   2.647  18.591  0.00  0.00    +0.000 C 
BRANCH  10  14
ATOM     13  C   UNL     1       2.025   3.561  21.547  0.00  0.00    +0.000 C 
ATOM     14  C   UNL     1       2.458   2.424  20.627  0.00  0.00    +0.000 C 
ENDBRANCH  10  14
ENDBRANCH   8  10
ENDBRANCH   1   8
BRANCH   7  15
ATOM     15  C   UNL     1       7.445   5.752  18.390  0.00  0.00    +0.000 C 
ATOM     16  O   UNL     1       8.079   5.605  19.427  0.00  0.00    +0.000 OA
BRANCH  15  17
ATOM     17  S   UNL     1       7.232   7.347  17.653  0.00  0.00    +0.000 S 
BRANCH  17  18
ATOM     18  C   UNL     1       8.713   8.191  18.290  0.00  0.00    +0.000 C 
BRANCH  18  19
ATOM     19  C   UNL     1       8.457   9.702  18.338  0.00  0.00    +0.000 C 
BRANCH  19  20
ATOM     20  C   UNL     1       9.141  10.355  19.545  0.00  0.00    +0.000 C 
BRANCH  20  21
ATOM     21  C   UNL     1      10.282  11.251  19.136  0.00  0.00    +0.000 A 
ATOM     22  C   UNL     1      11.286  11.615  20.038  0.00  0.00    +0.000 A 
ATOM     23  C   UNL     1      12.328  12.441  19.621  0.00  0.00    +0.000 A 
ATOM     24  C   UNL     1      12.333  12.874  18.306  0.00  0.00    +0.000 A 
ATOM     25  N   UNL     1      11.388  12.540  17.403  0.00  0.00    +0.000 NA
ATOM     26  C   UNL     1      10.389  11.738  17.838  0.00  0.00    +0.000 A 
ENDBRANCH  20  21
ENDBRANCH  19  20
ENDBRANCH  18  19
ENDBRANCH  17  18
ENDBRANCH  15  17
ENDBRANCH   7  15
TORSDOF 9
ENDMDL
MODEL 8
REMARK VINA RESULT:      -7.6      1.320      1.741
REMARK  Name = 
REMARK  12 active torsions:
REMARK  status: ('A' for Active; 'I' for Inactive)
REMARK    1  A    between atoms: C_1  and  C_2
REMARK    2  A    between atoms: C_2  and  C_3
REMARK    3  A    between atoms: C_3  and  C_4
REMARK    4  A    between atoms: C_3  and  C_5
REMARK    5  A    between atoms: C_3  and  C_6
REMARK    6  A    between atoms: C_6  and  C_8
REMARK    7  A    between atoms: C_14  and  C_15
REMARK    8  A    between atoms: C_15  and  S_17
REMARK    9  A    between atoms: S_17  and  C_18
REMARK   10  A    between atoms: C_18  and  C_19
REMARK   11  A    between atoms: C_19  and  C_20
REMARK   12  A    between atoms: C_20  and  C_21
REMARK                            x       y       z     vdW  Elec       q    Type
REMARK                         _______ _______ _______ _____ _____    ______ ____
ROOT
ATOM      1  C   UNL     1       5.318   4.473  19.025  0.00  0.00    +0.000 C 
ATOM      2  O   UNL     1       6.015   4.983  19.897  0.00  0.00    +0.000 OA
ATOM      3  N   UNL     1       5.555   4.653  17.673  0.00  0.00    +0.000 N 
ATOM      4  C   UNL     1       4.810   4.105  16.551  0.00  0.00    +0.000 C 
ATOM      5  C   UNL     1       5.909   3.655  15.605  0.00  0.00    +0.000 C 
ATOM      6  C   UNL     1       6.982   4.729  15.772  0.00  0.00    +0.000 C 
ATOM      7  C   UNL     1       6.829   5.222  17.221  0.00  0.00    +0.000 C 
ENDROOT
BRANCH   1   8
ATOM      8  C   UNL     1       4.178   3.538  19.450  0.00  0.00    +0.000 C 
ATOM      9  O   UNL     1       4.428   2.339  19.560  0.00  0.00    +0.000 OA
BRANCH   8  10
ATOM     10  C   UNL     1       2.823   4.154  19.835  0.00  0.00    +0.000 C 
ATOM     11  C   UNL     1       2.932   5.688  19.714  0.00  0.00    +0.000 C 
ATOM     12  C   UNL     1       2.469   3.823  21.297  0.00  0.00    +0.000 C 
BRANCH  10  14
ATOM     13  C   UNL     1       1.504   4.361  17.598  0.00  0.00    +0.000 C 
ATOM     14  C   UNL     1       1.692   3.621  18.919  0.00  0.00    +0.000 C 
ENDBRANCH  10  14
ENDBRANCH   8  10
ENDBRANCH   1   8
BRANCH   7  15
ATOM     15  C   UNL     1       6.849   6.761  17.277  0.00  0.00    +0.000 C 
ATOM     16  O   UNL     1       6.157   7.494  16.581  0.00  0.00    +0.000 OA
BRANCH  15  17
ATOM     17  S   UNL     1       8.082   7.415  18.366  0.00  0.00    +0.000 S 
BRANCH  17  18
ATOM     18  C   UNL     1       8.076   9.157  17.843  0.00  0.00    +0.000 C 
BRANCH  18  19
ATOM     19  C   UNL     1       8.973   9.974  18.781  0.00  0.00    +0.000 C 
BRANCH  19  20
ATOM     20  C   UNL     1      10.042  10.753  18.007  0.00  0.00    +0.000 C 
BRANCH  20  21
ATOM     21  C   UNL     1       9.896  12.244  18.180  0.00  0.00    +0.000 A 
ATOM     22  C   UNL     1      10.619  13.145  17.395  0.00  0.00    +0.000 A 
ATOM     23  C   UNL     1      10.453  14.517  17.580  0.00  0.00    +0.000 A 
ATOM     24  C   UNL     1       9.558  14.942  18.547  0.00  0.00    +0.000 A 
ATOM     25  N   UNL     1       8.836  14.105  19.321  0.00  0.00    +0.000 NA
ATOM     26  C   UNL     1       9.020  12.780  19.118  0.00  0.00    +0.000 A 
ENDBRANCH  20  21
ENDBRANCH  19  20
ENDBRANCH  18  19
ENDBRANCH  17  18
ENDBRANCH  15  17
ENDBRANCH   7  15
TORSDOF 9
ENDMDL
MODEL 9
REMARK VINA RESULT:      -7.6      0.894      1.653
REMARK  Name = 
REMARK  12 active torsions:
REMARK  status: ('A' for Active; 'I' for Inactive)
REMARK    1  A    between atoms: C_1  and  C_2
REMARK    2  A    between atoms: C_2  and  C_3
REMARK    3  A    between atoms: C_3  and  C_4
REMARK    4  A    between atoms: C_3  and  C_5
REMARK    5  A    between atoms: C_3  and  C_6
REMARK    6  A    between atoms: C_6  and  C_8
REMARK    7  A    between atoms: C_14  and  C_15
REMARK    8  A    between atoms: C_15  and  S_17
REMARK    9  A    between atoms: S_17  and  C_18
REMARK   10  A    between atoms: C_18  and  C_19
REMARK   11  A    between atoms: C_19  and  C_20
REMARK   12  A    between atoms: C_20  and  C_21
REMARK                            x       y       z     vdW  Elec       q    Type
REMARK                         _______ _______ _______ _____ _____    ______ ____
ROOT
ATOM      1  C   UNL     1       5.004   3.746  18.532  0.00  0.00    +0.000 C 
ATOM      2  O   UNL     1       5.604   3.436  19.557  0.00  0.00    +0.000 OA
ATOM      3  N   UNL     1       5.594   4.458  17.502  0.00  0.00    +0.000 N 
ATOM      4  C   UNL     1       4.998   4.879  16.246  0.00  0.00    +0.000 C 
ATOM      5  C   UNL     1       6.084   4.562  15.234  0.00  0.00    +0.000 C 
ATOM      6  C   UNL     1       7.373   4.890  15.985  0.00  0.00    +0.000 C 
ATOM      7  C   UNL     1       7.052   4.618  17.464  0.00  0.00    +0.000 C 
ENDROOT
BRANCH   1   8
ATOM      8  C   UNL     1       3.559   3.261  18.352  0.00  0.00    +0.000 C 
ATOM      9  O   UNL     1       3.371   2.248  17.680  0.00  0.00    +0.000 OA
BRANCH   8  10
ATOM     10  C   UNL     1       2.437   3.984  19.116  0.00  0.00    +0.000 C 
ATOM     11  C   UNL     1       2.712   5.502  19.064  0.00  0.00    +0.000 C 
ATOM     12  C   UNL     1       2.423   3.560  20.596  0.00  0.00    +0.000 C 
BRANCH  10  14
ATOM     13  C   UNL     1       0.387   2.382  18.976  0.00  0.00    +0.000 C 
ATOM     14  C   UNL     1       1.053   3.668  18.495  0.00  0.00    +0.000 C 
ENDBRANCH  10  14
ENDBRANCH   8  10
ENDBRANCH   1   8
BRANCH   7  15
ATOM     15  C   UNL     1       7.549   5.777  18.350  0.00  0.00    +0.000 C 
ATOM     16  O   UNL     1       7.815   5.679  19.541  0.00  0.00    +0.000 OA
BRANCH  15  17
ATOM     17  S   UNL     1       7.580   7.340  17.520  0.00  0.00    +0.000 S 
BRANCH  17  18
ATOM     18  C   UNL     1       8.480   8.334  18.749  0.00  0.00    +0.000 C 
BRANCH  18  19
ATOM     19  C   UNL     1       8.685   9.753  18.205  0.00  0.00    +0.000 C 
BRANCH  19  20
ATOM     20  C   UNL     1       9.673  10.552  19.064  0.00  0.00    +0.000 C 
BRANCH  20  21
ATOM     21  C   UNL     1      10.249  11.730  18.320  0.00  0.00    +0.000 A 
ATOM     22  C   UNL     1       9.442  12.782  17.879  0.00  0.00    +0.000 A 
ATOM     23  C   UNL     1      10.012  13.857  17.200  0.00  0.00    +0.000 A 
ATOM     24  C   UNL     1      11.381  13.846  16.989  0.00  0.00    +0.000 A 
ATOM     25  N   UNL     1      12.196  12.853  17.405  0.00  0.00    +0.000 NA
ATOM     26  C   UNL     1      11.612  11.824  18.060  0.00  0.00    +0.000 A 
ENDBRANCH  20  21
ENDBRANCH  19  20
ENDBRANCH  18  19
ENDBRANCH  17  18
ENDBRANCH  15  17
ENDBRANCH   7  15
TORSDOF 9
ENDMDL
