MODEL 1
REMARK VINA RESULT:      -8.0      0.000      0.000
REMARK  Name = 
REMARK  10 active torsions:
REMARK  status: ('A' for Active; 'I' for Inactive)
REMARK    1  A    between atoms: C_1  and  O_2
REMARK    2  A    between atoms: O_2  and  C_3
REMARK    3  A    between atoms: C_5  and  C_6
REMARK    4  A    between atoms: C_6  and  C_7
REMARK    5  A    between atoms: N_9  and  C_10
REMARK    6  A    between atoms: C_15  and  C_16
REMARK    7  A    between atoms: C_26  and  O_27
REMARK    8  A    between atoms: O_27  and  C_28
REMARK    9  A    between atoms: C_29  and  O_30
REMARK   10  A    between atoms: O_30  and  C_31
REMARK                            x       y       z     vdW  Elec       q    Type
REMARK                         _______ _______ _______ _____ _____    ______ ____
ROOT
ATOM      1  C   UNL     1       1.912   8.549  18.397  0.00  0.00    +0.000 C 
ATOM      2  O   UNL     1       1.033   9.197  17.823  0.00  0.00    +0.000 OA
ATOM      3  N   UNL     1       2.087   8.513  19.776  0.00  0.00    +0.000 N 
ATOM      4  H   UNL     1       3.006   8.266  20.120  0.00  0.00    +0.000 HD
ENDROOT
BRANCH   3   5
ATOM      5  C   UNL     1       1.181   9.105  20.696  0.00  0.00    +0.000 A 
ATOM      6  C   UNL     1       0.382   8.308  21.534  0.00  0.00    +0.000 A 
ATOM      7  C   UNL     1      -0.552   8.861  22.417  0.00  0.00    +0.000 A 
ATOM      8  C   UNL     1      -0.641  10.242  22.402  0.00  0.00    +0.000 A 
ATOM      9  O   UNL     1      -1.481  11.009  23.144  0.00  0.00    +0.000 OA
ATOM     10  C   UNL     1      -1.169  12.298  22.789  0.00  0.00    +0.000 A 
ATOM     11  N   UNL     1      -0.218  12.392  21.870  0.00  0.00    +0.000 NA
ATOM     12  C   UNL     1       0.137  11.081  21.624  0.00  0.00    +0.000 A 
ATOM     13  C   UNL     1       1.099  10.510  20.767  0.00  0.00    +0.000 A 
BRANCH  10  14
ATOM     14  C   UNL     1      -1.868  13.344  23.541  0.00  0.00    +0.000 A 
ATOM     15  C   UNL     1      -1.205  14.517  23.945  0.00  0.00    +0.000 A 
ATOM     16  C   UNL     1      -1.897  15.560  24.568  0.00  0.00    +0.000 A 
ATOM     17  C   UNL     1      -3.261  15.439  24.808  0.00  0.00    +0.000 A 
ATOM     18  C   UNL     1      -3.929  14.269  24.450  0.00  0.00    +0.000 A 
ATOM     19  C   UNL     1      -3.236  13.226  23.824  0.00  0.00    +0.000 A 
ENDBRANCH  10  14
ENDBRANCH   3   5
BRANCH   1  20
ATOM     20  C   UNL     1       2.931   7.761  17.595  0.00  0.00    +0.000 C 
BRANCH  20  23
ATOM     21  C   UNL     1       2.543   4.022  18.428  0.00  0.00    +0.000 A 
ATOM     22  C   UNL     1       2.217   5.368  18.171  0.00  0.00    +0.000 A 
ATOM     23  C   UNL     1       3.205   6.342  18.044  0.00  0.00    +0.000 A 
ATOM     24  C   UNL     1       4.525   5.961  18.320  0.00  0.00    +0.000 A 
ATOM     25  C   UNL     1       4.874   4.635  18.647  0.00  0.00    +0.000 A 
ATOM     26  C   UNL     1       3.880   3.638  18.682  0.00  0.00    +0.000 A 
BRANCH  21  28
ATOM     27  C   UNL     1       0.770   3.075  19.688  0.00  0.00    +0.000 C 
ATOM     28  O   UNL     1       1.548   3.078  18.488  0.00  0.00    +0.000 OA
ENDBRANCH  21  28
BRANCH  25  29
ATOM     29  O   UNL     1       6.223   4.516  18.875  0.00  0.00    +0.000 OA
ATOM     30  C   UNL     1       7.008   5.681  19.076  0.00  0.00    +0.000 C 
ENDBRANCH  25  29
BRANCH  26  31
ATOM     31  O   UNL     1       4.281   2.366  19.003  0.00  0.00    +0.000 OA
ATOM     32  C   UNL     1       4.363   1.988  20.370  0.00  0.00    +0.000 C 
ENDBRANCH  26  31
ENDBRANCH  20  23
ENDBRANCH   1  20
TORSDOF 7
ENDMDL
MODEL 2
REMARK VINA RESULT:      -7.8      1.364      2.757
REMARK  Name = 
REMARK  10 active torsions:
REMARK  status: ('A' for Active; 'I' for Inactive)
REMARK    1  A    between atoms: C_1  and  O_2
REMARK    2  A    between atoms: O_2  and  C_3
REMARK    3  A    between atoms: C_5  and  C_6
REMARK    4  A    between atoms: C_6  and  C_7
REMARK    5  A    between atoms: N_9  and  C_10
REMARK    6  A    between atoms: C_15  and  C_16
REMARK    7  A    between atoms: C_26  and  O_27
REMARK    8  A    between atoms: O_27  and  C_28
REMARK    9  A    between atoms: C_29  and  O_30
REMARK   10  A    between atoms: O_30  and  C_31
REMARK                            x       y       z     vdW  Elec       q    Type
REMARK                         _______ _______ _______ _____ _____    ______ ____
ROOT
ATOM      1  C   UNL     1       2.042   8.470  18.583  0.00  0.00    +0.000 C 
ATOM      2  O   UNL     1       1.869   7.995  19.709  0.00  0.00    +0.000 OA
ATOM      3  N   UNL     1       1.296   9.516  18.050  0.00  0.00    +0.000 N 
ATOM      4  H   UNL     1       1.262   9.593  17.042  0.00  0.00    +0.000 HD
ENDROOT
BRANCH   3   5
ATOM      5  C   UNL     1       0.343  10.258  18.797  0.00  0.00    +0.000 A 
ATOM      6  C   UNL     1      -0.976  10.409  18.334  0.00  0.00    +0.000 A 
ATOM      7  C   UNL     1      -1.923  11.173  19.025  0.00  0.00    +0.000 A 
ATOM      8  C   UNL     1      -1.471  11.774  20.187  0.00  0.00    +0.000 A 
ATOM      9  O   UNL     1      -2.187  12.577  21.016  0.00  0.00    +0.000 OA
ATOM     10  C   UNL     1      -1.312  12.894  22.024  0.00  0.00    +0.000 A 
ATOM     11  N   UNL     1      -0.103  12.369  21.876  0.00  0.00    +0.000 NA
ATOM     12  C   UNL     1      -0.198  11.639  20.710  0.00  0.00    +0.000 A 
ATOM     13  C   UNL     1       0.735  10.837  20.021  0.00  0.00    +0.000 A 
BRANCH  10  14
ATOM     14  C   UNL     1      -1.877  13.676  23.127  0.00  0.00    +0.000 A 
ATOM     15  C   UNL     1      -1.059  14.464  23.956  0.00  0.00    +0.000 A 
ATOM     16  C   UNL     1      -1.609  15.291  24.939  0.00  0.00    +0.000 A 
ATOM     17  C   UNL     1      -2.988  15.332  25.117  0.00  0.00    +0.000 A 
ATOM     18  C   UNL     1      -3.814  14.528  24.332  0.00  0.00    +0.000 A 
ATOM     19  C   UNL     1      -3.262  13.702  23.345  0.00  0.00    +0.000 A 
ENDBRANCH  10  14
ENDBRANCH   3   5
BRANCH   1  20
ATOM     20  C   UNL     1       3.087   7.881  17.655  0.00  0.00    +0.000 C 
BRANCH  20  23
ATOM     21  C   UNL     1       5.123   4.714  18.460  0.00  0.00    +0.000 A 
ATOM     22  C   UNL     1       4.811   6.029  18.063  0.00  0.00    +0.000 A 
ATOM     23  C   UNL     1       3.490   6.443  17.903  0.00  0.00    +0.000 A 
ATOM     24  C   UNL     1       2.490   5.468  18.015  0.00  0.00    +0.000 A 
ATOM     25  C   UNL     1       2.778   4.128  18.344  0.00  0.00    +0.000 A 
ATOM     26  C   UNL     1       4.108   3.739  18.594  0.00  0.00    +0.000 A 
BRANCH  21  28
ATOM     27  C   UNL     1       7.315   4.575  17.561  0.00  0.00    +0.000 C 
ATOM     28  O   UNL     1       6.432   4.356  18.665  0.00  0.00    +0.000 OA
ENDBRANCH  21  28
BRANCH  25  29
ATOM     29  O   UNL     1       1.634   3.370  18.389  0.00  0.00    +0.000 OA
ATOM     30  C   UNL     1       0.946   3.208  19.619  0.00  0.00    +0.000 C 
ENDBRANCH  25  29
BRANCH  26  31
ATOM     31  O   UNL     1       4.324   2.423  18.913  0.00  0.00    +0.000 OA
ATOM     32  C   UNL     1       4.423   2.046  20.280  0.00  0.00    +0.000 C 
ENDBRANCH  26  31
ENDBRANCH  20  23
ENDBRANCH   1  20
TORSDOF 7
ENDMDL
MODEL 3
REMARK VINA RESULT:      -7.8      3.527      4.439
REMARK  Name = 
REMARK  10 active torsions:
REMARK  status: ('A' for Active; 'I' for Inactive)
REMARK    1  A    between atoms: C_1  and  O_2
REMARK    2  A    between atoms: O_2  and  C_3
REMARK    3  A    between atoms: C_5  and  C_6
REMARK    4  A    between atoms: C_6  and  C_7
REMARK    5  A    between atoms: N_9  and  C_10
REMARK    6  A    between atoms: C_15  and  C_16
REMARK    7  A    between atoms: C_26  and  O_27
REMARK    8  A    between atoms: O_27  and  C_28
REMARK    9  A    between atoms: C_29  and  O_30
REMARK   10  A    between atoms: O_30  and  C_31
REMARK                            x       y       z     vdW  Elec       q    Type
REMARK                         _______ _______ _______ _____ _____    ______ ____
ROOT
ATOM      1  C   UNL     1       2.141   8.470  18.507  0.00  0.00    +0.000 C 
ATOM      2  O   UNL     1       1.821   8.123  19.648  0.00  0.00    +0.000 OA
ATOM      3  N   UNL     1       1.442   9.399  17.745  0.00  0.00    +0.000 N 
ATOM      4  H   UNL     1       1.557   9.353  16.740  0.00  0.00    +0.000 HD
ENDROOT
BRANCH   3   5
ATOM      5  C   UNL     1       0.359  10.168  18.246  0.00  0.00    +0.000 A 
ATOM      6  C   UNL     1       0.537  11.042  19.332  0.00  0.00    +0.000 A 
ATOM      7  C   UNL     1      -0.522  11.778  19.876  0.00  0.00    +0.000 A 
ATOM      8  C   UNL     1      -1.754  11.580  19.278  0.00  0.00    +0.000 A 
ATOM      9  O   UNL     1      -2.931  12.155  19.636  0.00  0.00    +0.000 OA
ATOM     10  C   UNL     1      -3.840  11.662  18.733  0.00  0.00    +0.000 A 
ATOM     11  N   UNL     1      -3.326  10.809  17.858  0.00  0.00    +0.000 NA
ATOM     12  C   UNL     1      -1.988  10.759  18.189  0.00  0.00    +0.000 A 
ATOM     13  C   UNL     1      -0.904  10.053  17.629  0.00  0.00    +0.000 A 
BRANCH  10  14
ATOM     14  C   UNL     1      -5.191  12.221  18.831  0.00  0.00    +0.000 A 
ATOM     15  C   UNL     1      -5.561  13.049  19.907  0.00  0.00    +0.000 A 
ATOM     16  C   UNL     1      -6.814  13.668  19.945  0.00  0.00    +0.000 A 
ATOM     17  C   UNL     1      -7.723  13.455  18.914  0.00  0.00    +0.000 A 
ATOM     18  C   UNL     1      -7.390  12.606  17.859  0.00  0.00    +0.000 A 
ATOM     19  C   UNL     1      -6.133  11.990  17.820  0.00  0.00    +0.000 A 
ENDBRANCH  10  14
ENDBRANCH   3   5
BRANCH   1  20
ATOM     20  C   UNL     1       3.337   7.836  17.821  0.00  0.00    +0.000 C 
BRANCH  20  23
ATOM     21  C   UNL     1       4.312   4.203  17.000  0.00  0.00    +0.000 A 
ATOM     22  C   UNL     1       4.309   5.612  16.999  0.00  0.00    +0.000 A 
ATOM     23  C   UNL     1       3.301   6.334  17.635  0.00  0.00    +0.000 A 
ATOM     24  C   UNL     1       2.219   5.612  18.155  0.00  0.00    +0.000 A 
ATOM     25  C   UNL     1       2.162   4.204  18.110  0.00  0.00    +0.000 A 
ATOM     26  C   UNL     1       3.230   3.478  17.547  0.00  0.00    +0.000 A 
BRANCH  21  28
ATOM     27  C   UNL     1       5.840   4.075  15.188  0.00  0.00    +0.000 C 
ATOM     28  O   UNL     1       5.352   3.523  16.415  0.00  0.00    +0.000 OA
ENDBRANCH  21  28
BRANCH  25  29
ATOM     29  O   UNL     1       1.005   3.734  18.679  0.00  0.00    +0.000 OA
ATOM     30  C   UNL     1       0.941   3.534  20.082  0.00  0.00    +0.000 C 
ENDBRANCH  25  29
BRANCH  26  31
ATOM     31  O   UNL     1       3.118   2.111  17.536  0.00  0.00    +0.000 OA
ATOM     32  C   UNL     1       3.658   1.360  18.615  0.00  0.00    +0.000 C 
ENDBRANCH  26  31
ENDBRANCH  20  23
ENDBRANCH   1  20
TORSDOF 7
ENDMDL
MODEL 4
REMARK VINA RESULT:      -7.8      2.917     10.751
REMARK  Name = 
REMARK  10 active torsions:
REMARK  status: ('A' for Active; 'I' for Inactive)
REMARK    1  A    between atoms: C_1  and  O_2
REMARK    2  A    between atoms: O_2  and  C_3
REMARK    3  A    between atoms: C_5  and  C_6
REMARK    4  A    between atoms: C_6  and  C_7
REMARK    5  A    between atoms: N_9  and  C_10
REMARK    6  A    between atoms: C_15  and  C_16
REMARK    7  A    between atoms: C_26  and  O_27
REMARK    8  A    between atoms: O_27  and  C_28
REMARK    9  A    between atoms: C_29  and  O_30
REMARK   10  A    between atoms: O_30  and  C_31
REMARK                            x       y       z     vdW  Elec       q    Type
REMARK                         _______ _______ _______ _____ _____    ______ ____
ROOT
ATOM      1  C   UNL     1      -1.499  11.401  19.393  0.00  0.00    +0.000 C 
ATOM      2  O   UNL     1      -2.024  10.612  18.603  0.00  0.00    +0.000 OA
ATOM      3  N   UNL     1      -0.345  11.133  20.120  0.00  0.00    +0.000 N 
ATOM      4  H   UNL     1      -0.200  11.663  20.970  0.00  0.00    +0.000 HD
ENDROOT
BRANCH   3   5
ATOM      5  C   UNL     1       0.450   9.972  19.928  0.00  0.00    +0.000 A 
ATOM      6  C   UNL     1       0.612   9.031  20.958  0.00  0.00    +0.000 A 
ATOM      7  C   UNL     1       1.425   7.901  20.813  0.00  0.00    +0.000 A 
ATOM      8  C   UNL     1       2.064   7.781  19.592  0.00  0.00    +0.000 A 
ATOM      9  O   UNL     1       2.919   6.793  19.217  0.00  0.00    +0.000 OA
ATOM     10  C   UNL     1       3.257   7.107  17.925  0.00  0.00    +0.000 A 
ATOM     11  N   UNL     1       2.699   8.222  17.474  0.00  0.00    +0.000 NA
ATOM     12  C   UNL     1       1.922   8.655  18.529  0.00  0.00    +0.000 A 
ATOM     13  C   UNL     1       1.071   9.768  18.678  0.00  0.00    +0.000 A 
BRANCH  10  14
ATOM     14  C   UNL     1       4.097   6.123  17.237  0.00  0.00    +0.000 A 
ATOM     15  C   UNL     1       3.911   4.742  17.433  0.00  0.00    +0.000 A 
ATOM     16  C   UNL     1       4.640   3.803  16.698  0.00  0.00    +0.000 A 
ATOM     17  C   UNL     1       5.580   4.232  15.766  0.00  0.00    +0.000 A 
ATOM     18  C   UNL     1       5.807   5.596  15.585  0.00  0.00    +0.000 A 
ATOM     19  C   UNL     1       5.074   6.535  16.320  0.00  0.00    +0.000 A 
ENDBRANCH  10  14
ENDBRANCH   3   5
BRANCH   1  20
ATOM     20  C   UNL     1      -2.141  12.748  19.669  0.00  0.00    +0.000 C 
BRANCH  20  23
ATOM     21  C   UNL     1      -5.694  12.436  21.119  0.00  0.00    +0.000 A 
ATOM     22  C   UNL     1      -4.644  12.586  20.191  0.00  0.00    +0.000 A 
ATOM     23  C   UNL     1      -3.327  12.761  20.609  0.00  0.00    +0.000 A 
ATOM     24  C   UNL     1      -3.103  12.923  21.983  0.00  0.00    +0.000 A 
ATOM     25  C   UNL     1      -4.143  12.846  22.931  0.00  0.00    +0.000 A 
ATOM     26  C   UNL     1      -5.458  12.577  22.506  0.00  0.00    +0.000 A 
BRANCH  21  28
ATOM     27  C   UNL     1      -7.231  10.883  20.193  0.00  0.00    +0.000 C 
ATOM     28  O   UNL     1      -6.972  12.206  20.672  0.00  0.00    +0.000 OA
ENDBRANCH  21  28
BRANCH  25  29
ATOM     29  O   UNL     1      -3.671  13.041  24.205  0.00  0.00    +0.000 OA
ATOM     30  C   UNL     1      -3.190  14.319  24.591  0.00  0.00    +0.000 C 
ENDBRANCH  25  29
BRANCH  26  31
ATOM     31  O   UNL     1      -6.427  12.511  23.475  0.00  0.00    +0.000 OA
ATOM     32  C   UNL     1      -7.097  13.700  23.869  0.00  0.00    +0.000 C 
ENDBRANCH  26  31
ENDBRANCH  20  23
ENDBRANCH   1  20
TORSDOF 7
ENDMDL
MODEL 5
REMARK VINA RESULT:      -7.7      3.547      4.026
REMARK  Name = 
REMARK  10 active torsions:
REMARK  status: ('A' for Active; 'I' for Inactive)
REMARK    1  A    between atoms: C_1  and  O_2
REMARK    2  A    between atoms: O_2  and  C_3
REMARK    3  A    between atoms: C_5  and  C_6
REMARK    4  A    between atoms: C_6  and  C_7
REMARK    5  A    between atoms: N_9  and  C_10
REMARK    6  A    between atoms: C_15  and  C_16
REMARK    7  A    between atoms: C_26  and  O_27
REMARK    8  A    between atoms: O_27  and  C_28
REMARK    9  A    between atoms: C_29  and  O_30
REMARK   10  A    between atoms: O_30  and  C_31
REMARK                            x       y       z     vdW  Elec       q    Type
REMARK                         _______ _______ _______ _____ _____    ______ ____
ROOT
ATOM      1  C   UNL     1       2.080   8.453  18.467  0.00  0.00    +0.000 C 
ATOM      2  O   UNL     1       1.758   8.185  19.628  0.00  0.00    +0.000 OA
ATOM      3  N   UNL     1       1.404   9.355  17.653  0.00  0.00    +0.000 N 
ATOM      4  H   UNL     1       1.511   9.245  16.653  0.00  0.00    +0.000 HD
ENDROOT
BRANCH   3   5
ATOM      5  C   UNL     1       0.347  10.184  18.112  0.00  0.00    +0.000 A 
ATOM      6  C   UNL     1       0.592  11.231  19.018  0.00  0.00    +0.000 A 
ATOM      7  C   UNL     1      -0.436  12.035  19.522  0.00  0.00    +0.000 A 
ATOM      8  C   UNL     1      -1.709  11.723  19.076  0.00  0.00    +0.000 A 
ATOM      9  O   UNL     1      -2.866  12.336  19.435  0.00  0.00    +0.000 OA
ATOM     10  C   UNL     1      -3.835  11.687  18.711  0.00  0.00    +0.000 A 
ATOM     11  N   UNL     1      -3.374  10.705  17.948  0.00  0.00    +0.000 NA
ATOM     12  C   UNL     1      -2.011  10.728  18.164  0.00  0.00    +0.000 A 
ATOM     13  C   UNL     1      -0.960   9.950  17.637  0.00  0.00    +0.000 A 
BRANCH  10  14
ATOM     14  C   UNL     1      -5.187  12.237  18.832  0.00  0.00    +0.000 A 
ATOM     15  C   UNL     1      -5.998  12.436  17.700  0.00  0.00    +0.000 A 
ATOM     16  C   UNL     1      -7.323  12.861  17.825  0.00  0.00    +0.000 A 
ATOM     17  C   UNL     1      -7.855  13.108  19.087  0.00  0.00    +0.000 A 
ATOM     18  C   UNL     1      -7.056  12.954  20.219  0.00  0.00    +0.000 A 
ATOM     19  C   UNL     1      -5.729  12.526  20.092  0.00  0.00    +0.000 A 
ENDBRANCH  10  14
ENDBRANCH   3   5
BRANCH   1  20
ATOM     20  C   UNL     1       3.253   7.745  17.815  0.00  0.00    +0.000 C 
BRANCH  20  23
ATOM     21  C   UNL     1       2.282   4.085  18.510  0.00  0.00    +0.000 A 
ATOM     22  C   UNL     1       2.349   5.487  18.623  0.00  0.00    +0.000 A 
ATOM     23  C   UNL     1       3.254   6.232  17.869  0.00  0.00    +0.000 A 
ATOM     24  C   UNL     1       4.187   5.526  17.099  0.00  0.00    +0.000 A 
ATOM     25  C   UNL     1       4.188   4.119  17.019  0.00  0.00    +0.000 A 
ATOM     26  C   UNL     1       3.211   3.378  17.712  0.00  0.00    +0.000 A 
BRANCH  21  28
ATOM     27  C   UNL     1       0.963   3.961  20.478  0.00  0.00    +0.000 C 
ATOM     28  O   UNL     1       1.339   3.387  19.223  0.00  0.00    +0.000 OA
ENDBRANCH  21  28
BRANCH  25  29
ATOM     29  O   UNL     1       5.197   3.666  16.206  0.00  0.00    +0.000 OA
ATOM     30  C   UNL     1       5.776   4.540  15.249  0.00  0.00    +0.000 C 
ENDBRANCH  25  29
BRANCH  26  31
ATOM     31  O   UNL     1       3.260   2.013  17.592  0.00  0.00    +0.000 OA
ATOM     32  C   UNL     1       3.775   1.239  18.668  0.00  0.00    +0.000 C 
ENDBRANCH  26  31
ENDBRANCH  20  23
ENDBRANCH   1  20
TORSDOF 7
ENDMDL
MODEL 6
REMARK VINA RESULT:      -7.7      1.071      1.156
REMARK  Name = 
REMARK  10 active torsions:
REMARK  status: ('A' for Active; 'I' for Inactive)
REMARK    1  A    between atoms: C_1  and  O_2
REMARK    2  A    between atoms: O_2  and  C_3
REMARK    3  A    between atoms: C_5  and  C_6
REMARK    4  A    between atoms: C_6  and  C_7
REMARK    5  A    between atoms: N_9  and  C_10
REMARK    6  A    between atoms: C_15  and  C_16
REMARK    7  A    between atoms: C_26  and  O_27
REMARK    8  A    between atoms: O_27  and  C_28
REMARK    9  A    between atoms: C_29  and  O_30
REMARK   10  A    between atoms: O_30  and  C_31
REMARK                            x       y       z     vdW  Elec       q    Type
REMARK                         _______ _______ _______ _____ _____    ______ ____
ROOT
ATOM      1  C   UNL     1       2.002   8.537  18.453  0.00  0.00    +0.000 C 
ATOM      2  O   UNL     1       1.098   9.126  17.854  0.00  0.00    +0.000 OA
ATOM      3  N   UNL     1       2.167   8.550  19.833  0.00  0.00    +0.000 N 
ATOM      4  H   UNL     1       3.094   8.356  20.190  0.00  0.00    +0.000 HD
ENDROOT
BRANCH   3   5
ATOM      5  C   UNL     1       1.227   9.124  20.729  0.00  0.00    +0.000 A 
ATOM      6  C   UNL     1       0.385   8.312  21.508  0.00  0.00    +0.000 A 
ATOM      7  C   UNL     1      -0.582   8.850  22.365  0.00  0.00    +0.000 A 
ATOM      8  C   UNL     1      -0.657  10.232  22.386  0.00  0.00    +0.000 A 
ATOM      9  O   UNL     1      -1.522  10.986  23.113  0.00  0.00    +0.000 OA
ATOM     10  C   UNL     1      -1.183  12.281  22.810  0.00  0.00    +0.000 A 
ATOM     11  N   UNL     1      -0.191  12.391  21.936  0.00  0.00    +0.000 NA
ATOM     12  C   UNL     1       0.162  11.084  21.668  0.00  0.00    +0.000 A 
ATOM     13  C   UNL     1       1.155  10.528  20.837  0.00  0.00    +0.000 A 
BRANCH  10  14
ATOM     14  C   UNL     1      -1.904  13.313  23.560  0.00  0.00    +0.000 A 
ATOM     15  C   UNL     1      -1.247  14.463  24.033  0.00  0.00    +0.000 A 
ATOM     16  C   UNL     1      -1.956  15.495  24.655  0.00  0.00    +0.000 A 
ATOM     17  C   UNL     1      -3.332  15.386  24.826  0.00  0.00    +0.000 A 
ATOM     18  C   UNL     1      -3.996  14.236  24.398  0.00  0.00    +0.000 A 
ATOM     19  C   UNL     1      -3.285  13.204  23.773  0.00  0.00    +0.000 A 
ENDBRANCH  10  14
ENDBRANCH   3   5
BRANCH   1  20
ATOM     20  C   UNL     1       3.063   7.775  17.680  0.00  0.00    +0.000 C 
BRANCH  20  23
ATOM     21  C   UNL     1       1.948   4.152  18.349  0.00  0.00    +0.000 A 
ATOM     22  C   UNL     1       2.017   5.557  18.422  0.00  0.00    +0.000 A 
ATOM     23  C   UNL     1       3.035   6.265  17.788  0.00  0.00    +0.000 A 
ATOM     24  C   UNL     1       4.064   5.523  17.192  0.00  0.00    +0.000 A 
ATOM     25  C   UNL     1       4.057   4.114  17.163  0.00  0.00    +0.000 A 
ATOM     26  C   UNL     1       2.976   3.408  17.726  0.00  0.00    +0.000 A 
BRANCH  21  28
ATOM     27  C   UNL     1       1.019   3.263  20.344  0.00  0.00    +0.000 C 
ATOM     28  O   UNL     1       0.898   3.489  18.937  0.00  0.00    +0.000 OA
ENDBRANCH  21  28
BRANCH  25  29
ATOM     29  O   UNL     1       5.170   3.624  16.528  0.00  0.00    +0.000 OA
ATOM     30  C   UNL     1       5.620   4.228  15.326  0.00  0.00    +0.000 C 
ENDBRANCH  25  29
BRANCH  26  31
ATOM     31  O   UNL     1       3.024   2.039  17.664  0.00  0.00    +0.000 OA
ATOM     32  C   UNL     1       3.729   1.322  18.668  0.00  0.00    +0.000 C 
ENDBRANCH  26  31
ENDBRANCH  20  23
ENDBRANCH   1  20
TORSDOF 7
ENDMDL
MODEL 7
REMARK VINA RESULT:      -7.7      0.299      2.305
REMARK  Name = 
REMARK  10 active torsions:
REMARK  status: ('A' for Active; 'I' for Inactive)
REMARK    1  A    between atoms: C_1  and  O_2
REMARK    2  A    between atoms: O_2  and  C_3
REMARK    3  A    between atoms: C_5  and  C_6
REMARK    4  A    between atoms: C_6  and  C_7
REMARK    5  A    between atoms: N_9  and  C_10
REMARK    6  A    between atoms: C_15  and  C_16
REMARK    7  A    between atoms: C_26  and  O_27
REMARK    8  A    between atoms: O_27  and  C_28
REMARK    9  A    between atoms: C_29  and  O_30
REMARK   10  A    between atoms: O_30  and  C_31
REMARK                            x       y       z     vdW  Elec       q    Type
REMARK                         _______ _______ _______ _____ _____    ______ ____
ROOT
ATOM      1  C   UNL     1       1.882   8.627  18.290  0.00  0.00    +0.000 C 
ATOM      2  O   UNL     1       0.873   9.079  17.740  0.00  0.00    +0.000 OA
ATOM      3  N   UNL     1       2.154   8.741  19.648  0.00  0.00    +0.000 N 
ATOM      4  H   UNL     1       3.122   8.668  19.934  0.00  0.00    +0.000 HD
ENDROOT
BRANCH   3   5
ATOM      5  C   UNL     1       1.230   9.266  20.590  0.00  0.00    +0.000 A 
ATOM      6  C   UNL     1       0.517   8.415  21.451  0.00  0.00    +0.000 A 
ATOM      7  C   UNL     1      -0.433   8.899  22.358  0.00  0.00    +0.000 A 
ATOM      8  C   UNL     1      -0.626  10.270  22.342  0.00  0.00    +0.000 A 
ATOM      9  O   UNL     1      -1.503  10.974  23.104  0.00  0.00    +0.000 OA
ATOM     10  C   UNL     1      -1.299  12.281  22.738  0.00  0.00    +0.000 A 
ATOM     11  N   UNL     1      -0.382  12.443  21.794  0.00  0.00    +0.000 NA
ATOM     12  C   UNL     1       0.065  11.162  21.541  0.00  0.00    +0.000 A 
ATOM     13  C   UNL     1       1.044  10.662  20.660  0.00  0.00    +0.000 A 
BRANCH  10  14
ATOM     14  C   UNL     1      -2.055  13.275  23.505  0.00  0.00    +0.000 A 
ATOM     15  C   UNL     1      -1.415  14.378  24.099  0.00  0.00    +0.000 A 
ATOM     16  C   UNL     1      -2.149  15.380  24.740  0.00  0.00    +0.000 A 
ATOM     17  C   UNL     1      -3.535  15.287  24.808  0.00  0.00    +0.000 A 
ATOM     18  C   UNL     1      -4.185  14.182  24.260  0.00  0.00    +0.000 A 
ATOM     19  C   UNL     1      -3.449  13.180  23.616  0.00  0.00    +0.000 A 
ENDBRANCH  10  14
ENDBRANCH   3   5
BRANCH   1  20
ATOM     20  C   UNL     1       2.956   7.935  17.470  0.00  0.00    +0.000 C 
BRANCH  20  23
ATOM     21  C   UNL     1       4.895   4.794  18.561  0.00  0.00    +0.000 A 
ATOM     22  C   UNL     1       4.620   6.070  18.030  0.00  0.00    +0.000 A 
ATOM     23  C   UNL     1       3.311   6.518  17.865  0.00  0.00    +0.000 A 
ATOM     24  C   UNL     1       2.279   5.604  18.113  0.00  0.00    +0.000 A 
ATOM     25  C   UNL     1       2.526   4.298  18.581  0.00  0.00    +0.000 A 
ATOM     26  C   UNL     1       3.848   3.883  18.834  0.00  0.00    +0.000 A 
BRANCH  21  28
ATOM     27  C   UNL     1       7.151   5.467  18.852  0.00  0.00    +0.000 C 
ATOM     28  O   UNL     1       6.196   4.406  18.767  0.00  0.00    +0.000 OA
ENDBRANCH  21  28
BRANCH  25  29
ATOM     29  O   UNL     1       1.357   3.597  18.744  0.00  0.00    +0.000 OA
ATOM     30  C   UNL     1       0.741   3.545  20.021  0.00  0.00    +0.000 C 
ENDBRANCH  25  29
BRANCH  26  31
ATOM     31  O   UNL     1       4.025   2.602  19.290  0.00  0.00    +0.000 OA
ATOM     32  C   UNL     1       4.127   2.370  20.688  0.00  0.00    +0.000 C 
ENDBRANCH  26  31
ENDBRANCH  20  23
ENDBRANCH   1  20
TORSDOF 7
ENDMDL
MODEL 8
REMARK VINA RESULT:      -7.7      3.333     10.889
REMARK  Name = 
REMARK  10 active torsions:
REMARK  status: ('A' for Active; 'I' for Inactive)
REMARK    1  A    between atoms: C_1  and  O_2
REMARK    2  A    between atoms: O_2  and  C_3
REMARK    3  A    between atoms: C_5  and  C_6
REMARK    4  A    between atoms: C_6  and  C_7
REMARK    5  A    between atoms: N_9  and  C_10
REMARK    6  A    between atoms: C_15  and  C_16
REMARK    7  A    between atoms: C_26  and  O_27
REMARK    8  A    between atoms: O_27  and  C_28
REMARK    9  A    between atoms: C_29  and  O_30
REMARK   10  A    between atoms: O_30  and  C_31
REMARK                            x       y       z     vdW  Elec       q    Type
REMARK                         _______ _______ _______ _____ _____    ______ ____
ROOT
ATOM      1  C   UNL     1      -1.383  11.297  19.467  0.00  0.00    +0.000 C 
ATOM      2  O   UNL     1      -1.876  10.565  18.604  0.00  0.00    +0.000 OA
ATOM      3  N   UNL     1      -0.270  10.968  20.233  0.00  0.00    +0.000 N 
ATOM      4  H   UNL     1      -0.162  11.443  21.119  0.00  0.00    +0.000 HD
ENDROOT
BRANCH   3   5
ATOM      5  C   UNL     1       0.519   9.809  20.010  0.00  0.00    +0.000 A 
ATOM      6  C   UNL     1       0.657   8.829  21.008  0.00  0.00    +0.000 A 
ATOM      7  C   UNL     1       1.464   7.699  20.834  0.00  0.00    +0.000 A 
ATOM      8  C   UNL     1       2.122   7.618  19.619  0.00  0.00    +0.000 A 
ATOM      9  O   UNL     1       2.975   6.638  19.222  0.00  0.00    +0.000 OA
ATOM     10  C   UNL     1       3.336   6.997  17.948  0.00  0.00    +0.000 A 
ATOM     11  N   UNL     1       2.794   8.132  17.530  0.00  0.00    +0.000 NA
ATOM     12  C   UNL     1       2.004   8.532  18.588  0.00  0.00    +0.000 A 
ATOM     13  C   UNL     1       1.158   9.646  18.764  0.00  0.00    +0.000 A 
BRANCH  10  14
ATOM     14  C   UNL     1       4.181   6.032  17.238  0.00  0.00    +0.000 A 
ATOM     15  C   UNL     1       4.090   4.653  17.501  0.00  0.00    +0.000 A 
ATOM     16  C   UNL     1       4.818   3.725  16.750  0.00  0.00    +0.000 A 
ATOM     17  C   UNL     1       5.660   4.164  15.734  0.00  0.00    +0.000 A 
ATOM     18  C   UNL     1       5.793   5.530  15.483  0.00  0.00    +0.000 A 
ATOM     19  C   UNL     1       5.061   6.458  16.234  0.00  0.00    +0.000 A 
ENDBRANCH  10  14
ENDBRANCH   3   5
BRANCH   1  20
ATOM     20  C   UNL     1      -2.021  12.635  19.792  0.00  0.00    +0.000 C 
BRANCH  20  23
ATOM     21  C   UNL     1      -4.928  13.015  22.287  0.00  0.00    +0.000 A 
ATOM     22  C   UNL     1      -3.621  12.896  21.776  0.00  0.00    +0.000 A 
ATOM     23  C   UNL     1      -3.391  12.600  20.434  0.00  0.00    +0.000 A 
ATOM     24  C   UNL     1      -4.504  12.288  19.643  0.00  0.00    +0.000 A 
ATOM     25  C   UNL     1      -5.821  12.332  20.143  0.00  0.00    +0.000 A 
ATOM     26  C   UNL     1      -6.050  12.722  21.477  0.00  0.00    +0.000 A 
BRANCH  21  28
ATOM     27  C   UNL     1      -4.453  12.543  24.563  0.00  0.00    +0.000 C 
ATOM     28  O   UNL     1      -5.119  13.365  23.601  0.00  0.00    +0.000 OA
ENDBRANCH  21  28
BRANCH  25  29
ATOM     29  O   UNL     1      -6.733  11.984  19.178  0.00  0.00    +0.000 OA
ATOM     30  C   UNL     1      -6.436  12.218  17.811  0.00  0.00    +0.000 C 
ENDBRANCH  25  29
BRANCH  26  31
ATOM     31  O   UNL     1      -7.353  12.749  21.906  0.00  0.00    +0.000 OA
ATOM     32  C   UNL     1      -7.916  11.583  22.490  0.00  0.00    +0.000 C 
ENDBRANCH  26  31
ENDBRANCH  20  23
ENDBRANCH   1  20
TORSDOF 7
ENDMDL
MODEL 9
REMARK VINA RESULT:      -7.6      3.091     10.625
REMARK  Name = 
REMARK  10 active torsions:
REMARK  status: ('A' for Active; 'I' for Inactive)
REMARK    1  A    between atoms: C_1  and  O_2
REMARK    2  A    between atoms: O_2  and  C_3
REMARK    3  A    between atoms: C_5  and  C_6
REMARK    4  A    between atoms: C_6  and  C_7
REMARK    5  A    between atoms: N_9  and  C_10
REMARK    6  A    between atoms: C_15  and  C_16
REMARK    7  A    between atoms: C_26  and  O_27
REMARK    8  A    between atoms: O_27  and  C_28
REMARK    9  A    between atoms: C_29  and  O_30
REMARK   10  A    between atoms: O_30  and  C_31
REMARK                            x       y       z     vdW  Elec       q    Type
REMARK                         _______ _______ _______ _____ _____    ______ ____
ROOT
ATOM      1  C   UNL     1      -0.697  11.662  21.976  0.00  0.00    +0.000 C 
ATOM      2  O   UNL     1      -0.345  11.084  23.008  0.00  0.00    +0.000 OA
ATOM      3  N   UNL     1      -0.328  11.272  20.693  0.00  0.00    +0.000 N 
ATOM      4  H   UNL     1      -0.358  11.978  19.969  0.00  0.00    +0.000 HD
ENDROOT
BRANCH   3   5
ATOM      5  C   UNL     1       0.379  10.073  20.412  0.00  0.00    +0.000 A 
ATOM      6  C   UNL     1       0.421   9.024  21.346  0.00  0.00    +0.000 A 
ATOM      7  C   UNL     1       1.148   7.851  21.115  0.00  0.00    +0.000 A 
ATOM      8  C   UNL     1       1.827   7.799  19.911  0.00  0.00    +0.000 A 
ATOM      9  O   UNL     1       2.616   6.785  19.468  0.00  0.00    +0.000 OA
ATOM     10  C   UNL     1       3.034   7.196  18.227  0.00  0.00    +0.000 A 
ATOM     11  N   UNL     1       2.586   8.393  17.873  0.00  0.00    +0.000 NA
ATOM     12  C   UNL     1       1.802   8.783  18.939  0.00  0.00    +0.000 A 
ATOM     13  C   UNL     1       1.035   9.943  19.171  0.00  0.00    +0.000 A 
BRANCH  10  14
ATOM     14  C   UNL     1       3.823   6.218  17.473  0.00  0.00    +0.000 A 
ATOM     15  C   UNL     1       3.587   4.837  17.602  0.00  0.00    +0.000 A 
ATOM     16  C   UNL     1       4.266   3.911  16.805  0.00  0.00    +0.000 A 
ATOM     17  C   UNL     1       5.202   4.351  15.876  0.00  0.00    +0.000 A 
ATOM     18  C   UNL     1       5.478   5.714  15.759  0.00  0.00    +0.000 A 
ATOM     19  C   UNL     1       4.795   6.641  16.556  0.00  0.00    +0.000 A 
ENDBRANCH  10  14
ENDBRANCH   3   5
BRANCH   1  20
ATOM     20  C   UNL     1      -1.547  12.917  22.053  0.00  0.00    +0.000 C 
BRANCH  20  23
ATOM     21  C   UNL     1      -4.668  12.448  19.848  0.00  0.00    +0.000 A 
ATOM     22  C   UNL     1      -3.341  12.723  20.234  0.00  0.00    +0.000 A 
ATOM     23  C   UNL     1      -2.979  12.803  21.577  0.00  0.00    +0.000 A 
ATOM     24  C   UNL     1      -4.007  12.741  22.527  0.00  0.00    +0.000 A 
ATOM     25  C   UNL     1      -5.354  12.535  22.168  0.00  0.00    +0.000 A 
ATOM     26  C   UNL     1      -5.698  12.362  20.813  0.00  0.00    +0.000 A 
BRANCH  21  28
ATOM     27  C   UNL     1      -4.689  11.042  17.937  0.00  0.00    +0.000 C 
ATOM     28  O   UNL     1      -4.979  12.317  18.517  0.00  0.00    +0.000 OA
ENDBRANCH  21  28
BRANCH  25  29
ATOM     29  O   UNL     1      -6.167  12.515  23.273  0.00  0.00    +0.000 OA
ATOM     30  C   UNL     1      -6.725  13.726  23.759  0.00  0.00    +0.000 C 
ENDBRANCH  25  29
BRANCH  26  31
ATOM     31  O   UNL     1      -7.024  12.163  20.526  0.00  0.00    +0.000 OA
ATOM     32  C   UNL     1      -7.542  10.839  20.521  0.00  0.00    +0.000 C 
ENDBRANCH  26  31
ENDBRANCH  20  23
ENDBRANCH   1  20
TORSDOF 7
ENDMDL
