MODEL 1
REMARK VINA RESULT:      -7.8      0.000      0.000
REMARK  Name = 
REMARK  4 active torsions:
REMARK  status: ('A' for Active; 'I' for Inactive)
REMARK    1  A    between atoms: C_3  and  C_4
REMARK    2  A    between atoms: C_10  and  C_11
REMARK    3  A    between atoms: C_19  and  C_20
REMARK    4  A    between atoms: C_27  and  C_28
REMARK                            x       y       z     vdW  Elec       q    Type
REMARK                         _______ _______ _______ _____ _____    ______ ____
ROOT
ATOM      1  O   UNL     1      -1.034  14.518  19.205  0.00  0.00    +0.000 OA
ATOM      2  C   UNL     1      -1.141  13.304  19.413  0.00  0.00    +0.000 C 
ATOM      3  C   UNL     1       0.011  12.344  19.153  0.00  0.00    +0.000 C 
ATOM      4  C   UNL     1      -0.162  10.986  19.900  0.00  0.00    +0.000 C 
ATOM      5  N   UNL     1      -1.514  10.407  19.931  0.00  0.00    +0.000 NA
ATOM      6  C   UNL     1      -2.594  11.253  19.410  0.00  0.00    +0.000 C 
ATOM      7  C   UNL     1      -2.477  12.734  19.858  0.00  0.00    +0.000 C 
ATOM      8  H   UNL     1      -1.731  10.118  20.885  0.00  0.00    +0.000 HD
ENDROOT
BRANCH   4   9
ATOM      9  C   UNL     1       0.818   9.909  19.413  0.00  0.00    +0.000 A 
ATOM     10  C   UNL     1       1.327   9.967  18.105  0.00  0.00    +0.000 A 
ATOM     11  C   UNL     1       2.178   8.966  17.620  0.00  0.00    +0.000 A 
ATOM     12  C   UNL     1       2.529   7.893  18.437  0.00  0.00    +0.000 A 
ATOM     13 CL   UNL     1       3.540   6.642  17.831  0.00  0.00    +0.000 Cl
ATOM     14  C   UNL     1       2.065   7.832  19.744  0.00  0.00    +0.000 A 
ATOM     15  C   UNL     1       1.237   8.844  20.234  0.00  0.00    +0.000 A 
ENDBRANCH   4   9
BRANCH   6  16
ATOM     16  C   UNL     1      -2.761  10.952  17.914  0.00  0.00    +0.000 A 
ATOM     17  C   UNL     1      -3.781  11.640  17.218  0.00  0.00    +0.000 A 
ATOM     18  C   UNL     1      -4.104  11.320  15.898  0.00  0.00    +0.000 A 
ATOM     19  C   UNL     1      -3.412  10.305  15.252  0.00  0.00    +0.000 A 
ATOM     20 CL   UNL     1      -3.864   9.838  13.660  0.00  0.00    +0.000 Cl
ATOM     21  C   UNL     1      -2.364   9.652  15.896  0.00  0.00    +0.000 A 
ATOM     22  C   UNL     1      -2.023   9.991  17.210  0.00  0.00    +0.000 A 
ENDBRANCH   6  16
BRANCH   3  23
ATOM     23  C   UNL     1       1.371  13.004  19.389  0.00  0.00    +0.000 A 
ATOM     24  C   UNL     1       1.888  13.238  20.674  0.00  0.00    +0.000 A 
ATOM     25  C   UNL     1       3.145  13.820  20.840  0.00  0.00    +0.000 A 
ATOM     26  C   UNL     1       3.899  14.191  19.729  0.00  0.00    +0.000 A 
ATOM     27  C   UNL     1       3.391  13.985  18.447  0.00  0.00    +0.000 A 
ATOM     28  C   UNL     1       2.138  13.401  18.281  0.00  0.00    +0.000 A 
ENDBRANCH   3  23
BRANCH   7  29
ATOM     29  C   UNL     1      -2.744  12.956  21.350  0.00  0.00    +0.000 A 
ATOM     30  C   UNL     1      -1.730  13.311  22.258  0.00  0.00    +0.000 A 
ATOM     31  C   UNL     1      -2.012  13.521  23.609  0.00  0.00    +0.000 A 
ATOM     32  C   UNL     1      -3.315  13.393  24.076  0.00  0.00    +0.000 A 
ATOM     33  C   UNL     1      -4.340  13.073  23.193  0.00  0.00    +0.000 A 
ATOM     34  C   UNL     1      -4.059  12.863  21.840  0.00  0.00    +0.000 A 
ENDBRANCH   7  29
TORSDOF 4
ENDMDL
MODEL 2
REMARK VINA RESULT:      -7.8      0.138      1.192
REMARK  Name = 
REMARK  4 active torsions:
REMARK  status: ('A' for Active; 'I' for Inactive)
REMARK    1  A    between atoms: C_3  and  C_4
REMARK    2  A    between atoms: C_10  and  C_11
REMARK    3  A    between atoms: C_19  and  C_20
REMARK    4  A    between atoms: C_27  and  C_28
REMARK                            x       y       z     vdW  Elec       q    Type
REMARK                         _______ _______ _______ _____ _____    ______ ____
ROOT
ATOM      1  O   UNL     1      -0.940  14.562  19.137  0.00  0.00    +0.000 OA
ATOM      2  C   UNL     1      -1.060  13.354  19.372  0.00  0.00    +0.000 C 
ATOM      3  C   UNL     1       0.074  12.373  19.113  0.00  0.00    +0.000 C 
ATOM      4  C   UNL     1      -0.104  11.034  19.891  0.00  0.00    +0.000 C 
ATOM      5  N   UNL     1      -1.462  10.474  19.958  0.00  0.00    +0.000 NA
ATOM      6  C   UNL     1      -2.540  11.324  19.437  0.00  0.00    +0.000 C 
ATOM      7  C   UNL     1      -2.396  12.812  19.851  0.00  0.00    +0.000 C 
ATOM      8  H   UNL     1      -1.666  10.208  20.921  0.00  0.00    +0.000 HD
ENDROOT
BRANCH   4   9
ATOM      9  C   UNL     1       0.854   9.933  19.411  0.00  0.00    +0.000 A 
ATOM     10  C   UNL     1       1.357   9.968  18.099  0.00  0.00    +0.000 A 
ATOM     11  C   UNL     1       2.185   8.946  17.620  0.00  0.00    +0.000 A 
ATOM     12  C   UNL     1       2.520   7.875  18.448  0.00  0.00    +0.000 A 
ATOM     13 CL   UNL     1       3.504   6.599  17.849  0.00  0.00    +0.000 Cl
ATOM     14  C   UNL     1       2.062   7.837  19.757  0.00  0.00    +0.000 A 
ATOM     15  C   UNL     1       1.256   8.869  20.240  0.00  0.00    +0.000 A 
ENDBRANCH   4   9
BRANCH   6  16
ATOM     16  C   UNL     1      -2.737  10.994  17.951  0.00  0.00    +0.000 A 
ATOM     17  C   UNL     1      -3.776  11.662  17.265  0.00  0.00    +0.000 A 
ATOM     18  C   UNL     1      -4.126  11.316  15.958  0.00  0.00    +0.000 A 
ATOM     19  C   UNL     1      -3.440  10.292  15.316  0.00  0.00    +0.000 A 
ATOM     20 CL   UNL     1      -3.923   9.793  13.743  0.00  0.00    +0.000 Cl
ATOM     21  C   UNL     1      -2.374   9.659  15.949  0.00  0.00    +0.000 A 
ATOM     22  C   UNL     1      -2.007  10.024  17.249  0.00  0.00    +0.000 A 
ENDBRANCH   6  16
BRANCH   3  23
ATOM     23  C   UNL     1       1.448  13.019  19.312  0.00  0.00    +0.000 A 
ATOM     24  C   UNL     1       2.267  13.404  18.239  0.00  0.00    +0.000 A 
ATOM     25  C   UNL     1       3.501  14.014  18.469  0.00  0.00    +0.000 A 
ATOM     26  C   UNL     1       3.943  14.234  19.772  0.00  0.00    +0.000 A 
ATOM     27  C   UNL     1       3.151  13.836  20.848  0.00  0.00    +0.000 A 
ATOM     28  C   UNL     1       1.917  13.232  20.619  0.00  0.00    +0.000 A 
ENDBRANCH   3  23
BRANCH   7  29
ATOM     29  C   UNL     1      -2.634  13.069  21.343  0.00  0.00    +0.000 A 
ATOM     30  C   UNL     1      -3.885  12.876  21.956  0.00  0.00    +0.000 A 
ATOM     31  C   UNL     1      -4.062  13.106  23.322  0.00  0.00    +0.000 A 
ATOM     32  C   UNL     1      -2.990  13.521  24.103  0.00  0.00    +0.000 A 
ATOM     33  C   UNL     1      -1.737  13.691  23.525  0.00  0.00    +0.000 A 
ATOM     34  C   UNL     1      -1.558  13.461  22.159  0.00  0.00    +0.000 A 
ENDBRANCH   7  29
TORSDOF 4
ENDMDL
MODEL 3
REMARK VINA RESULT:      -7.8      0.107      1.191
REMARK  Name = 
REMARK  4 active torsions:
REMARK  status: ('A' for Active; 'I' for Inactive)
REMARK    1  A    between atoms: C_3  and  C_4
REMARK    2  A    between atoms: C_10  and  C_11
REMARK    3  A    between atoms: C_19  and  C_20
REMARK    4  A    between atoms: C_27  and  C_28
REMARK                            x       y       z     vdW  Elec       q    Type
REMARK                         _______ _______ _______ _____ _____    ______ ____
ROOT
ATOM      1  O   UNL     1      -0.996  14.483  19.140  0.00  0.00    +0.000 OA
ATOM      2  C   UNL     1      -1.119  13.270  19.347  0.00  0.00    +0.000 C 
ATOM      3  C   UNL     1       0.014  12.293  19.069  0.00  0.00    +0.000 C 
ATOM      4  C   UNL     1      -0.169  10.937  19.815  0.00  0.00    +0.000 C 
ATOM      5  N   UNL     1      -1.529  10.378  19.866  0.00  0.00    +0.000 NA
ATOM      6  C   UNL     1      -2.604  11.242  19.362  0.00  0.00    +0.000 C 
ATOM      7  C   UNL     1      -2.458  12.720  19.810  0.00  0.00    +0.000 C 
ATOM      8  H   UNL     1      -1.736  10.091  20.822  0.00  0.00    +0.000 HD
ENDROOT
BRANCH   4   9
ATOM      9  C   UNL     1       0.788   9.846  19.313  0.00  0.00    +0.000 A 
ATOM     10  C   UNL     1       1.177   8.807  20.174  0.00  0.00    +0.000 A 
ATOM     11  C   UNL     1       2.092   7.833  19.757  0.00  0.00    +0.000 A 
ATOM     12  C   UNL     1       2.631   7.886  18.473  0.00  0.00    +0.000 A 
ATOM     13 CL   UNL     1       3.785   6.716  17.972  0.00  0.00    +0.000 Cl
ATOM     14  C   UNL     1       2.236   8.885  17.593  0.00  0.00    +0.000 A 
ATOM     15  C   UNL     1       1.304   9.841  18.003  0.00  0.00    +0.000 A 
ENDBRANCH   4   9
BRANCH   6  16
ATOM     16  C   UNL     1      -2.797  10.947  17.868  0.00  0.00    +0.000 A 
ATOM     17  C   UNL     1      -3.821  11.646  17.190  0.00  0.00    +0.000 A 
ATOM     18  C   UNL     1      -4.168  11.333  15.875  0.00  0.00    +0.000 A 
ATOM     19  C   UNL     1      -3.495  10.312  15.215  0.00  0.00    +0.000 A 
ATOM     20 CL   UNL     1      -3.977   9.854  13.629  0.00  0.00    +0.000 Cl
ATOM     21  C   UNL     1      -2.444   9.648  15.840  0.00  0.00    +0.000 A 
ATOM     22  C   UNL     1      -2.079   9.980  17.150  0.00  0.00    +0.000 A 
ENDBRANCH   6  16
BRANCH   3  23
ATOM     23  C   UNL     1       1.388  12.932  19.287  0.00  0.00    +0.000 A 
ATOM     24  C   UNL     1       2.231  13.296  18.225  0.00  0.00    +0.000 A 
ATOM     25  C   UNL     1       3.465  13.900  18.471  0.00  0.00    +0.000 A 
ATOM     26  C   UNL     1       3.883  14.135  19.779  0.00  0.00    +0.000 A 
ATOM     27  C   UNL     1       3.066  13.758  20.845  0.00  0.00    +0.000 A 
ATOM     28  C   UNL     1       1.833  13.160  20.599  0.00  0.00    +0.000 A 
ENDBRANCH   3  23
BRANCH   7  29
ATOM     29  C   UNL     1      -2.699  12.943  21.307  0.00  0.00    +0.000 A 
ATOM     30  C   UNL     1      -1.670  13.296  22.197  0.00  0.00    +0.000 A 
ATOM     31  C   UNL     1      -1.929  13.507  23.553  0.00  0.00    +0.000 A 
ATOM     32  C   UNL     1      -3.224  13.382  24.042  0.00  0.00    +0.000 A 
ATOM     33  C   UNL     1      -4.264  13.063  23.176  0.00  0.00    +0.000 A 
ATOM     34  C   UNL     1      -4.005  12.852  21.819  0.00  0.00    +0.000 A 
ENDBRANCH   7  29
TORSDOF 4
ENDMDL
MODEL 4
REMARK VINA RESULT:      -7.7      0.491      1.287
REMARK  Name = 
REMARK  4 active torsions:
REMARK  status: ('A' for Active; 'I' for Inactive)
REMARK    1  A    between atoms: C_3  and  C_4
REMARK    2  A    between atoms: C_10  and  C_11
REMARK    3  A    between atoms: C_19  and  C_20
REMARK    4  A    between atoms: C_27  and  C_28
REMARK                            x       y       z     vdW  Elec       q    Type
REMARK                         _______ _______ _______ _____ _____    ______ ____
ROOT
ATOM      1  O   UNL     1      -0.890  14.702  19.222  0.00  0.00    +0.000 OA
ATOM      2  C   UNL     1      -1.005  13.513  19.540  0.00  0.00    +0.000 C 
ATOM      3  C   UNL     1       0.085  12.495  19.239  0.00  0.00    +0.000 C 
ATOM      4  C   UNL     1      -0.041  11.209  20.110  0.00  0.00    +0.000 C 
ATOM      5  N   UNL     1      -1.396  10.682  20.335  0.00  0.00    +0.000 NA
ATOM      6  C   UNL     1      -2.504  11.521  19.864  0.00  0.00    +0.000 C 
ATOM      7  C   UNL     1      -2.299  13.028  20.172  0.00  0.00    +0.000 C 
ATOM      8  H   UNL     1      -1.514  10.478  21.327  0.00  0.00    +0.000 HD
ENDROOT
BRANCH   4   9
ATOM      9  C   UNL     1       0.851  10.062  19.613  0.00  0.00    +0.000 A 
ATOM     10  C   UNL     1       1.355  10.087  18.301  0.00  0.00    +0.000 A 
ATOM     11  C   UNL     1       2.123   9.026  17.807  0.00  0.00    +0.000 A 
ATOM     12  C   UNL     1       2.396   7.925  18.617  0.00  0.00    +0.000 A 
ATOM     13 CL   UNL     1       3.304   6.603  17.999  0.00  0.00    +0.000 Cl
ATOM     14  C   UNL     1       1.937   7.894  19.927  0.00  0.00    +0.000 A 
ATOM     15  C   UNL     1       1.192   8.964  20.426  0.00  0.00    +0.000 A 
ENDBRANCH   4   9
BRANCH   6  16
ATOM     16  C   UNL     1      -2.842  11.108  18.426  0.00  0.00    +0.000 A 
ATOM     17  C   UNL     1      -2.100  10.049  17.857  0.00  0.00    +0.000 A 
ATOM     18  C   UNL     1      -2.232   9.708  16.510  0.00  0.00    +0.000 A 
ATOM     19  C   UNL     1      -3.113  10.423  15.707  0.00  0.00    +0.000 A 
ATOM     20 CL   UNL     1      -3.216  10.074  14.027  0.00  0.00    +0.000 Cl
ATOM     21  C   UNL     1      -3.898  11.432  16.257  0.00  0.00    +0.000 A 
ATOM     22  C   UNL     1      -3.784  11.756  17.614  0.00  0.00    +0.000 A 
ENDBRANCH   6  16
BRANCH   3  23
ATOM     23  C   UNL     1       1.480  13.123  19.272  0.00  0.00    +0.000 A 
ATOM     24  C   UNL     1       2.192  13.449  18.107  0.00  0.00    +0.000 A 
ATOM     25  C   UNL     1       3.452  14.045  18.186  0.00  0.00    +0.000 A 
ATOM     26  C   UNL     1       4.027  14.310  19.427  0.00  0.00    +0.000 A 
ATOM     27  C   UNL     1       3.342  13.971  20.593  0.00  0.00    +0.000 A 
ATOM     28  C   UNL     1       2.082  13.380  20.515  0.00  0.00    +0.000 A 
ENDBRANCH   3  23
BRANCH   7  29
ATOM     29  C   UNL     1      -2.395  13.379  21.660  0.00  0.00    +0.000 A 
ATOM     30  C   UNL     1      -1.292  13.836  22.404  0.00  0.00    +0.000 A 
ATOM     31  C   UNL     1      -1.419  14.161  23.756  0.00  0.00    +0.000 A 
ATOM     32  C   UNL     1      -2.652  14.047  24.388  0.00  0.00    +0.000 A 
ATOM     33  C   UNL     1      -3.763  13.625  23.666  0.00  0.00    +0.000 A 
ATOM     34  C   UNL     1      -3.637  13.300  22.313  0.00  0.00    +0.000 A 
ENDBRANCH   7  29
TORSDOF 4
ENDMDL
MODEL 5
REMARK VINA RESULT:      -7.1      6.040     10.730
REMARK  Name = 
REMARK  4 active torsions:
REMARK  status: ('A' for Active; 'I' for Inactive)
REMARK    1  A    between atoms: C_3  and  C_4
REMARK    2  A    between atoms: C_10  and  C_11
REMARK    3  A    between atoms: C_19  and  C_20
REMARK    4  A    between atoms: C_27  and  C_28
REMARK                            x       y       z     vdW  Elec       q    Type
REMARK                         _______ _______ _______ _____ _____    ______ ____
ROOT
ATOM      1  O   UNL     1       7.929   4.346  17.225  0.00  0.00    +0.000 OA
ATOM      2  C   UNL     1       6.741   4.567  16.959  0.00  0.00    +0.000 C 
ATOM      3  C   UNL     1       5.984   5.726  17.589  0.00  0.00    +0.000 C 
ATOM      4  C   UNL     1       4.698   6.104  16.793  0.00  0.00    +0.000 C 
ATOM      5  N   UNL     1       3.891   4.996  16.261  0.00  0.00    +0.000 NA
ATOM      6  C   UNL     1       4.472   3.654  16.381  0.00  0.00    +0.000 C 
ATOM      7  C   UNL     1       5.987   3.615  16.047  0.00  0.00    +0.000 C 
ATOM      8  H   UNL     1       3.663   5.188  15.285  0.00  0.00    +0.000 HD
ENDROOT
BRANCH   4   9
ATOM      9  C   UNL     1       3.773   7.052  17.571  0.00  0.00    +0.000 A 
ATOM     10  C   UNL     1       3.226   6.644  18.799  0.00  0.00    +0.000 A 
ATOM     11  C   UNL     1       2.335   7.467  19.498  0.00  0.00    +0.000 A 
ATOM     12  C   UNL     1       1.978   8.709  18.976  0.00  0.00    +0.000 A 
ATOM     13 CL   UNL     1       0.853   9.704  19.812  0.00  0.00    +0.000 Cl
ATOM     14  C   UNL     1       2.531   9.147  17.780  0.00  0.00    +0.000 A 
ATOM     15  C   UNL     1       3.438   8.335  17.097  0.00  0.00    +0.000 A 
ENDBRANCH   4   9
BRANCH   6  16
ATOM     16  C   UNL     1       4.000   3.042  17.707  0.00  0.00    +0.000 A 
ATOM     17  C   UNL     1       2.639   2.677  17.811  0.00  0.00    +0.000 A 
ATOM     18  C   UNL     1       2.089   2.257  19.024  0.00  0.00    +0.000 A 
ATOM     19  C   UNL     1       2.893   2.196  20.154  0.00  0.00    +0.000 A 
ATOM     20 CL   UNL     1       2.206   1.772  21.673  0.00  0.00    +0.000 Cl
ATOM     21  C   UNL     1       4.250   2.495  20.065  0.00  0.00    +0.000 A 
ATOM     22  C   UNL     1       4.807   2.891  18.844  0.00  0.00    +0.000 A 
ENDBRANCH   6  16
BRANCH   3  23
ATOM     23  C   UNL     1       6.899   6.919  17.878  0.00  0.00    +0.000 A 
ATOM     24  C   UNL     1       6.809   8.131  17.174  0.00  0.00    +0.000 A 
ATOM     25  C   UNL     1       7.648   9.201  17.490  0.00  0.00    +0.000 A 
ATOM     26  C   UNL     1       8.598   9.074  18.500  0.00  0.00    +0.000 A 
ATOM     27  C   UNL     1       8.715   7.869  19.193  0.00  0.00    +0.000 A 
ATOM     28  C   UNL     1       7.875   6.803  18.881  0.00  0.00    +0.000 A 
ENDBRANCH   3  23
BRANCH   7  29
ATOM     29  C   UNL     1       6.304   3.844  14.566  0.00  0.00    +0.000 A 
ATOM     30  C   UNL     1       5.628   3.171  13.532  0.00  0.00    +0.000 A 
ATOM     31  C   UNL     1       5.933   3.416  12.191  0.00  0.00    +0.000 A 
ATOM     32  C   UNL     1       6.910   4.347  11.858  0.00  0.00    +0.000 A 
ATOM     33  C   UNL     1       7.571   5.046  12.861  0.00  0.00    +0.000 A 
ATOM     34  C   UNL     1       7.267   4.802  14.203  0.00  0.00    +0.000 A 
ENDBRANCH   7  29
TORSDOF 4
ENDMDL
MODEL 6
REMARK VINA RESULT:      -6.7      1.979      6.319
REMARK  Name = 
REMARK  4 active torsions:
REMARK  status: ('A' for Active; 'I' for Inactive)
REMARK    1  A    between atoms: C_3  and  C_4
REMARK    2  A    between atoms: C_10  and  C_11
REMARK    3  A    between atoms: C_19  and  C_20
REMARK    4  A    between atoms: C_27  and  C_28
REMARK                            x       y       z     vdW  Elec       q    Type
REMARK                         _______ _______ _______ _____ _____    ______ ____
ROOT
ATOM      1  O   UNL     1       1.600  13.566  21.707  0.00  0.00    +0.000 OA
ATOM      2  C   UNL     1       1.067  13.221  20.645  0.00  0.00    +0.000 C 
ATOM      3  C   UNL     1      -0.405  12.841  20.576  0.00  0.00    +0.000 C 
ATOM      4  C   UNL     1      -0.970  12.898  19.125  0.00  0.00    +0.000 C 
ATOM      5  N   UNL     1      -0.103  12.393  18.049  0.00  0.00    +0.000 NA
ATOM      6  C   UNL     1       1.272  12.051  18.430  0.00  0.00    +0.000 C 
ATOM      7  C   UNL     1       1.913  13.088  19.390  0.00  0.00    +0.000 C 
ATOM      8  H   UNL     1      -0.093  13.069  17.285  0.00  0.00    +0.000 HD
ENDROOT
BRANCH   4   9
ATOM      9  C   UNL     1      -2.347  12.232  18.995  0.00  0.00    +0.000 A 
ATOM     10  C   UNL     1      -2.502  11.101  18.176  0.00  0.00    +0.000 A 
ATOM     11  C   UNL     1      -3.759  10.510  17.997  0.00  0.00    +0.000 A 
ATOM     12  C   UNL     1      -4.878  11.045  18.633  0.00  0.00    +0.000 A 
ATOM     13 CL   UNL     1      -6.428  10.347  18.382  0.00  0.00    +0.000 Cl
ATOM     14  C   UNL     1      -4.743  12.143  19.472  0.00  0.00    +0.000 A 
ATOM     15  C   UNL     1      -3.485  12.715  19.670  0.00  0.00    +0.000 A 
ENDBRANCH   4   9
BRANCH   6  16
ATOM     16  C   UNL     1       1.307  10.569  18.826  0.00  0.00    +0.000 A 
ATOM     17  C   UNL     1       0.860  10.227  20.122  0.00  0.00    +0.000 A 
ATOM     18  C   UNL     1       0.998   8.931  20.622  0.00  0.00    +0.000 A 
ATOM     19  C   UNL     1       1.587   7.953  19.830  0.00  0.00    +0.000 A 
ATOM     20 CL   UNL     1       1.848   6.377  20.467  0.00  0.00    +0.000 Cl
ATOM     21  C   UNL     1       1.981   8.250  18.528  0.00  0.00    +0.000 A 
ATOM     22  C   UNL     1       1.819   9.543  18.019  0.00  0.00    +0.000 A 
ENDBRANCH   6  16
BRANCH   3  23
ATOM     23  C   UNL     1      -1.245  13.618  21.592  0.00  0.00    +0.000 A 
ATOM     24  C   UNL     1      -1.544  14.982  21.444  0.00  0.00    +0.000 A 
ATOM     25  C   UNL     1      -2.336  15.643  22.384  0.00  0.00    +0.000 A 
ATOM     26  C   UNL     1      -2.829  14.958  23.492  0.00  0.00    +0.000 A 
ATOM     27  C   UNL     1      -2.523  13.609  23.665  0.00  0.00    +0.000 A 
ATOM     28  C   UNL     1      -1.736  12.948  22.725  0.00  0.00    +0.000 A 
ENDBRANCH   3  23
BRANCH   7  29
ATOM     29  C   UNL     1       2.211  14.441  18.736  0.00  0.00    +0.000 A 
ATOM     30  C   UNL     1       1.423  15.583  18.961  0.00  0.00    +0.000 A 
ATOM     31  C   UNL     1       1.733  16.805  18.360  0.00  0.00    +0.000 A 
ATOM     32  C   UNL     1       2.845  16.912  17.533  0.00  0.00    +0.000 A 
ATOM     33  C   UNL     1       3.657  15.803  17.319  0.00  0.00    +0.000 A 
ATOM     34  C   UNL     1       3.348  14.581  17.920  0.00  0.00    +0.000 A 
ENDBRANCH   7  29
TORSDOF 4
ENDMDL
MODEL 7
REMARK VINA RESULT:      -6.6      3.866      6.996
REMARK  Name = 
REMARK  4 active torsions:
REMARK  status: ('A' for Active; 'I' for Inactive)
REMARK    1  A    between atoms: C_3  and  C_4
REMARK    2  A    between atoms: C_10  and  C_11
REMARK    3  A    between atoms: C_19  and  C_20
REMARK    4  A    between atoms: C_27  and  C_28
REMARK                            x       y       z     vdW  Elec       q    Type
REMARK                         _______ _______ _______ _____ _____    ______ ____
ROOT
ATOM      1  O   UNL     1      -3.305  11.634  23.781  0.00  0.00    +0.000 OA
ATOM      2  C   UNL     1      -2.978  12.625  23.117  0.00  0.00    +0.000 C 
ATOM      3  C   UNL     1      -1.600  12.743  22.482  0.00  0.00    +0.000 C 
ATOM      4  C   UNL     1      -1.557  13.801  21.339  0.00  0.00    +0.000 C 
ATOM      5  N   UNL     1      -2.295  15.054  21.558  0.00  0.00    +0.000 NA
ATOM      6  C   UNL     1      -3.142  15.107  22.755  0.00  0.00    +0.000 C 
ATOM      7  C   UNL     1      -3.937  13.797  22.996  0.00  0.00    +0.000 C 
ATOM      8  H   UNL     1      -2.853  15.261  20.730  0.00  0.00    +0.000 HD
ENDROOT
BRANCH   4   9
ATOM      9  C   UNL     1      -0.126  14.148  20.901  0.00  0.00    +0.000 A 
ATOM     10  C   UNL     1       0.183  14.247  19.534  0.00  0.00    +0.000 A 
ATOM     11  C   UNL     1       1.491  14.506  19.110  0.00  0.00    +0.000 A 
ATOM     12  C   UNL     1       2.510  14.668  20.048  0.00  0.00    +0.000 A 
ATOM     13 CL   UNL     1       4.124  14.946  19.529  0.00  0.00    +0.000 Cl
ATOM     14  C   UNL     1       2.222  14.607  21.405  0.00  0.00    +0.000 A 
ATOM     15  C   UNL     1       0.911  14.374  21.826  0.00  0.00    +0.000 A 
ENDBRANCH   4   9
BRANCH   6  16
ATOM     16  C   UNL     1      -2.307  15.678  23.909  0.00  0.00    +0.000 A 
ATOM     17  C   UNL     1      -1.376  16.696  23.602  0.00  0.00    +0.000 A 
ATOM     18  C   UNL     1      -0.470  17.166  24.555  0.00  0.00    +0.000 A 
ATOM     19  C   UNL     1      -0.481  16.623  25.834  0.00  0.00    +0.000 A 
ATOM     20 CL   UNL     1       0.690  17.126  26.988  0.00  0.00    +0.000 Cl
ATOM     21  C   UNL     1      -1.427  15.662  26.178  0.00  0.00    +0.000 A 
ATOM     22  C   UNL     1      -2.352  15.209  25.230  0.00  0.00    +0.000 A 
ENDBRANCH   6  16
BRANCH   3  23
ATOM     23  C   UNL     1      -1.038  11.378  22.076  0.00  0.00    +0.000 A 
ATOM     24  C   UNL     1      -0.934  10.969  20.737  0.00  0.00    +0.000 A 
ATOM     25  C   UNL     1      -0.390   9.725  20.413  0.00  0.00    +0.000 A 
ATOM     26  C   UNL     1       0.043   8.865  21.420  0.00  0.00    +0.000 A 
ATOM     27  C   UNL     1      -0.075   9.247  22.755  0.00  0.00    +0.000 A 
ATOM     28  C   UNL     1      -0.613  10.491  23.079  0.00  0.00    +0.000 A 
ENDBRANCH   3  23
BRANCH   7  29
ATOM     29  C   UNL     1      -5.047  13.545  21.971  0.00  0.00    +0.000 A 
ATOM     30  C   UNL     1      -4.921  12.607  20.930  0.00  0.00    +0.000 A 
ATOM     31  C   UNL     1      -5.960  12.392  20.022  0.00  0.00    +0.000 A 
ATOM     32  C   UNL     1      -7.149  13.100  20.144  0.00  0.00    +0.000 A 
ATOM     33  C   UNL     1      -7.309  14.012  21.182  0.00  0.00    +0.000 A 
ATOM     34  C   UNL     1      -6.271  14.227  22.092  0.00  0.00    +0.000 A 
ENDBRANCH   7  29
TORSDOF 4
ENDMDL
MODEL 8
REMARK VINA RESULT:      -6.6      1.951      6.212
REMARK  Name = 
REMARK  4 active torsions:
REMARK  status: ('A' for Active; 'I' for Inactive)
REMARK    1  A    between atoms: C_3  and  C_4
REMARK    2  A    between atoms: C_10  and  C_11
REMARK    3  A    between atoms: C_19  and  C_20
REMARK    4  A    between atoms: C_27  and  C_28
REMARK                            x       y       z     vdW  Elec       q    Type
REMARK                         _______ _______ _______ _____ _____    ______ ____
ROOT
ATOM      1  O   UNL     1       1.760  13.438  21.678  0.00  0.00    +0.000 OA
ATOM      2  C   UNL     1       1.215  13.123  20.614  0.00  0.00    +0.000 C 
ATOM      3  C   UNL     1      -0.261  12.756  20.550  0.00  0.00    +0.000 C 
ATOM      4  C   UNL     1      -0.839  12.853  19.106  0.00  0.00    +0.000 C 
ATOM      5  N   UNL     1       0.012  12.366  18.010  0.00  0.00    +0.000 NA
ATOM      6  C   UNL     1       1.388  12.004  18.370  0.00  0.00    +0.000 C 
ATOM      7  C   UNL     1       2.047  13.013  19.348  0.00  0.00    +0.000 C 
ATOM      8  H   UNL     1       0.022  13.059  17.262  0.00  0.00    +0.000 HD
ENDROOT
BRANCH   4   9
ATOM      9  C   UNL     1      -2.224  12.201  18.974  0.00  0.00    +0.000 A 
ATOM     10  C   UNL     1      -2.386  11.061  18.169  0.00  0.00    +0.000 A 
ATOM     11  C   UNL     1      -3.648  10.483  17.988  0.00  0.00    +0.000 A 
ATOM     12  C   UNL     1      -4.766  11.040  18.607  0.00  0.00    +0.000 A 
ATOM     13 CL   UNL     1      -6.322  10.357  18.353  0.00  0.00    +0.000 Cl
ATOM     14  C   UNL     1      -4.625  12.147  19.432  0.00  0.00    +0.000 A 
ATOM     15  C   UNL     1      -3.361  12.707  19.632  0.00  0.00    +0.000 A 
ENDBRANCH   4   9
BRANCH   6  16
ATOM     16  C   UNL     1       1.414  10.513  18.730  0.00  0.00    +0.000 A 
ATOM     17  C   UNL     1       0.984  10.145  20.025  0.00  0.00    +0.000 A 
ATOM     18  C   UNL     1       1.117   8.836  20.492  0.00  0.00    +0.000 A 
ATOM     19  C   UNL     1       1.683   7.871  19.669  0.00  0.00    +0.000 A 
ATOM     20 CL   UNL     1       1.938   6.278  20.265  0.00  0.00    +0.000 Cl
ATOM     21  C   UNL     1       2.061   8.195  18.369  0.00  0.00    +0.000 A 
ATOM     22  C   UNL     1       1.904   9.501  17.892  0.00  0.00    +0.000 A 
ENDBRANCH   6  16
BRANCH   3  23
ATOM     23  C   UNL     1      -1.085  13.516  21.592  0.00  0.00    +0.000 A 
ATOM     24  C   UNL     1      -1.620  12.898  22.734  0.00  0.00    +0.000 A 
ATOM     25  C   UNL     1      -2.344  13.637  23.671  0.00  0.00    +0.000 A 
ATOM     26  C   UNL     1      -2.559  15.000  23.475  0.00  0.00    +0.000 A 
ATOM     27  C   UNL     1      -2.054  15.623  22.335  0.00  0.00    +0.000 A 
ATOM     28  C   UNL     1      -1.327  14.887  21.402  0.00  0.00    +0.000 A 
ENDBRANCH   3  23
BRANCH   7  29
ATOM     29  C   UNL     1       2.351  14.378  18.723  0.00  0.00    +0.000 A 
ATOM     30  C   UNL     1       3.434  14.590  17.851  0.00  0.00    +0.000 A 
ATOM     31  C   UNL     1       3.672  15.845  17.287  0.00  0.00    +0.000 A 
ATOM     32  C   UNL     1       2.826  16.909  17.575  0.00  0.00    +0.000 A 
ATOM     33  C   UNL     1       1.732  16.718  18.411  0.00  0.00    +0.000 A 
ATOM     34  C   UNL     1       1.492  15.462  18.975  0.00  0.00    +0.000 A 
ENDBRANCH   7  29
TORSDOF 4
ENDMDL
MODEL 9
REMARK VINA RESULT:      -6.4      3.961      6.760
REMARK  Name = 
REMARK  4 active torsions:
REMARK  status: ('A' for Active; 'I' for Inactive)
REMARK    1  A    between atoms: C_3  and  C_4
REMARK    2  A    between atoms: C_10  and  C_11
REMARK    3  A    between atoms: C_19  and  C_20
REMARK    4  A    between atoms: C_27  and  C_28
REMARK                            x       y       z     vdW  Elec       q    Type
REMARK                         _______ _______ _______ _____ _____    ______ ____
ROOT
ATOM      1  O   UNL     1      -3.879  12.083  22.733  0.00  0.00    +0.000 OA
ATOM      2  C   UNL     1      -3.350  12.946  22.023  0.00  0.00    +0.000 C 
ATOM      3  C   UNL     1      -1.843  13.006  21.825  0.00  0.00    +0.000 C 
ATOM      4  C   UNL     1      -1.437  13.833  20.568  0.00  0.00    +0.000 C 
ATOM      5  N   UNL     1      -2.188  15.071  20.310  0.00  0.00    +0.000 NA
ATOM      6  C   UNL     1      -3.360  15.307  21.161  0.00  0.00    +0.000 C 
ATOM      7  C   UNL     1      -4.210  14.031  21.396  0.00  0.00    +0.000 C 
ATOM      8  H   UNL     1      -2.464  15.095  19.328  0.00  0.00    +0.000 HD
ENDROOT
BRANCH   4   9
ATOM      9  C   UNL     1       0.064  14.157  20.526  0.00  0.00    +0.000 A 
ATOM     10  C   UNL     1       0.771  14.039  19.318  0.00  0.00    +0.000 A 
ATOM     11  C   UNL     1       2.151  14.273  19.267  0.00  0.00    +0.000 A 
ATOM     12  C   UNL     1       2.841  14.627  20.425  0.00  0.00    +0.000 A 
ATOM     13 CL   UNL     1       4.541  14.876  20.373  0.00  0.00    +0.000 Cl
ATOM     14  C   UNL     1       2.158  14.782  21.623  0.00  0.00    +0.000 A 
ATOM     15  C   UNL     1       0.778  14.572  21.667  0.00  0.00    +0.000 A 
ENDBRANCH   4   9
BRANCH   6  16
ATOM     16  C   UNL     1      -2.910  16.120  22.383  0.00  0.00    +0.000 A 
ATOM     17  C   UNL     1      -1.851  17.040  22.203  0.00  0.00    +0.000 A 
ATOM     18  C   UNL     1      -1.276  17.708  23.285  0.00  0.00    +0.000 A 
ATOM     19  C   UNL     1      -1.752  17.467  24.568  0.00  0.00    +0.000 A 
ATOM     20 CL   UNL     1      -0.990  18.212  25.918  0.00  0.00    +0.000 Cl
ATOM     21  C   UNL     1      -2.831  16.611  24.765  0.00  0.00    +0.000 A 
ATOM     22  C   UNL     1      -3.425  15.961  23.677  0.00  0.00    +0.000 A 
ENDBRANCH   6  16
BRANCH   3  23
ATOM     23  C   UNL     1      -1.203  11.616  21.876  0.00  0.00    +0.000 A 
ATOM     24  C   UNL     1      -0.892  10.969  23.082  0.00  0.00    +0.000 A 
ATOM     25  C   UNL     1      -0.333   9.690  23.081  0.00  0.00    +0.000 A 
ATOM     26  C   UNL     1      -0.061   9.045  21.876  0.00  0.00    +0.000 A 
ATOM     27  C   UNL     1      -0.343   9.684  20.670  0.00  0.00    +0.000 A 
ATOM     28  C   UNL     1      -0.905  10.958  20.671  0.00  0.00    +0.000 A 
ENDBRANCH   3  23
BRANCH   7  29
ATOM     29  C   UNL     1      -4.957  13.543  20.151  0.00  0.00    +0.000 A 
ATOM     30  C   UNL     1      -6.029  14.254  19.581  0.00  0.00    +0.000 A 
ATOM     31  C   UNL     1      -6.678  13.786  18.436  0.00  0.00    +0.000 A 
ATOM     32  C   UNL     1      -6.260  12.607  17.831  0.00  0.00    +0.000 A 
ATOM     33  C   UNL     1      -5.183  11.902  18.359  0.00  0.00    +0.000 A 
ATOM     34  C   UNL     1      -4.533  12.369  19.504  0.00  0.00    +0.000 A 
ENDBRANCH   7  29
TORSDOF 4
ENDMDL
