MODEL 1
REMARK VINA RESULT:      -8.6      0.000      0.000
REMARK  Name = 
REMARK  4 active torsions:
REMARK  status: ('A' for Active; 'I' for Inactive)
REMARK    1  A    between atoms: C_1  and  O_2
REMARK    2  A    between atoms: O_2  and  C_3
REMARK    3  A    between atoms: C_7  and  C_8
REMARK    4  A    between atoms: C_13  and  N_14
REMARK                            x       y       z     vdW  Elec       q    Type
REMARK                         _______ _______ _______ _____ _____    ______ ____
ROOT
ATOM      1  C   UNL     1       2.247   3.860  18.579  0.00  0.00    +0.000 C 
ATOM      2  C   UNL     1       1.305   2.804  19.159  0.00  0.00    +0.000 C 
ATOM      3  N   UNL     1       1.964   1.562  18.864  0.00  0.00    +0.000 N 
ATOM      4  C   UNL     1       3.302   1.731  18.557  0.00  0.00    +0.000 C 
ATOM      5  O   UNL     1       4.050   0.833  18.204  0.00  0.00    +0.000 OA
ATOM      6  C   UNL     1       3.633   3.206  18.776  0.00  0.00    +0.000 C 
ATOM      7  H   UNL     1       1.546   0.638  18.885  0.00  0.00    +0.000 HD
ENDROOT
BRANCH   6   8
ATOM      8  N   UNL     1       4.613   3.731  17.865  0.00  0.00    +0.000 N 
ATOM      9  C   UNL     1       5.739   4.382  18.261  0.00  0.00    +0.000 C 
ATOM     10  O   UNL     1       6.003   4.623  19.435  0.00  0.00    +0.000 OA
ATOM     11  N   UNL     1       6.589   4.769  17.264  0.00  0.00    +0.000 N 
ATOM     12  C   UNL     1       6.311   4.623  15.934  0.00  0.00    +0.000 A 
ATOM     13  N   UNL     1       5.167   4.241  15.405  0.00  0.00    +0.000 NA
ATOM     14  C   UNL     1       5.320   4.095  14.044  0.00  0.00    +0.000 A 
ATOM     15  C   UNL     1       6.589   4.345  13.595  0.00  0.00    +0.000 A 
ATOM     16 CL   UNL     1       7.189   4.167  12.003  0.00  0.00    +0.000 Cl
ATOM     17  S   UNL     1       7.601   4.875  14.856  0.00  0.00    +0.000 S 
ATOM     18  H   UNL     1       4.613   3.381  16.910  0.00  0.00    +0.000 HD
ATOM     19  H   UNL     1       7.486   5.127  17.553  0.00  0.00    +0.000 HD
ENDBRANCH   6   8
BRANCH   1  24
ATOM     20  C   UNL     1       1.749   7.827  20.229  0.00  0.00    +0.000 A 
ATOM     21  C   UNL     1       2.287   7.655  18.957  0.00  0.00    +0.000 A 
ATOM     22  C   UNL     1       2.480   6.376  18.451  0.00  0.00    +0.000 A 
ATOM     23  F   UNL     1       2.989   6.255  17.220  0.00  0.00    +0.000 F 
ATOM     24  C   UNL     1       2.145   5.235  19.183  0.00  0.00    +0.000 A 
ATOM     25  C   UNL     1       1.650   5.427  20.473  0.00  0.00    +0.000 A 
ATOM     26  F   UNL     1       1.331   4.365  21.232  0.00  0.00    +0.000 F 
ATOM     27  C   UNL     1       1.463   6.702  21.006  0.00  0.00    +0.000 A 
BRANCH  20  29
ATOM     28  C   UNL     1       1.063   8.973  22.161  0.00  0.00    +0.000 C 
ATOM     29  O   UNL     1       1.496   9.040  20.803  0.00  0.00    +0.000 OA
ENDBRANCH  20  29
ENDBRANCH   1  24
TORSDOF 3
ENDMDL
MODEL 2
REMARK VINA RESULT:      -8.2      0.201      1.626
REMARK  Name = 
REMARK  4 active torsions:
REMARK  status: ('A' for Active; 'I' for Inactive)
REMARK    1  A    between atoms: C_1  and  O_2
REMARK    2  A    between atoms: O_2  and  C_3
REMARK    3  A    between atoms: C_7  and  C_8
REMARK    4  A    between atoms: C_13  and  N_14
REMARK                            x       y       z     vdW  Elec       q    Type
REMARK                         _______ _______ _______ _____ _____    ______ ____
ROOT
ATOM      1  C   UNL     1       2.178   3.693  18.541  0.00  0.00    +0.000 C 
ATOM      2  C   UNL     1       1.262   2.595  19.083  0.00  0.00    +0.000 C 
ATOM      3  N   UNL     1       1.983   1.383  18.804  0.00  0.00    +0.000 N 
ATOM      4  C   UNL     1       3.322   1.610  18.543  0.00  0.00    +0.000 C 
ATOM      5  O   UNL     1       4.118   0.746  18.212  0.00  0.00    +0.000 OA
ATOM      6  C   UNL     1       3.583   3.096  18.781  0.00  0.00    +0.000 C 
ATOM      7  H   UNL     1       1.603   0.442  18.806  0.00  0.00    +0.000 HD
ENDROOT
BRANCH   6   8
ATOM      8  N   UNL     1       4.570   3.668  17.907  0.00  0.00    +0.000 N 
ATOM      9  C   UNL     1       5.671   4.334  18.344  0.00  0.00    +0.000 C 
ATOM     10  O   UNL     1       5.903   4.551  19.530  0.00  0.00    +0.000 OA
ATOM     11  N   UNL     1       6.533   4.767  17.378  0.00  0.00    +0.000 N 
ATOM     12  C   UNL     1       6.289   4.649  16.038  0.00  0.00    +0.000 A 
ATOM     13  N   UNL     1       5.166   4.254  15.474  0.00  0.00    +0.000 NA
ATOM     14  C   UNL     1       5.353   4.147  14.113  0.00  0.00    +0.000 A 
ATOM     15  C   UNL     1       6.625   4.439  13.700  0.00  0.00    +0.000 A 
ATOM     16 CL   UNL     1       7.266   4.316  12.118  0.00  0.00    +0.000 Cl
ATOM     17  S   UNL     1       7.596   4.959  14.997  0.00  0.00    +0.000 S 
ATOM     18  H   UNL     1       4.600   3.343  16.943  0.00  0.00    +0.000 HD
ATOM     19  H   UNL     1       7.415   5.138  17.696  0.00  0.00    +0.000 HD
ENDBRANCH   6   8
BRANCH   1  24
ATOM     20  C   UNL     1       1.860   7.597  20.374  0.00  0.00    +0.000 A 
ATOM     21  C   UNL     1       1.407   6.465  21.044  0.00  0.00    +0.000 A 
ATOM     22  C   UNL     1       1.477   5.220  20.432  0.00  0.00    +0.000 A 
ATOM     23  F   UNL     1       1.042   4.156  21.116  0.00  0.00    +0.000 F 
ATOM     24  C   UNL     1       1.998   5.059  19.147  0.00  0.00    +0.000 A 
ATOM     25  C   UNL     1       2.404   6.211  18.474  0.00  0.00    +0.000 A 
ATOM     26  F   UNL     1       2.894   6.120  17.225  0.00  0.00    +0.000 F 
ATOM     27  C   UNL     1       2.329   7.472  19.064  0.00  0.00    +0.000 A 
BRANCH  20  29
ATOM     28  C   UNL     1       1.053   9.012  22.068  0.00  0.00    +0.000 C 
ATOM     29  O   UNL     1       1.859   8.858  20.900  0.00  0.00    +0.000 OA
ENDBRANCH  20  29
ENDBRANCH   1  24
TORSDOF 3
ENDMDL
MODEL 3
REMARK VINA RESULT:      -8.1      4.318      6.672
REMARK  Name = 
REMARK  4 active torsions:
REMARK  status: ('A' for Active; 'I' for Inactive)
REMARK    1  A    between atoms: C_1  and  O_2
REMARK    2  A    between atoms: O_2  and  C_3
REMARK    3  A    between atoms: C_7  and  C_8
REMARK    4  A    between atoms: C_13  and  N_14
REMARK                            x       y       z     vdW  Elec       q    Type
REMARK                         _______ _______ _______ _____ _____    ______ ____
ROOT
ATOM      1  C   UNL     1       4.187   4.071  19.584  0.00  0.00    +0.000 C 
ATOM      2  C   UNL     1       4.122   2.621  20.065  0.00  0.00    +0.000 C 
ATOM      3  N   UNL     1       2.829   2.527  20.686  0.00  0.00    +0.000 N 
ATOM      4  C   UNL     1       1.984   3.556  20.311  0.00  0.00    +0.000 C 
ATOM      5  O   UNL     1       0.862   3.729  20.760  0.00  0.00    +0.000 OA
ATOM      6  C   UNL     1       2.710   4.369  19.242  0.00  0.00    +0.000 C 
ATOM      7  H   UNL     1       2.515   1.798  21.319  0.00  0.00    +0.000 HD
ENDROOT
BRANCH   6   8
ATOM      8  N   UNL     1       2.421   5.777  19.275  0.00  0.00    +0.000 N 
ATOM      9  C   UNL     1       2.635   6.617  18.227  0.00  0.00    +0.000 C 
ATOM     10  O   UNL     1       3.140   6.259  17.167  0.00  0.00    +0.000 OA
ATOM     11  N   UNL     1       2.254   7.915  18.412  0.00  0.00    +0.000 N 
ATOM     12  C   UNL     1       1.780   8.402  19.598  0.00  0.00    +0.000 A 
ATOM     13  N   UNL     1       1.752   7.772  20.755  0.00  0.00    +0.000 NA
ATOM     14  C   UNL     1       1.088   8.547  21.679  0.00  0.00    +0.000 A 
ATOM     15  C   UNL     1       0.610   9.728  21.179  0.00  0.00    +0.000 A 
ATOM     16 CL   UNL     1      -0.350  10.894  21.983  0.00  0.00    +0.000 Cl
ATOM     17  S   UNL     1       1.074   9.949  19.556  0.00  0.00    +0.000 S 
ATOM     18  H   UNL     1       1.792   6.118  19.998  0.00  0.00    +0.000 HD
ATOM     19  H   UNL     1       2.281   8.511  17.600  0.00  0.00    +0.000 HD
ENDBRANCH   6   8
BRANCH   1  24
ATOM     20  C   UNL     1       6.773   5.024  16.251  0.00  0.00    +0.000 A 
ATOM     21  C   UNL     1       5.714   4.136  16.090  0.00  0.00    +0.000 A 
ATOM     22  C   UNL     1       4.912   3.805  17.175  0.00  0.00    +0.000 A 
ATOM     23  F   UNL     1       3.898   2.956  16.974  0.00  0.00    +0.000 F 
ATOM     24  C   UNL     1       5.131   4.344  18.444  0.00  0.00    +0.000 A 
ATOM     25  C   UNL     1       6.225   5.196  18.596  0.00  0.00    +0.000 A 
ATOM     26  F   UNL     1       6.498   5.728  19.800  0.00  0.00    +0.000 F 
ATOM     27  C   UNL     1       7.051   5.530  17.523  0.00  0.00    +0.000 A 
BRANCH  20  29
ATOM     28  C   UNL     1       7.242   4.943  13.950  0.00  0.00    +0.000 C 
ATOM     29  O   UNL     1       7.599   5.433  15.243  0.00  0.00    +0.000 OA
ENDBRANCH  20  29
ENDBRANCH   1  24
TORSDOF 3
ENDMDL
MODEL 4
REMARK VINA RESULT:      -8.1      4.350      6.773
REMARK  Name = 
REMARK  4 active torsions:
REMARK  status: ('A' for Active; 'I' for Inactive)
REMARK    1  A    between atoms: C_1  and  O_2
REMARK    2  A    between atoms: O_2  and  C_3
REMARK    3  A    between atoms: C_7  and  C_8
REMARK    4  A    between atoms: C_13  and  N_14
REMARK                            x       y       z     vdW  Elec       q    Type
REMARK                         _______ _______ _______ _____ _____    ______ ____
ROOT
ATOM      1  C   UNL     1       4.082   4.159  19.530  0.00  0.00    +0.000 C 
ATOM      2  C   UNL     1       4.007   2.692  19.956  0.00  0.00    +0.000 C 
ATOM      3  N   UNL     1       2.718   2.587  20.583  0.00  0.00    +0.000 N 
ATOM      4  C   UNL     1       1.881   3.637  20.254  0.00  0.00    +0.000 C 
ATOM      5  O   UNL     1       0.763   3.802  20.718  0.00  0.00    +0.000 OA
ATOM      6  C   UNL     1       2.606   4.484  19.211  0.00  0.00    +0.000 C 
ATOM      7  H   UNL     1       2.403   1.837  21.189  0.00  0.00    +0.000 HD
ENDROOT
BRANCH   6   8
ATOM      8  N   UNL     1       2.331   5.892  19.300  0.00  0.00    +0.000 N 
ATOM      9  C   UNL     1       2.552   6.770  18.286  0.00  0.00    +0.000 C 
ATOM     10  O   UNL     1       3.052   6.450  17.212  0.00  0.00    +0.000 OA
ATOM     11  N   UNL     1       2.183   8.063  18.523  0.00  0.00    +0.000 N 
ATOM     12  C   UNL     1       1.715   8.508  19.728  0.00  0.00    +0.000 A 
ATOM     13  N   UNL     1       1.682   7.833  20.858  0.00  0.00    +0.000 NA
ATOM     14  C   UNL     1       1.025   8.577  21.814  0.00  0.00    +0.000 A 
ATOM     15  C   UNL     1       0.559   9.781  21.361  0.00  0.00    +0.000 A 
ATOM     16 CL   UNL     1      -0.389  10.923  22.212  0.00  0.00    +0.000 Cl
ATOM     17  S   UNL     1       1.023  10.061  19.748  0.00  0.00    +0.000 S 
ATOM     18  H   UNL     1       1.705   6.210  20.037  0.00  0.00    +0.000 HD
ATOM     19  H   UNL     1       2.215   8.691  17.735  0.00  0.00    +0.000 HD
ENDBRANCH   6   8
BRANCH   1  24
ATOM     20  C   UNL     1       6.889   4.859  16.315  0.00  0.00    +0.000 A 
ATOM     21  C   UNL     1       7.129   5.375  17.584  0.00  0.00    +0.000 A 
ATOM     22  C   UNL     1       6.203   5.179  18.601  0.00  0.00    +0.000 A 
ATOM     23  F   UNL     1       6.478   5.682  19.810  0.00  0.00    +0.000 F 
ATOM     24  C   UNL     1       5.021   4.467  18.394  0.00  0.00    +0.000 A 
ATOM     25  C   UNL     1       4.776   3.996  17.103  0.00  0.00    +0.000 A 
ATOM     26  F   UNL     1       3.644   3.322  16.839  0.00  0.00    +0.000 F 
ATOM     27  C   UNL     1       5.686   4.195  16.064  0.00  0.00    +0.000 A 
BRANCH  20  29
ATOM     28  C   UNL     1       7.137   4.818  13.979  0.00  0.00    +0.000 C 
ATOM     29  O   UNL     1       7.748   4.974  15.259  0.00  0.00    +0.000 OA
ENDBRANCH  20  29
ENDBRANCH   1  24
TORSDOF 3
ENDMDL
MODEL 5
REMARK VINA RESULT:      -7.9      1.315      1.412
REMARK  Name = 
REMARK  4 active torsions:
REMARK  status: ('A' for Active; 'I' for Inactive)
REMARK    1  A    between atoms: C_1  and  O_2
REMARK    2  A    between atoms: O_2  and  C_3
REMARK    3  A    between atoms: C_7  and  C_8
REMARK    4  A    between atoms: C_13  and  N_14
REMARK                            x       y       z     vdW  Elec       q    Type
REMARK                         _______ _______ _______ _____ _____    ______ ____
ROOT
ATOM      1  C   UNL     1       2.638   4.668  19.300  0.00  0.00    +0.000 C 
ATOM      2  C   UNL     1       1.858   3.816  20.303  0.00  0.00    +0.000 C 
ATOM      3  N   UNL     1       2.681   2.649  20.470  0.00  0.00    +0.000 N 
ATOM      4  C   UNL     1       3.978   2.849  20.035  0.00  0.00    +0.000 C 
ATOM      5  O   UNL     1       4.840   1.984  20.010  0.00  0.00    +0.000 OA
ATOM      6  C   UNL     1       4.103   4.320  19.645  0.00  0.00    +0.000 C 
ATOM      7  H   UNL     1       2.395   1.763  20.873  0.00  0.00    +0.000 HD
ENDROOT
BRANCH   6   8
ATOM      8  N   UNL     1       4.991   4.563  18.541  0.00  0.00    +0.000 N 
ATOM      9  C   UNL     1       6.243   5.074  18.677  0.00  0.00    +0.000 C 
ATOM     10  O   UNL     1       6.719   5.419  19.754  0.00  0.00    +0.000 OA
ATOM     11  N   UNL     1       6.970   5.190  17.527  0.00  0.00    +0.000 N 
ATOM     12  C   UNL     1       6.470   4.920  16.284  0.00  0.00    +0.000 A 
ATOM     13  N   UNL     1       5.215   4.658  15.980  0.00  0.00    +0.000 NA
ATOM     14  C   UNL     1       5.132   4.316  14.648  0.00  0.00    +0.000 A 
ATOM     15  C   UNL     1       6.336   4.304  13.998  0.00  0.00    +0.000 A 
ATOM     16 CL   UNL     1       6.649   3.830  12.384  0.00  0.00    +0.000 Cl
ATOM     17  S   UNL     1       7.597   4.825  15.015  0.00  0.00    +0.000 S 
ATOM     18  H   UNL     1       4.793   4.097  17.658  0.00  0.00    +0.000 HD
ATOM     19  H   UNL     1       7.942   5.437  17.633  0.00  0.00    +0.000 HD
ENDBRANCH   6   8
BRANCH   1  24
ATOM     20  C   UNL     1       1.613   8.870  19.310  0.00  0.00    +0.000 A 
ATOM     21  C   UNL     1       2.183   8.286  18.183  0.00  0.00    +0.000 A 
ATOM     22  C   UNL     1       2.545   6.945  18.202  0.00  0.00    +0.000 A 
ATOM     23  F   UNL     1       3.078   6.420  17.093  0.00  0.00    +0.000 F 
ATOM     24  C   UNL     1       2.352   6.145  19.330  0.00  0.00    +0.000 A 
ATOM     25  C   UNL     1       1.823   6.760  20.465  0.00  0.00    +0.000 A 
ATOM     26  F   UNL     1       1.635   6.045  21.587  0.00  0.00    +0.000 F 
ATOM     27  C   UNL     1       1.466   8.108  20.472  0.00  0.00    +0.000 A 
BRANCH  20  29
ATOM     28  C   UNL     1      -0.215  10.344  19.301  0.00  0.00    +0.000 C 
ATOM     29  O   UNL     1       1.199  10.169  19.381  0.00  0.00    +0.000 OA
ENDBRANCH  20  29
ENDBRANCH   1  24
TORSDOF 3
ENDMDL
MODEL 6
REMARK VINA RESULT:      -7.7      1.283      2.097
REMARK  Name = 
REMARK  4 active torsions:
REMARK  status: ('A' for Active; 'I' for Inactive)
REMARK    1  A    between atoms: C_1  and  O_2
REMARK    2  A    between atoms: O_2  and  C_3
REMARK    3  A    between atoms: C_7  and  C_8
REMARK    4  A    between atoms: C_13  and  N_14
REMARK                            x       y       z     vdW  Elec       q    Type
REMARK                         _______ _______ _______ _____ _____    ______ ____
ROOT
ATOM      1  C   UNL     1       2.711   4.378  19.333  0.00  0.00    +0.000 C 
ATOM      2  C   UNL     1       2.008   3.492  20.362  0.00  0.00    +0.000 C 
ATOM      3  N   UNL     1       2.923   2.399  20.549  0.00  0.00    +0.000 N 
ATOM      4  C   UNL     1       4.198   2.691  20.100  0.00  0.00    +0.000 C 
ATOM      5  O   UNL     1       5.126   1.898  20.089  0.00  0.00    +0.000 OA
ATOM      6  C   UNL     1       4.202   4.157  19.674  0.00  0.00    +0.000 C 
ATOM      7  H   UNL     1       2.712   1.503  20.976  0.00  0.00    +0.000 HD
ENDROOT
BRANCH   6   8
ATOM      8  N   UNL     1       5.060   4.444  18.557  0.00  0.00    +0.000 N 
ATOM      9  C   UNL     1       6.291   5.008  18.676  0.00  0.00    +0.000 C 
ATOM     10  O   UNL     1       6.768   5.369  19.748  0.00  0.00    +0.000 OA
ATOM     11  N   UNL     1       6.994   5.162  17.516  0.00  0.00    +0.000 N 
ATOM     12  C   UNL     1       6.486   4.876  16.280  0.00  0.00    +0.000 A 
ATOM     13  N   UNL     1       5.240   4.561  15.994  0.00  0.00    +0.000 NA
ATOM     14  C   UNL     1       5.150   4.222  14.661  0.00  0.00    +0.000 A 
ATOM     15  C   UNL     1       6.343   4.265  13.992  0.00  0.00    +0.000 A 
ATOM     16 CL   UNL     1       6.651   3.812  12.371  0.00  0.00    +0.000 Cl
ATOM     17  S   UNL     1       7.596   4.836  14.992  0.00  0.00    +0.000 S 
ATOM     18  H   UNL     1       4.869   3.974  17.675  0.00  0.00    +0.000 HD
ATOM     19  H   UNL     1       7.956   5.450  17.608  0.00  0.00    +0.000 HD
ENDBRANCH   6   8
BRANCH   1  24
ATOM     20  C   UNL     1       1.756   8.596  19.389  0.00  0.00    +0.000 A 
ATOM     21  C   UNL     1       1.555   7.813  20.522  0.00  0.00    +0.000 A 
ATOM     22  C   UNL     1       1.828   6.451  20.483  0.00  0.00    +0.000 A 
ATOM     23  F   UNL     1       1.633   5.737  21.597  0.00  0.00    +0.000 F 
ATOM     24  C   UNL     1       2.308   5.828  19.330  0.00  0.00    +0.000 A 
ATOM     25  C   UNL     1       2.459   6.621  18.191  0.00  0.00    +0.000 A 
ATOM     26  F   UNL     1       2.896   6.071  17.046  0.00  0.00    +0.000 F 
ATOM     27  C   UNL     1       2.177   7.987  18.205  0.00  0.00    +0.000 A 
BRANCH  20  29
ATOM     28  C   UNL     1       0.404  10.334  18.570  0.00  0.00    +0.000 C 
ATOM     29  O   UNL     1       1.545   9.944  19.335  0.00  0.00    +0.000 OA
ENDBRANCH  20  29
ENDBRANCH   1  24
TORSDOF 3
ENDMDL
MODEL 7
REMARK VINA RESULT:      -7.5      3.915      5.161
REMARK  Name = 
REMARK  4 active torsions:
REMARK  status: ('A' for Active; 'I' for Inactive)
REMARK    1  A    between atoms: C_1  and  O_2
REMARK    2  A    between atoms: O_2  and  C_3
REMARK    3  A    between atoms: C_7  and  C_8
REMARK    4  A    between atoms: C_13  and  N_14
REMARK                            x       y       z     vdW  Elec       q    Type
REMARK                         _______ _______ _______ _____ _____    ______ ____
ROOT
ATOM      1  C   UNL     1       4.981   5.572  16.725  0.00  0.00    +0.000 C 
ATOM      2  C   UNL     1       4.598   4.702  15.528  0.00  0.00    +0.000 C 
ATOM      3  N   UNL     1       5.759   4.759  14.682  0.00  0.00    +0.000 N 
ATOM      4  C   UNL     1       6.885   5.194  15.356  0.00  0.00    +0.000 C 
ATOM      5  O   UNL     1       7.971   5.390  14.834  0.00  0.00    +0.000 OA
ATOM      6  C   UNL     1       6.504   5.336  16.828  0.00  0.00    +0.000 C 
ATOM      7  H   UNL     1       5.804   4.500  13.702  0.00  0.00    +0.000 HD
ENDROOT
BRANCH   6   8
ATOM      8  N   UNL     1       7.173   6.412  17.508  0.00  0.00    +0.000 N 
ATOM      9  C   UNL     1       7.903   6.249  18.643  0.00  0.00    +0.000 C 
ATOM     10  O   UNL     1       8.024   5.173  19.221  0.00  0.00    +0.000 OA
ATOM     11  N   UNL     1       8.516   7.369  19.127  0.00  0.00    +0.000 N 
ATOM     12  C   UNL     1       8.344   8.616  18.593  0.00  0.00    +0.000 A 
ATOM     13  N   UNL     1       7.483   8.961  17.658  0.00  0.00    +0.000 NA
ATOM     14  C   UNL     1       7.701  10.273  17.300  0.00  0.00    +0.000 A 
ATOM     15  C   UNL     1       8.743  10.867  17.961  0.00  0.00    +0.000 A 
ATOM     16 CL   UNL     1       9.381  12.435  17.713  0.00  0.00    +0.000 Cl
ATOM     17  S   UNL     1       9.413   9.826  19.128  0.00  0.00    +0.000 S 
ATOM     18  H   UNL     1       7.336   7.274  16.993  0.00  0.00    +0.000 HD
ATOM     19  H   UNL     1       9.167   7.234  19.885  0.00  0.00    +0.000 HD
ENDBRANCH   6   8
BRANCH   1  24
ATOM     20  C   UNL     1       2.689   4.699  20.288  0.00  0.00    +0.000 A 
ATOM     21  C   UNL     1       2.692   5.981  19.749  0.00  0.00    +0.000 A 
ATOM     22  C   UNL     1       3.462   6.263  18.627  0.00  0.00    +0.000 A 
ATOM     23  F   UNL     1       3.426   7.505  18.133  0.00  0.00    +0.000 F 
ATOM     24  C   UNL     1       4.245   5.287  18.007  0.00  0.00    +0.000 A 
ATOM     25  C   UNL     1       4.266   4.019  18.589  0.00  0.00    +0.000 A 
ATOM     26  F   UNL     1       5.018   3.046  18.049  0.00  0.00    +0.000 F 
ATOM     27  C   UNL     1       3.511   3.720  19.724  0.00  0.00    +0.000 A 
BRANCH  20  29
ATOM     28  C   UNL     1       1.890   2.906  21.579  0.00  0.00    +0.000 C 
ATOM     29  O   UNL     1       1.947   4.317  21.369  0.00  0.00    +0.000 OA
ENDBRANCH  20  29
ENDBRANCH   1  24
TORSDOF 3
ENDMDL
MODEL 8
REMARK VINA RESULT:      -7.4      3.856      5.230
REMARK  Name = 
REMARK  4 active torsions:
REMARK  status: ('A' for Active; 'I' for Inactive)
REMARK    1  A    between atoms: C_1  and  O_2
REMARK    2  A    between atoms: O_2  and  C_3
REMARK    3  A    between atoms: C_7  and  C_8
REMARK    4  A    between atoms: C_13  and  N_14
REMARK                            x       y       z     vdW  Elec       q    Type
REMARK                         _______ _______ _______ _____ _____    ______ ____
ROOT
ATOM      1  C   UNL     1       5.017   5.520  16.416  0.00  0.00    +0.000 C 
ATOM      2  C   UNL     1       4.697   4.673  15.184  0.00  0.00    +0.000 C 
ATOM      3  N   UNL     1       5.905   4.733  14.407  0.00  0.00    +0.000 N 
ATOM      4  C   UNL     1       6.994   5.148  15.151  0.00  0.00    +0.000 C 
ATOM      5  O   UNL     1       8.109   5.344  14.695  0.00  0.00    +0.000 OA
ATOM      6  C   UNL     1       6.530   5.270  16.601  0.00  0.00    +0.000 C 
ATOM      7  H   UNL     1       6.004   4.490  13.427  0.00  0.00    +0.000 HD
ENDROOT
BRANCH   6   8
ATOM      8  N   UNL     1       7.167   6.329  17.337  0.00  0.00    +0.000 N 
ATOM      9  C   UNL     1       7.839   6.140  18.503  0.00  0.00    +0.000 C 
ATOM     10  O   UNL     1       7.926   5.051  19.064  0.00  0.00    +0.000 OA
ATOM     11  N   UNL     1       8.429   7.248  19.040  0.00  0.00    +0.000 N 
ATOM     12  C   UNL     1       8.288   8.506  18.524  0.00  0.00    +0.000 A 
ATOM     13  N   UNL     1       7.476   8.873  17.554  0.00  0.00    +0.000 NA
ATOM     14  C   UNL     1       7.716  10.192  17.235  0.00  0.00    +0.000 A 
ATOM     15  C   UNL     1       8.725  10.767  17.959  0.00  0.00    +0.000 A 
ATOM     16 CL   UNL     1       9.379  12.338  17.777  0.00  0.00    +0.000 Cl
ATOM     17  S   UNL     1       9.332   9.700  19.137  0.00  0.00    +0.000 S 
ATOM     18  H   UNL     1       7.358   7.201  16.848  0.00  0.00    +0.000 HD
ATOM     19  H   UNL     1       9.041   7.094  19.827  0.00  0.00    +0.000 HD
ENDBRANCH   6   8
BRANCH   1  24
ATOM     20  C   UNL     1       2.873   4.679  20.077  0.00  0.00    +0.000 A 
ATOM     21  C   UNL     1       3.430   3.644  19.333  0.00  0.00    +0.000 A 
ATOM     22  C   UNL     1       4.083   3.919  18.138  0.00  0.00    +0.000 A 
ATOM     23  F   UNL     1       4.616   2.896  17.460  0.00  0.00    +0.000 F 
ATOM     24  C   UNL     1       4.207   5.220  17.649  0.00  0.00    +0.000 A 
ATOM     25  C   UNL     1       3.602   6.240  18.384  0.00  0.00    +0.000 A 
ATOM     26  F   UNL     1       3.669   7.510  17.950  0.00  0.00    +0.000 F 
ATOM     27  C   UNL     1       2.929   5.983  19.579  0.00  0.00    +0.000 A 
BRANCH  20  29
ATOM     28  C   UNL     1       2.084   3.155  21.681  0.00  0.00    +0.000 C 
ATOM     29  O   UNL     1       2.237   4.514  21.274  0.00  0.00    +0.000 OA
ENDBRANCH  20  29
ENDBRANCH   1  24
TORSDOF 3
ENDMDL
MODEL 9
REMARK VINA RESULT:      -7.4      4.172      6.082
REMARK  Name = 
REMARK  4 active torsions:
REMARK  status: ('A' for Active; 'I' for Inactive)
REMARK    1  A    between atoms: C_1  and  O_2
REMARK    2  A    between atoms: O_2  and  C_3
REMARK    3  A    between atoms: C_7  and  C_8
REMARK    4  A    between atoms: C_13  and  N_14
REMARK                            x       y       z     vdW  Elec       q    Type
REMARK                         _______ _______ _______ _____ _____    ______ ____
ROOT
ATOM      1  C   UNL     1       3.922   3.704  18.375  0.00  0.00    +0.000 C 
ATOM      2  C   UNL     1       3.841   2.329  17.711  0.00  0.00    +0.000 C 
ATOM      3  N   UNL     1       2.464   1.952  17.878  0.00  0.00    +0.000 N 
ATOM      4  C   UNL     1       1.652   3.029  18.183  0.00  0.00    +0.000 C 
ATOM      5  O   UNL     1       0.462   2.948  18.439  0.00  0.00    +0.000 OA
ATOM      6  C   UNL     1       2.518   4.285  18.099  0.00  0.00    +0.000 C 
ATOM      7  H   UNL     1       2.078   1.019  17.776  0.00  0.00    +0.000 HD
ENDROOT
BRANCH   6   8
ATOM      8  N   UNL     1       2.162   5.310  19.043  0.00  0.00    +0.000 N 
ATOM      9  C   UNL     1       2.088   5.108  20.384  0.00  0.00    +0.000 C 
ATOM     10  O   UNL     1       2.275   4.017  20.915  0.00  0.00    +0.000 OA
ATOM     11  N   UNL     1       1.788   6.205  21.140  0.00  0.00    +0.000 N 
ATOM     12  C   UNL     1       1.470   7.425  20.610  0.00  0.00    +0.000 A 
ATOM     13  N   UNL     1       1.262   7.701  19.339  0.00  0.00    +0.000 NA
ATOM     14  C   UNL     1       1.092   9.060  19.191  0.00  0.00    +0.000 A 
ATOM     15  C   UNL     1       1.207   9.768  20.357  0.00  0.00    +0.000 A 
ATOM     16 CL   UNL     1       1.167  11.467  20.558  0.00  0.00    +0.000 Cl
ATOM     17  S   UNL     1       1.427   8.736  21.691  0.00  0.00    +0.000 S 
ATOM     18  H   UNL     1       2.226   6.279  18.741  0.00  0.00    +0.000 HD
ATOM     19  H   UNL     1       1.865   6.098  22.139  0.00  0.00    +0.000 HD
ENDBRANCH   6   8
BRANCH   1  24
ATOM     20  C   UNL     1       6.998   6.438  17.043  0.00  0.00    +0.000 A 
ATOM     21  C   UNL     1       6.162   5.815  16.122  0.00  0.00    +0.000 A 
ATOM     22  C   UNL     1       5.203   4.908  16.555  0.00  0.00    +0.000 A 
ATOM     23  F   UNL     1       4.411   4.341  15.638  0.00  0.00    +0.000 F 
ATOM     24  C   UNL     1       5.041   4.596  17.906  0.00  0.00    +0.000 A 
ATOM     25  C   UNL     1       5.919   5.195  18.810  0.00  0.00    +0.000 A 
ATOM     26  F   UNL     1       5.825   4.915  20.121  0.00  0.00    +0.000 F 
ATOM     27  C   UNL     1       6.898   6.096  18.394  0.00  0.00    +0.000 A 
BRANCH  20  29
ATOM     28  C   UNL     1       8.009   8.483  17.601  0.00  0.00    +0.000 C 
ATOM     29  O   UNL     1       7.950   7.362  16.721  0.00  0.00    +0.000 OA
ENDBRANCH  20  29
ENDBRANCH   1  24
TORSDOF 3
ENDMDL
