MODEL 1
REMARK VINA RESULT:      -9.0      0.000      0.000
REMARK  Name = 
REMARK  7 active torsions:
REMARK  status: ('A' for Active; 'I' for Inactive)
REMARK    1  A    between atoms: C_1  and  O_2
REMARK    2  A    between atoms: O_2  and  C_3
REMARK    3  A    between atoms: C_8  and  N_9
REMARK    4  A    between atoms: C_16  and  S_17
REMARK    5  A    between atoms: S_17  and  C_18
REMARK    6  A    between atoms: C_18  and  C_19
REMARK    7  A    between atoms: C_27  and  C_28
REMARK                            x       y       z     vdW  Elec       q    Type
REMARK                         _______ _______ _______ _____ _____    ______ ____
ROOT
ATOM      1  N   UNL     1       3.032   6.069  19.171  0.00  0.00    +0.000 N 
ATOM      2  C   UNL     1       2.329   7.262  19.323  0.00  0.00    +0.000 C 
ATOM      3  O   UNL     1       2.114   8.032  18.395  0.00  0.00    +0.000 OA
ATOM      4  N   UNL     1       1.934   7.498  20.622  0.00  0.00    +0.000 N 
ATOM      5  C   UNL     1       1.298   8.655  21.061  0.00  0.00    +0.000 A 
ATOM      6  N   UNL     1       1.193   8.982  22.334  0.00  0.00    +0.000 NA
ATOM      7  N   UNL     1       0.560  10.211  22.514  0.00  0.00    +0.000 NA
ATOM      8  C   UNL     1       0.180  10.741  21.372  0.00  0.00    +0.000 A 
ATOM      9  S   UNL     1       0.546   9.774  20.008  0.00  0.00    +0.000 S 
ATOM     10  H   UNL     1       2.835   5.301  19.805  0.00  0.00    +0.000 HD
ATOM     11  H   UNL     1       2.336   6.945  21.362  0.00  0.00    +0.000 HD
ENDROOT
BRANCH   1  17
ATOM     12  C   UNL     1       3.864   4.362  17.586  0.00  0.00    +0.000 A 
ATOM     13  C   UNL     1       4.659   4.031  16.474  0.00  0.00    +0.000 A 
ATOM     14  C   UNL     1       5.330   5.017  15.750  0.00  0.00    +0.000 A 
ATOM     15  C   UNL     1       5.238   6.340  16.147  0.00  0.00    +0.000 A 
ATOM     16  C   UNL     1       4.496   6.677  17.276  0.00  0.00    +0.000 A 
ATOM     17  C   UNL     1       3.785   5.710  18.010  0.00  0.00    +0.000 A 
BRANCH  12  19
ATOM     18  C   UNL     1       3.408   2.066  17.921  0.00  0.00    +0.000 C 
ATOM     19  O   UNL     1       3.143   3.424  18.291  0.00  0.00    +0.000 OA
ENDBRANCH  12  19
ENDBRANCH   1  17
BRANCH   8  20
ATOM     20  S   UNL     1      -0.672  12.266  21.236  0.00  0.00    +0.000 S 
BRANCH  20  21
ATOM     21  C   UNL     1      -0.799  12.460  19.435  0.00  0.00    +0.000 C 
BRANCH  21  22
ATOM     22  C   UNL     1      -2.224  12.201  18.965  0.00  0.00    +0.000 A 
ATOM     23  C   UNL     1      -2.453  11.704  17.746  0.00  0.00    +0.000 A 
ATOM     24  C   UNL     1      -3.833  11.386  17.339  0.00  0.00    +0.000 A 
ATOM     25  O   UNL     1      -4.028  10.960  16.201  0.00  0.00    +0.000 OA
ATOM     26  N   UNL     1      -4.804  11.587  18.307  0.00  0.00    +0.000 N 
ATOM     27  C   UNL     1      -6.118  11.229  18.022  0.00  0.00    +0.000 A 
ATOM     28  C   UNL     1      -7.102  11.388  18.909  0.00  0.00    +0.000 A 
ATOM     29  C   UNL     1      -6.823  11.982  20.188  0.00  0.00    +0.000 A 
ATOM     30  C   UNL     1      -5.580  12.369  20.514  0.00  0.00    +0.000 A 
ATOM     31  C   UNL     1      -5.254  13.048  21.806  0.00  0.00    +0.000 C 
ATOM     32  C   UNL     1      -4.452  12.132  19.541  0.00  0.00    +0.000 A 
ATOM     33  N   UNL     1      -3.231  12.437  19.875  0.00  0.00    +0.000 NA
ENDBRANCH  21  22
ENDBRANCH  20  21
ENDBRANCH   8  20
TORSDOF 5
ENDMDL
MODEL 2
REMARK VINA RESULT:      -8.9      2.032      3.468
REMARK  Name = 
REMARK  7 active torsions:
REMARK  status: ('A' for Active; 'I' for Inactive)
REMARK    1  A    between atoms: C_1  and  O_2
REMARK    2  A    between atoms: O_2  and  C_3
REMARK    3  A    between atoms: C_8  and  N_9
REMARK    4  A    between atoms: C_16  and  S_17
REMARK    5  A    between atoms: S_17  and  C_18
REMARK    6  A    between atoms: C_18  and  C_19
REMARK    7  A    between atoms: C_27  and  C_28
REMARK                            x       y       z     vdW  Elec       q    Type
REMARK                         _______ _______ _______ _____ _____    ______ ____
ROOT
ATOM      1  N   UNL     1       2.213   6.607  20.530  0.00  0.00    +0.000 N 
ATOM      2  C   UNL     1       1.247   7.478  21.028  0.00  0.00    +0.000 C 
ATOM      3  O   UNL     1       0.087   7.141  21.235  0.00  0.00    +0.000 OA
ATOM      4  N   UNL     1       1.721   8.757  21.230  0.00  0.00    +0.000 N 
ATOM      5  C   UNL     1       0.945   9.837  21.635  0.00  0.00    +0.000 A 
ATOM      6  N   UNL     1       1.345  11.089  21.543  0.00  0.00    +0.000 NA
ATOM      7  N   UNL     1       0.370  11.991  21.964  0.00  0.00    +0.000 NA
ATOM      8  C   UNL     1      -0.712  11.379  22.393  0.00  0.00    +0.000 A 
ATOM      9  S   UNL     1      -0.608   9.672  22.334  0.00  0.00    +0.000 S 
ATOM     10  H   UNL     1       3.187   6.772  20.761  0.00  0.00    +0.000 HD
ATOM     11  H   UNL     1       2.609   9.016  20.830  0.00  0.00    +0.000 HD
ENDROOT
BRANCH   1  17
ATOM     12  C   UNL     1       2.139   5.062  18.599  0.00  0.00    +0.000 A 
ATOM     13  C   UNL     1       1.805   3.801  18.073  0.00  0.00    +0.000 A 
ATOM     14  C   UNL     1       1.328   2.781  18.896  0.00  0.00    +0.000 A 
ATOM     15  C   UNL     1       1.152   3.018  20.249  0.00  0.00    +0.000 A 
ATOM     16  C   UNL     1       1.429   4.277  20.775  0.00  0.00    +0.000 A 
ATOM     17  C   UNL     1       1.938   5.317  19.977  0.00  0.00    +0.000 A 
BRANCH  12  19
ATOM     18  C   UNL     1       4.072   5.976  17.592  0.00  0.00    +0.000 C 
ATOM     19  O   UNL     1       2.664   6.075  17.828  0.00  0.00    +0.000 OA
ENDBRANCH  12  19
ENDBRANCH   1  17
BRANCH   8  20
ATOM     20  S   UNL     1      -2.121  12.209  23.024  0.00  0.00    +0.000 S 
BRANCH  20  21
ATOM     21  C   UNL     1      -2.460  13.416  21.711  0.00  0.00    +0.000 C 
BRANCH  21  22
ATOM     22  C   UNL     1      -3.072  12.731  20.497  0.00  0.00    +0.000 A 
ATOM     23  C   UNL     1      -4.353  12.940  20.179  0.00  0.00    +0.000 A 
ATOM     24  C   UNL     1      -4.906  12.332  18.956  0.00  0.00    +0.000 A 
ATOM     25  O   UNL     1      -6.096  12.509  18.695  0.00  0.00    +0.000 OA
ATOM     26  N   UNL     1      -4.006  11.613  18.185  0.00  0.00    +0.000 N 
ATOM     27  C   UNL     1      -4.437  11.081  16.974  0.00  0.00    +0.000 A 
ATOM     28  C   UNL     1      -3.623  10.383  16.179  0.00  0.00    +0.000 A 
ATOM     29  C   UNL     1      -2.268  10.131  16.588  0.00  0.00    +0.000 A 
ATOM     30  C   UNL     1      -1.800  10.598  17.755  0.00  0.00    +0.000 A 
ATOM     31  C   UNL     1      -0.418  10.306  18.250  0.00  0.00    +0.000 C 
ATOM     32  C   UNL     1      -2.695  11.442  18.627  0.00  0.00    +0.000 A 
ATOM     33  N   UNL     1      -2.229  11.961  19.727  0.00  0.00    +0.000 NA
ENDBRANCH  21  22
ENDBRANCH  20  21
ENDBRANCH   8  20
TORSDOF 5
ENDMDL
MODEL 3
REMARK VINA RESULT:      -8.8      1.774      2.533
REMARK  Name = 
REMARK  7 active torsions:
REMARK  status: ('A' for Active; 'I' for Inactive)
REMARK    1  A    between atoms: C_1  and  O_2
REMARK    2  A    between atoms: O_2  and  C_3
REMARK    3  A    between atoms: C_8  and  N_9
REMARK    4  A    between atoms: C_16  and  S_17
REMARK    5  A    between atoms: S_17  and  C_18
REMARK    6  A    between atoms: C_18  and  C_19
REMARK    7  A    between atoms: C_27  and  C_28
REMARK                            x       y       z     vdW  Elec       q    Type
REMARK                         _______ _______ _______ _____ _____    ______ ____
ROOT
ATOM      1  N   UNL     1       2.463   5.919  20.224  0.00  0.00    +0.000 N 
ATOM      2  C   UNL     1       1.948   7.198  20.026  0.00  0.00    +0.000 C 
ATOM      3  O   UNL     1       1.911   7.740  18.928  0.00  0.00    +0.000 OA
ATOM      4  N   UNL     1       1.517   7.796  21.191  0.00  0.00    +0.000 N 
ATOM      5  C   UNL     1       1.043   9.100  21.286  0.00  0.00    +0.000 A 
ATOM      6  N   UNL     1       0.914   9.740  22.431  0.00  0.00    +0.000 NA
ATOM      7  N   UNL     1       0.470  11.050  22.260  0.00  0.00    +0.000 NA
ATOM      8  C   UNL     1       0.247  11.331  20.994  0.00  0.00    +0.000 A 
ATOM      9  S   UNL     1       0.539  10.020  19.934  0.00  0.00    +0.000 S 
ATOM     10  H   UNL     1       2.112   5.363  20.997  0.00  0.00    +0.000 HD
ATOM     11  H   UNL     1       1.782   7.390  22.074  0.00  0.00    +0.000 HD
ENDROOT
BRANCH   1  17
ATOM     12  C   UNL     1       2.611   4.179  18.472  0.00  0.00    +0.000 A 
ATOM     13  C   UNL     1       3.393   3.437  17.569  0.00  0.00    +0.000 A 
ATOM     14  C   UNL     1       4.749   3.715  17.394  0.00  0.00    +0.000 A 
ATOM     15  C   UNL     1       5.345   4.716  18.142  0.00  0.00    +0.000 A 
ATOM     16  C   UNL     1       4.595   5.425  19.077  0.00  0.00    +0.000 A 
ATOM     17  C   UNL     1       3.220   5.188  19.256  0.00  0.00    +0.000 A 
BRANCH  12  19
ATOM     18  C   UNL     1       0.920   2.843  19.445  0.00  0.00    +0.000 C 
ATOM     19  O   UNL     1       1.259   3.971  18.631  0.00  0.00    +0.000 OA
ENDBRANCH  12  19
ENDBRANCH   1  17
BRANCH   8  20
ATOM     20  S   UNL     1      -0.348  12.879  20.426  0.00  0.00    +0.000 S 
BRANCH  20  21
ATOM     21  C   UNL     1      -1.591  13.284  21.686  0.00  0.00    +0.000 C 
BRANCH  21  22
ATOM     22  C   UNL     1      -2.972  12.817  21.248  0.00  0.00    +0.000 A 
ATOM     23  C   UNL     1      -4.004  12.876  22.095  0.00  0.00    +0.000 A 
ATOM     24  C   UNL     1      -5.349  12.494  21.629  0.00  0.00    +0.000 A 
ATOM     25  O   UNL     1      -6.281  12.523  22.431  0.00  0.00    +0.000 OA
ATOM     26  N   UNL     1      -5.442  12.144  20.290  0.00  0.00    +0.000 N 
ATOM     27  C   UNL     1      -6.694  11.853  19.760  0.00  0.00    +0.000 A 
ATOM     28  C   UNL     1      -6.858  11.515  18.479  0.00  0.00    +0.000 A 
ATOM     29  C   UNL     1      -5.713  11.406  17.617  0.00  0.00    +0.000 A 
ATOM     30  C   UNL     1      -4.476  11.652  18.075  0.00  0.00    +0.000 A 
ATOM     31  C   UNL     1      -3.251  11.489  17.232  0.00  0.00    +0.000 C 
ATOM     32  C   UNL     1      -4.291  12.097  19.504  0.00  0.00    +0.000 A 
ATOM     33  N   UNL     1      -3.104  12.408  19.940  0.00  0.00    +0.000 NA
ENDBRANCH  21  22
ENDBRANCH  20  21
ENDBRANCH   8  20
TORSDOF 5
ENDMDL
MODEL 4
REMARK VINA RESULT:      -8.6      6.797      9.907
REMARK  Name = 
REMARK  7 active torsions:
REMARK  status: ('A' for Active; 'I' for Inactive)
REMARK    1  A    between atoms: C_1  and  O_2
REMARK    2  A    between atoms: O_2  and  C_3
REMARK    3  A    between atoms: C_8  and  N_9
REMARK    4  A    between atoms: C_16  and  S_17
REMARK    5  A    between atoms: S_17  and  C_18
REMARK    6  A    between atoms: C_18  and  C_19
REMARK    7  A    between atoms: C_27  and  C_28
REMARK                            x       y       z     vdW  Elec       q    Type
REMARK                         _______ _______ _______ _____ _____    ______ ____
ROOT
ATOM      1  N   UNL     1       9.477  10.655  19.545  0.00  0.00    +0.000 N 
ATOM      2  C   UNL     1       8.815   9.728  18.743  0.00  0.00    +0.000 C 
ATOM      3  O   UNL     1       8.160  10.045  17.757  0.00  0.00    +0.000 OA
ATOM      4  N   UNL     1       8.946   8.431  19.191  0.00  0.00    +0.000 N 
ATOM      5  C   UNL     1       8.314   7.328  18.627  0.00  0.00    +0.000 A 
ATOM      6  N   UNL     1       8.220   6.161  19.233  0.00  0.00    +0.000 NA
ATOM      7  N   UNL     1       7.496   5.233  18.487  0.00  0.00    +0.000 NA
ATOM      8  C   UNL     1       7.107   5.727  17.332  0.00  0.00    +0.000 A 
ATOM      9  S   UNL     1       7.613   7.340  17.066  0.00  0.00    +0.000 S 
ATOM     10  H   UNL     1      10.303  10.361  20.055  0.00  0.00    +0.000 HD
ATOM     11  H   UNL     1       9.302   8.270  20.119  0.00  0.00    +0.000 HD
ENDROOT
BRANCH   1  17
ATOM     12  C   UNL     1       8.766  12.785  20.583  0.00  0.00    +0.000 A 
ATOM     13  C   UNL     1       8.536  14.168  20.468  0.00  0.00    +0.000 A 
ATOM     14  C   UNL     1       8.863  14.857  19.300  0.00  0.00    +0.000 A 
ATOM     15  C   UNL     1       9.394  14.167  18.224  0.00  0.00    +0.000 A 
ATOM     16  C   UNL     1       9.580  12.790  18.305  0.00  0.00    +0.000 A 
ATOM     17  C   UNL     1       9.287  12.071  19.478  0.00  0.00    +0.000 A 
BRANCH  12  19
ATOM     18  C   UNL     1       7.839  12.831  22.758  0.00  0.00    +0.000 C 
ATOM     19  O   UNL     1       8.509  12.081  21.739  0.00  0.00    +0.000 OA
ENDBRANCH  12  19
ENDBRANCH   1  17
BRANCH   8  20
ATOM     20  S   UNL     1       6.204   4.820  16.134  0.00  0.00    +0.000 S 
BRANCH  20  21
ATOM     21  C   UNL     1       4.634   5.731  16.086  0.00  0.00    +0.000 C 
BRANCH  21  22
ATOM     22  C   UNL     1       3.854   5.524  17.376  0.00  0.00    +0.000 A 
ATOM     23  C   UNL     1       3.363   6.573  18.043  0.00  0.00    +0.000 A 
ATOM     24  C   UNL     1       2.542   6.349  19.247  0.00  0.00    +0.000 A 
ATOM     25  O   UNL     1       2.125   7.327  19.866  0.00  0.00    +0.000 OA
ATOM     26  N   UNL     1       2.297   5.022  19.566  0.00  0.00    +0.000 N 
ATOM     27  C   UNL     1       1.462   4.735  20.641  0.00  0.00    +0.000 A 
ATOM     28  C   UNL     1       1.178   3.482  21.000  0.00  0.00    +0.000 A 
ATOM     29  C   UNL     1       1.775   2.382  20.292  0.00  0.00    +0.000 A 
ATOM     30  C   UNL     1       2.608   2.594  19.261  0.00  0.00    +0.000 A 
ATOM     31  C   UNL     1       3.302   1.484  18.537  0.00  0.00    +0.000 C 
ATOM     32  C   UNL     1       2.881   4.007  18.809  0.00  0.00    +0.000 A 
ATOM     33  N   UNL     1       3.630   4.222  17.765  0.00  0.00    +0.000 NA
ENDBRANCH  21  22
ENDBRANCH  20  21
ENDBRANCH   8  20
TORSDOF 5
ENDMDL
MODEL 5
REMARK VINA RESULT:      -8.6      2.081      2.885
REMARK  Name = 
REMARK  7 active torsions:
REMARK  status: ('A' for Active; 'I' for Inactive)
REMARK    1  A    between atoms: C_1  and  O_2
REMARK    2  A    between atoms: O_2  and  C_3
REMARK    3  A    between atoms: C_8  and  N_9
REMARK    4  A    between atoms: C_16  and  S_17
REMARK    5  A    between atoms: S_17  and  C_18
REMARK    6  A    between atoms: C_18  and  C_19
REMARK    7  A    between atoms: C_27  and  C_28
REMARK                            x       y       z     vdW  Elec       q    Type
REMARK                         _______ _______ _______ _____ _____    ______ ____
ROOT
ATOM      1  N   UNL     1       3.843   5.349  18.183  0.00  0.00    +0.000 N 
ATOM      2  C   UNL     1       3.310   6.637  18.182  0.00  0.00    +0.000 C 
ATOM      3  O   UNL     1       3.584   7.471  17.328  0.00  0.00    +0.000 OA
ATOM      4  N   UNL     1       2.474   6.879  19.250  0.00  0.00    +0.000 N 
ATOM      5  C   UNL     1       1.883   8.106  19.535  0.00  0.00    +0.000 A 
ATOM      6  N   UNL     1       1.334   8.391  20.698  0.00  0.00    +0.000 NA
ATOM      7  N   UNL     1       0.857   9.700  20.753  0.00  0.00    +0.000 NA
ATOM      8  C   UNL     1       1.033  10.335  19.615  0.00  0.00    +0.000 A 
ATOM      9  S   UNL     1       1.766   9.380  18.398  0.00  0.00    +0.000 S 
ATOM     10  H   UNL     1       3.310   4.599  18.610  0.00  0.00    +0.000 HD
ATOM     11  H   UNL     1       2.473   6.234  20.024  0.00  0.00    +0.000 HD
ENDROOT
BRANCH   1  17
ATOM     12  C   UNL     1       6.244   4.831  17.893  0.00  0.00    +0.000 A 
ATOM     13  C   UNL     1       7.307   4.460  17.049  0.00  0.00    +0.000 A 
ATOM     14  C   UNL     1       7.083   4.128  15.713  0.00  0.00    +0.000 A 
ATOM     15  C   UNL     1       5.800   4.192  15.197  0.00  0.00    +0.000 A 
ATOM     16  C   UNL     1       4.745   4.606  16.007  0.00  0.00    +0.000 A 
ATOM     17  C   UNL     1       4.934   4.920  17.365  0.00  0.00    +0.000 A 
BRANCH  12  19
ATOM     18  C   UNL     1       7.668   5.732  19.552  0.00  0.00    +0.000 C 
ATOM     19  O   UNL     1       6.418   5.111  19.230  0.00  0.00    +0.000 OA
ENDBRANCH  12  19
ENDBRANCH   1  17
BRANCH   8  20
ATOM     20  S   UNL     1       0.521  11.986  19.326  0.00  0.00    +0.000 S 
BRANCH  20  21
ATOM     21  C   UNL     1      -0.529  12.307  20.772  0.00  0.00    +0.000 C 
BRANCH  21  22
ATOM     22  C   UNL     1      -2.001  12.257  20.389  0.00  0.00    +0.000 A 
ATOM     23  C   UNL     1      -2.935  12.685  21.243  0.00  0.00    +0.000 A 
ATOM     24  C   UNL     1      -4.348  12.703  20.825  0.00  0.00    +0.000 A 
ATOM     25  O   UNL     1      -5.198  13.070  21.636  0.00  0.00    +0.000 OA
ATOM     26  N   UNL     1      -4.591  12.311  19.518  0.00  0.00    +0.000 N 
ATOM     27  C   UNL     1      -5.890  12.382  19.028  0.00  0.00    +0.000 A 
ATOM     28  C   UNL     1      -6.195  12.026  17.778  0.00  0.00    +0.000 A 
ATOM     29  C   UNL     1      -5.169  11.515  16.910  0.00  0.00    +0.000 A 
ATOM     30  C   UNL     1      -3.900  11.400  17.332  0.00  0.00    +0.000 A 
ATOM     31  C   UNL     1      -2.814  10.815  16.487  0.00  0.00    +0.000 C 
ATOM     32  C   UNL     1      -3.538  11.861  18.722  0.00  0.00    +0.000 A 
ATOM     33  N   UNL     1      -2.298  11.823  19.117  0.00  0.00    +0.000 NA
ENDBRANCH  21  22
ENDBRANCH  20  21
ENDBRANCH   8  20
TORSDOF 5
ENDMDL
MODEL 6
REMARK VINA RESULT:      -8.5      6.662      9.941
REMARK  Name = 
REMARK  7 active torsions:
REMARK  status: ('A' for Active; 'I' for Inactive)
REMARK    1  A    between atoms: C_1  and  O_2
REMARK    2  A    between atoms: O_2  and  C_3
REMARK    3  A    between atoms: C_8  and  N_9
REMARK    4  A    between atoms: C_16  and  S_17
REMARK    5  A    between atoms: S_17  and  C_18
REMARK    6  A    between atoms: C_18  and  C_19
REMARK    7  A    between atoms: C_27  and  C_28
REMARK                            x       y       z     vdW  Elec       q    Type
REMARK                         _______ _______ _______ _____ _____    ______ ____
ROOT
ATOM      1  N   UNL     1       9.748  10.419  19.957  0.00  0.00    +0.000 N 
ATOM      2  C   UNL     1       8.971   9.686  19.064  0.00  0.00    +0.000 C 
ATOM      3  O   UNL     1       8.299  10.206  18.181  0.00  0.00    +0.000 OA
ATOM      4  N   UNL     1       9.012   8.328  19.297  0.00  0.00    +0.000 N 
ATOM      5  C   UNL     1       8.260   7.381  18.609  0.00  0.00    +0.000 A 
ATOM      6  N   UNL     1       8.095   6.144  19.032  0.00  0.00    +0.000 NA
ATOM      7  N   UNL     1       7.259   5.404  18.197  0.00  0.00    +0.000 NA
ATOM      8  C   UNL     1       6.859   6.105  17.158  0.00  0.00    +0.000 A 
ATOM      9  S   UNL     1       7.488   7.696  17.115  0.00  0.00    +0.000 S 
ATOM     10  H   UNL     1      10.569   9.984  20.364  0.00  0.00    +0.000 HD
ATOM     11  H   UNL     1       9.396   7.994  20.166  0.00  0.00    +0.000 HD
ENDROOT
BRANCH   1  17
ATOM     12  C   UNL     1      10.485  12.698  19.338  0.00  0.00    +0.000 A 
ATOM     13  C   UNL     1      10.437  14.086  19.562  0.00  0.00    +0.000 A 
ATOM     14  C   UNL     1       9.569  14.633  20.507  0.00  0.00    +0.000 A 
ATOM     15  C   UNL     1       8.761  13.798  21.259  0.00  0.00    +0.000 A 
ATOM     16  C   UNL     1       8.834  12.418  21.085  0.00  0.00    +0.000 A 
ATOM     17  C   UNL     1       9.678  11.838  20.122  0.00  0.00    +0.000 A 
BRANCH  12  19
ATOM     18  C   UNL     1      11.300  12.816  17.122  0.00  0.00    +0.000 C 
ATOM     19  O   UNL     1      11.288  12.126  18.377  0.00  0.00    +0.000 OA
ENDBRANCH  12  19
ENDBRANCH   1  17
BRANCH   8  20
ATOM     20  S   UNL     1       5.824   5.473  15.892  0.00  0.00    +0.000 S 
BRANCH  20  21
ATOM     21  C   UNL     1       4.305   6.438  16.139  0.00  0.00    +0.000 C 
BRANCH  21  22
ATOM     22  C   UNL     1       3.609   6.023  17.427  0.00  0.00    +0.000 A 
ATOM     23  C   UNL     1       3.134   6.948  18.266  0.00  0.00    +0.000 A 
ATOM     24  C   UNL     1       2.393   6.527  19.468  0.00  0.00    +0.000 A 
ATOM     25  O   UNL     1       1.990   7.392  20.246  0.00  0.00    +0.000 OA
ATOM     26  N   UNL     1       2.200   5.161  19.605  0.00  0.00    +0.000 N 
ATOM     27  C   UNL     1       1.438   4.696  20.671  0.00  0.00    +0.000 A 
ATOM     28  C   UNL     1       1.206   3.395  20.861  0.00  0.00    +0.000 A 
ATOM     29  C   UNL     1       1.786   2.429  19.968  0.00  0.00    +0.000 A 
ATOM     30  C   UNL     1       2.550   2.814  18.934  0.00  0.00    +0.000 A 
ATOM     31  C   UNL     1       3.225   1.842  18.019  0.00  0.00    +0.000 C 
ATOM     32  C   UNL     1       2.761   4.285  18.678  0.00  0.00    +0.000 A 
ATOM     33  N   UNL     1       3.440   4.672  17.636  0.00  0.00    +0.000 NA
ENDBRANCH  21  22
ENDBRANCH  20  21
ENDBRANCH   8  20
TORSDOF 5
ENDMDL
MODEL 7
REMARK VINA RESULT:      -8.5      1.415      2.274
REMARK  Name = 
REMARK  7 active torsions:
REMARK  status: ('A' for Active; 'I' for Inactive)
REMARK    1  A    between atoms: C_1  and  O_2
REMARK    2  A    between atoms: O_2  and  C_3
REMARK    3  A    between atoms: C_8  and  N_9
REMARK    4  A    between atoms: C_16  and  S_17
REMARK    5  A    between atoms: S_17  and  C_18
REMARK    6  A    between atoms: C_18  and  C_19
REMARK    7  A    between atoms: C_27  and  C_28
REMARK                            x       y       z     vdW  Elec       q    Type
REMARK                         _______ _______ _______ _____ _____    ______ ____
ROOT
ATOM      1  N   UNL     1       2.820   5.909  19.138  0.00  0.00    +0.000 N 
ATOM      2  C   UNL     1       2.322   7.205  19.256  0.00  0.00    +0.000 C 
ATOM      3  O   UNL     1       2.360   8.020  18.342  0.00  0.00    +0.000 OA
ATOM      4  N   UNL     1       1.817   7.481  20.509  0.00  0.00    +0.000 N 
ATOM      5  C   UNL     1       1.343   8.722  20.918  0.00  0.00    +0.000 A 
ATOM      6  N   UNL     1       1.140   9.037  22.182  0.00  0.00    +0.000 NA
ATOM      7  N   UNL     1       0.712  10.354  22.338  0.00  0.00    +0.000 NA
ATOM      8  C   UNL     1       0.574  10.967  21.183  0.00  0.00    +0.000 A 
ATOM      9  S   UNL     1       0.931   9.978  19.832  0.00  0.00    +0.000 S 
ATOM     10  H   UNL     1       2.417   5.176  19.712  0.00  0.00    +0.000 HD
ATOM     11  H   UNL     1       2.022   6.850  21.267  0.00  0.00    +0.000 HD
ENDROOT
BRANCH   1  17
ATOM     12  C   UNL     1       3.602   4.090  17.656  0.00  0.00    +0.000 A 
ATOM     13  C   UNL     1       4.459   3.652  16.630  0.00  0.00    +0.000 A 
ATOM     14  C   UNL     1       5.304   4.542  15.968  0.00  0.00    +0.000 A 
ATOM     15  C   UNL     1       5.324   5.874  16.343  0.00  0.00    +0.000 A 
ATOM     16  C   UNL     1       4.520   6.313  17.391  0.00  0.00    +0.000 A 
ATOM     17  C   UNL     1       3.637   5.446  18.060  0.00  0.00    +0.000 A 
BRANCH  12  19
ATOM     18  C   UNL     1       3.183   1.911  18.471  0.00  0.00    +0.000 C 
ATOM     19  O   UNL     1       2.715   3.252  18.294  0.00  0.00    +0.000 OA
ENDBRANCH  12  19
ENDBRANCH   1  17
BRANCH   8  20
ATOM     20  S   UNL     1       0.022  12.622  21.011  0.00  0.00    +0.000 S 
BRANCH  20  21
ATOM     21  C   UNL     1      -1.453  12.632  22.070  0.00  0.00    +0.000 C 
BRANCH  21  22
ATOM     22  C   UNL     1      -2.716  12.492  21.233  0.00  0.00    +0.000 A 
ATOM     23  C   UNL     1      -3.902  12.846  21.737  0.00  0.00    +0.000 A 
ATOM     24  C   UNL     1      -5.103  12.778  20.885  0.00  0.00    +0.000 A 
ATOM     25  O   UNL     1      -6.191  13.078  21.376  0.00  0.00    +0.000 OA
ATOM     26  N   UNL     1      -4.885  12.390  19.573  0.00  0.00    +0.000 N 
ATOM     27  C   UNL     1      -5.959  12.384  18.689  0.00  0.00    +0.000 A 
ATOM     28  C   UNL     1      -5.820  12.027  17.410  0.00  0.00    +0.000 A 
ATOM     29  C   UNL     1      -4.538  11.596  16.924  0.00  0.00    +0.000 A 
ATOM     30  C   UNL     1      -3.468  11.558  17.733  0.00  0.00    +0.000 A 
ATOM     31  C   UNL     1      -2.131  11.056  17.287  0.00  0.00    +0.000 C 
ATOM     32  C   UNL     1      -3.605  12.021  19.162  0.00  0.00    +0.000 A 
ATOM     33  N   UNL     1      -2.558  12.058  19.936  0.00  0.00    +0.000 NA
ENDBRANCH  21  22
ENDBRANCH  20  21
ENDBRANCH   8  20
TORSDOF 5
ENDMDL
MODEL 8
REMARK VINA RESULT:      -8.4      1.236      1.587
REMARK  Name = 
REMARK  7 active torsions:
REMARK  status: ('A' for Active; 'I' for Inactive)
REMARK    1  A    between atoms: C_1  and  O_2
REMARK    2  A    between atoms: O_2  and  C_3
REMARK    3  A    between atoms: C_8  and  N_9
REMARK    4  A    between atoms: C_16  and  S_17
REMARK    5  A    between atoms: S_17  and  C_18
REMARK    6  A    between atoms: C_18  and  C_19
REMARK    7  A    between atoms: C_27  and  C_28
REMARK                            x       y       z     vdW  Elec       q    Type
REMARK                         _______ _______ _______ _____ _____    ______ ____
ROOT
ATOM      1  N   UNL     1       3.086   5.971  19.916  0.00  0.00    +0.000 N 
ATOM      2  C   UNL     1       2.338   7.141  19.795  0.00  0.00    +0.000 C 
ATOM      3  O   UNL     1       2.090   7.666  18.717  0.00  0.00    +0.000 OA
ATOM      4  N   UNL     1       1.938   7.657  21.009  0.00  0.00    +0.000 N 
ATOM      5  C   UNL     1       1.259   8.859  21.176  0.00  0.00    +0.000 A 
ATOM      6  N   UNL     1       1.145   9.469  22.339  0.00  0.00    +0.000 NA
ATOM      7  N   UNL     1       0.465  10.681  22.238  0.00  0.00    +0.000 NA
ATOM      8  C   UNL     1       0.062  10.917  21.009  0.00  0.00    +0.000 A 
ATOM      9  S   UNL     1       0.461   9.674  19.901  0.00  0.00    +0.000 S 
ATOM     10  H   UNL     1       2.921   5.365  20.713  0.00  0.00    +0.000 HD
ATOM     11  H   UNL     1       2.363   7.305  21.852  0.00  0.00    +0.000 HD
ENDROOT
BRANCH   1  17
ATOM     12  C   UNL     1       3.237   4.515  17.922  0.00  0.00    +0.000 A 
ATOM     13  C   UNL     1       4.025   3.904  16.929  0.00  0.00    +0.000 A 
ATOM     14  C   UNL     1       5.388   4.178  16.822  0.00  0.00    +0.000 A 
ATOM     15  C   UNL     1       5.986   5.042  17.723  0.00  0.00    +0.000 A 
ATOM     16  C   UNL     1       5.231   5.615  18.743  0.00  0.00    +0.000 A 
ATOM     17  C   UNL     1       3.849   5.381  18.861  0.00  0.00    +0.000 A 
BRANCH  12  19
ATOM     18  C   UNL     1       1.504   3.014  18.496  0.00  0.00    +0.000 C 
ATOM     19  O   UNL     1       1.879   4.313  18.025  0.00  0.00    +0.000 OA
ENDBRANCH  12  19
ENDBRANCH   1  17
BRANCH   8  20
ATOM     20  S   UNL     1      -0.850  12.337  20.533  0.00  0.00    +0.000 S 
BRANCH  20  21
ATOM     21  C   UNL     1      -1.808  11.707  19.126  0.00  0.00    +0.000 C 
BRANCH  21  22
ATOM     22  C   UNL     1      -3.289  12.013  19.304  0.00  0.00    +0.000 A 
ATOM     23  C   UNL     1      -4.166  11.678  18.353  0.00  0.00    +0.000 A 
ATOM     24  C   UNL     1      -5.604  11.910  18.577  0.00  0.00    +0.000 A 
ATOM     25  O   UNL     1      -6.394  11.625  17.679  0.00  0.00    +0.000 OA
ATOM     26  N   UNL     1      -5.941  12.426  19.819  0.00  0.00    +0.000 N 
ATOM     27  C   UNL     1      -7.285  12.594  20.133  0.00  0.00    +0.000 A 
ATOM     28  C   UNL     1      -7.682  13.079  21.311  0.00  0.00    +0.000 A 
ATOM     29  C   UNL     1      -6.703  13.483  22.283  0.00  0.00    +0.000 A 
ATOM     30  C   UNL     1      -5.390  13.368  22.031  0.00  0.00    +0.000 A 
ATOM     31  C   UNL     1      -4.336  13.834  22.986  0.00  0.00    +0.000 C 
ATOM     32  C   UNL     1      -4.937  12.760  20.727  0.00  0.00    +0.000 A 
ATOM     33  N   UNL     1      -3.667  12.577  20.502  0.00  0.00    +0.000 NA
ENDBRANCH  21  22
ENDBRANCH  20  21
ENDBRANCH   8  20
TORSDOF 5
ENDMDL
MODEL 9
REMARK VINA RESULT:      -8.4      1.631      2.257
REMARK  Name = 
REMARK  7 active torsions:
REMARK  status: ('A' for Active; 'I' for Inactive)
REMARK    1  A    between atoms: C_1  and  O_2
REMARK    2  A    between atoms: O_2  and  C_3
REMARK    3  A    between atoms: C_8  and  N_9
REMARK    4  A    between atoms: C_16  and  S_17
REMARK    5  A    between atoms: S_17  and  C_18
REMARK    6  A    between atoms: C_18  and  C_19
REMARK    7  A    between atoms: C_27  and  C_28
REMARK                            x       y       z     vdW  Elec       q    Type
REMARK                         _______ _______ _______ _____ _____    ______ ____
ROOT
ATOM      1  N   UNL     1       2.854   6.043  19.222  0.00  0.00    +0.000 N 
ATOM      2  C   UNL     1       2.315   7.317  19.383  0.00  0.00    +0.000 C 
ATOM      3  O   UNL     1       2.301   8.154  18.488  0.00  0.00    +0.000 OA
ATOM      4  N   UNL     1       1.835   7.546  20.655  0.00  0.00    +0.000 N 
ATOM      5  C   UNL     1       1.330   8.761  21.106  0.00  0.00    +0.000 A 
ATOM      6  N   UNL     1       1.151   9.040  22.382  0.00  0.00    +0.000 NA
ATOM      7  N   UNL     1       0.683  10.337  22.581  0.00  0.00    +0.000 NA
ATOM      8  C   UNL     1       0.493  10.971  21.444  0.00  0.00    +0.000 A 
ATOM      9  S   UNL     1       0.847  10.027  20.061  0.00  0.00    +0.000 S 
ATOM     10  H   UNL     1       2.492   5.282  19.788  0.00  0.00    +0.000 HD
ATOM     11  H   UNL     1       2.082   6.906  21.392  0.00  0.00    +0.000 HD
ENDROOT
BRANCH   1  17
ATOM     12  C   UNL     1       3.681   4.280  17.696  0.00  0.00    +0.000 A 
ATOM     13  C   UNL     1       4.524   3.897  16.637  0.00  0.00    +0.000 A 
ATOM     14  C   UNL     1       5.297   4.837  15.955  0.00  0.00    +0.000 A 
ATOM     15  C   UNL     1       5.258   6.166  16.343  0.00  0.00    +0.000 A 
ATOM     16  C   UNL     1       4.468   6.552  17.422  0.00  0.00    +0.000 A 
ATOM     17  C   UNL     1       3.656   5.633  18.111  0.00  0.00    +0.000 A 
BRANCH  12  19
ATOM     18  C   UNL     1       3.084   2.016  18.021  0.00  0.00    +0.000 C 
ATOM     19  O   UNL     1       2.863   3.390  18.356  0.00  0.00    +0.000 OA
ENDBRANCH  12  19
ENDBRANCH   1  17
BRANCH   8  20
ATOM     20  S   UNL     1      -0.120  12.609  21.326  0.00  0.00    +0.000 S 
BRANCH  20  21
ATOM     21  C   UNL     1      -1.287  12.470  19.943  0.00  0.00    +0.000 C 
BRANCH  21  22
ATOM     22  C   UNL     1      -2.721  12.435  20.451  0.00  0.00    +0.000 A 
ATOM     23  C   UNL     1      -2.975  12.507  21.761  0.00  0.00    +0.000 A 
ATOM     24  C   UNL     1      -4.371  12.552  22.230  0.00  0.00    +0.000 A 
ATOM     25  O   UNL     1      -4.586  12.585  23.441  0.00  0.00    +0.000 OA
ATOM     26  N   UNL     1      -5.337  12.570  21.235  0.00  0.00    +0.000 N 
ATOM     27  C   UNL     1      -6.673  12.696  21.600  0.00  0.00    +0.000 A 
ATOM     28  C   UNL     1      -7.653  12.727  20.695  0.00  0.00    +0.000 A 
ATOM     29  C   UNL     1      -7.341  12.587  19.299  0.00  0.00    +0.000 A 
ATOM     30  C   UNL     1      -6.074  12.439  18.885  0.00  0.00    +0.000 A 
ATOM     31  C   UNL     1      -5.708  12.226  17.450  0.00  0.00    +0.000 C 
ATOM     32  C   UNL     1      -4.956  12.468  19.897  0.00  0.00    +0.000 A 
ATOM     33  N   UNL     1      -3.718  12.399  19.501  0.00  0.00    +0.000 NA
ENDBRANCH  21  22
ENDBRANCH  20  21
ENDBRANCH   8  20
TORSDOF 5
ENDMDL
