MODEL 1
REMARK VINA RESULT:      -6.7      0.000      0.000
REMARK  Name = 
REMARK  3 active torsions:
REMARK  status: ('A' for Active; 'I' for Inactive)
REMARK    1  A    between atoms: C_5  and  N_6
REMARK    2  A    between atoms: N_9  and  C_10
REMARK    3  A    between atoms: C_10  and  C_11
REMARK                            x       y       z     vdW  Elec       q    Type
REMARK                         _______ _______ _______ _____ _____    ______ ____
ROOT
ATOM      1  N   UNL     1       5.938   4.308  16.146  0.00  0.00    +0.000 N 
ATOM      2  C   UNL     1       6.834   4.531  17.290  0.00  0.00    +0.000 C 
ATOM      3  C   UNL     1       6.290   5.639  18.227  0.00  0.00    +0.000 C 
ATOM      4  N   UNL     1       4.866   5.490  18.631  0.00  0.00    +0.000 NA
ATOM      5  C   UNL     1       4.070   5.354  17.386  0.00  0.00    +0.000 C 
ATOM      6  C   UNL     1       4.503   4.201  16.453  0.00  0.00    +0.000 C 
ENDROOT
BRANCH   1  11
ATOM      7  F   UNL     1       7.554   4.530  10.855  0.00  0.00    +0.000 F 
ATOM      8  C   UNL     1       7.173   4.466  12.138  0.00  0.00    +0.000 A 
ATOM      9  C   UNL     1       6.140   3.622  12.504  0.00  0.00    +0.000 A 
ATOM     10  C   UNL     1       5.743   3.568  13.845  0.00  0.00    +0.000 A 
ATOM     11  C   UNL     1       6.363   4.353  14.833  0.00  0.00    +0.000 A 
ATOM     12  C   UNL     1       7.413   5.188  14.420  0.00  0.00    +0.000 A 
ATOM     13  C   UNL     1       7.817   5.251  13.081  0.00  0.00    +0.000 A 
ENDBRANCH   1  11
BRANCH   4  14
ATOM     14  C   UNL     1       4.712   4.333  19.535  0.00  0.00    +0.000 C 
BRANCH  14  15
ATOM     15  C   UNL     1       3.279   4.001  19.853  0.00  0.00    +0.000 A 
ATOM     16  C   UNL     1       2.339   4.769  20.514  0.00  0.00    +0.000 A 
ATOM     17  C   UNL     1       1.088   4.101  20.646  0.00  0.00    +0.000 A 
ATOM     18  C   UNL     1       1.109   2.847  20.080  0.00  0.00    +0.000 A 
ATOM     19  S   UNL     1       2.632   2.476  19.401  0.00  0.00    +0.000 S 
ENDBRANCH  14  15
ENDBRANCH   4  14
TORSDOF 3
ENDMDL
MODEL 2
REMARK VINA RESULT:      -6.7      0.064      1.104
REMARK  Name = 
REMARK  3 active torsions:
REMARK  status: ('A' for Active; 'I' for Inactive)
REMARK    1  A    between atoms: C_5  and  N_6
REMARK    2  A    between atoms: N_9  and  C_10
REMARK    3  A    between atoms: C_10  and  C_11
REMARK                            x       y       z     vdW  Elec       q    Type
REMARK                         _______ _______ _______ _____ _____    ______ ____
ROOT
ATOM      1  N   UNL     1       5.870   4.328  16.145  0.00  0.00    +0.000 N 
ATOM      2  C   UNL     1       6.784   4.563  17.272  0.00  0.00    +0.000 C 
ATOM      3  C   UNL     1       6.254   5.680  18.206  0.00  0.00    +0.000 C 
ATOM      4  N   UNL     1       4.837   5.535  18.635  0.00  0.00    +0.000 NA
ATOM      5  C   UNL     1       4.021   5.386  17.404  0.00  0.00    +0.000 C 
ATOM      6  C   UNL     1       4.440   4.223  16.476  0.00  0.00    +0.000 C 
ENDROOT
BRANCH   1  11
ATOM      7  F   UNL     1       7.579   4.416  10.880  0.00  0.00    +0.000 F 
ATOM      8  C   UNL     1       7.156   4.405  12.150  0.00  0.00    +0.000 A 
ATOM      9  C   UNL     1       7.787   5.201  13.089  0.00  0.00    +0.000 A 
ATOM     10  C   UNL     1       7.344   5.177  14.416  0.00  0.00    +0.000 A 
ATOM     11  C   UNL     1       6.274   4.360  14.825  0.00  0.00    +0.000 A 
ATOM     12  C   UNL     1       5.656   3.576  13.839  0.00  0.00    +0.000 A 
ATOM     13  C   UNL     1       6.093   3.592  12.509  0.00  0.00    +0.000 A 
ENDBRANCH   1  11
BRANCH   4  14
ATOM     14  C   UNL     1       4.699   4.388  19.553  0.00  0.00    +0.000 C 
BRANCH  14  15
ATOM     15  C   UNL     1       3.269   4.035  19.868  0.00  0.00    +0.000 A 
ATOM     16  C   UNL     1       2.313   4.796  20.511  0.00  0.00    +0.000 A 
ATOM     17  C   UNL     1       1.073   4.108  20.647  0.00  0.00    +0.000 A 
ATOM     18  C   UNL     1       1.119   2.846  20.101  0.00  0.00    +0.000 A 
ATOM     19  S   UNL     1       2.652   2.491  19.437  0.00  0.00    +0.000 S 
ENDBRANCH  14  15
ENDBRANCH   4  14
TORSDOF 3
ENDMDL
MODEL 3
REMARK VINA RESULT:      -6.5      1.100      1.488
REMARK  Name = 
REMARK  3 active torsions:
REMARK  status: ('A' for Active; 'I' for Inactive)
REMARK    1  A    between atoms: C_5  and  N_6
REMARK    2  A    between atoms: N_9  and  C_10
REMARK    3  A    between atoms: C_10  and  C_11
REMARK                            x       y       z     vdW  Elec       q    Type
REMARK                         _______ _______ _______ _____ _____    ______ ____
ROOT
ATOM      1  N   UNL     1       5.033   4.885  16.000  0.00  0.00    +0.000 N 
ATOM      2  C   UNL     1       4.294   3.853  16.742  0.00  0.00    +0.000 C 
ATOM      3  C   UNL     1       4.741   3.794  18.225  0.00  0.00    +0.000 C 
ATOM      4  N   UNL     1       4.775   5.101  18.934  0.00  0.00    +0.000 NA
ATOM      5  C   UNL     1       5.613   6.018  18.122  0.00  0.00    +0.000 C 
ATOM      6  C   UNL     1       5.158   6.196  16.656  0.00  0.00    +0.000 C 
ENDROOT
BRANCH   1  11
ATOM      7  F   UNL     1       7.717   3.899  11.259  0.00  0.00    +0.000 F 
ATOM      8  C   UNL     1       7.076   4.127  12.412  0.00  0.00    +0.000 A 
ATOM      9  C   UNL     1       5.849   3.529  12.643  0.00  0.00    +0.000 A 
ATOM     10  C   UNL     1       5.182   3.779  13.847  0.00  0.00    +0.000 A 
ATOM     11  C   UNL     1       5.721   4.627  14.831  0.00  0.00    +0.000 A 
ATOM     12  C   UNL     1       6.971   5.205  14.560  0.00  0.00    +0.000 A 
ATOM     13  C   UNL     1       7.647   4.962  13.359  0.00  0.00    +0.000 A 
ENDBRANCH   1  11
BRANCH   4  14
ATOM     14  C   UNL     1       3.402   5.607  19.132  0.00  0.00    +0.000 C 
BRANCH  14  15
ATOM     15  C   UNL     1       2.447   4.571  19.661  0.00  0.00    +0.000 A 
ATOM     16  C   UNL     1       1.423   3.922  18.999  0.00  0.00    +0.000 A 
ATOM     17  C   UNL     1       0.715   3.020  19.844  0.00  0.00    +0.000 A 
ATOM     18  C   UNL     1       1.222   3.005  21.124  0.00  0.00    +0.000 A 
ATOM     19  S   UNL     1       2.538   4.080  21.304  0.00  0.00    +0.000 S 
ENDBRANCH  14  15
ENDBRANCH   4  14
TORSDOF 3
ENDMDL
MODEL 4
REMARK VINA RESULT:      -6.5      1.009      1.129
REMARK  Name = 
REMARK  3 active torsions:
REMARK  status: ('A' for Active; 'I' for Inactive)
REMARK    1  A    between atoms: C_5  and  N_6
REMARK    2  A    between atoms: N_9  and  C_10
REMARK    3  A    between atoms: C_10  and  C_11
REMARK                            x       y       z     vdW  Elec       q    Type
REMARK                         _______ _______ _______ _____ _____    ______ ____
ROOT
ATOM      1  N   UNL     1       5.500   4.832  16.203  0.00  0.00    +0.000 N 
ATOM      2  C   UNL     1       5.653   6.093  16.942  0.00  0.00    +0.000 C 
ATOM      3  C   UNL     1       4.280   6.661  17.383  0.00  0.00    +0.000 C 
ATOM      4  N   UNL     1       3.381   5.695  18.071  0.00  0.00    +0.000 NA
ATOM      5  C   UNL     1       3.252   4.511  17.184  0.00  0.00    +0.000 C 
ATOM      6  C   UNL     1       4.586   3.839  16.789  0.00  0.00    +0.000 C 
ENDROOT
BRANCH   1  11
ATOM      7  F   UNL     1       7.578   4.032  11.134  0.00  0.00    +0.000 F 
ATOM      8  C   UNL     1       7.084   4.215  12.365  0.00  0.00    +0.000 A 
ATOM      9  C   UNL     1       5.929   3.555  12.744  0.00  0.00    +0.000 A 
ATOM     10  C   UNL     1       5.415   3.758  14.030  0.00  0.00    +0.000 A 
ATOM     11  C   UNL     1       6.038   4.622  14.949  0.00  0.00    +0.000 A 
ATOM     12  C   UNL     1       7.213   5.264  14.526  0.00  0.00    +0.000 A 
ATOM     13  C   UNL     1       7.735   5.068  13.242  0.00  0.00    +0.000 A 
ENDBRANCH   1  11
BRANCH   4  14
ATOM     14  C   UNL     1       3.923   5.355  19.401  0.00  0.00    +0.000 C 
BRANCH  14  15
ATOM     15  C   UNL     1       3.079   4.368  20.163  0.00  0.00    +0.000 A 
ATOM     16  C   UNL     1       1.841   4.558  20.746  0.00  0.00    +0.000 A 
ATOM     17  C   UNL     1       1.367   3.388  21.405  0.00  0.00    +0.000 A 
ATOM     18  C   UNL     1       2.253   2.341  21.302  0.00  0.00    +0.000 A 
ATOM     19  S   UNL     1       3.653   2.771  20.423  0.00  0.00    +0.000 S 
ENDBRANCH  14  15
ENDBRANCH   4  14
TORSDOF 3
ENDMDL
MODEL 5
REMARK VINA RESULT:      -6.5      3.784      7.370
REMARK  Name = 
REMARK  3 active torsions:
REMARK  status: ('A' for Active; 'I' for Inactive)
REMARK    1  A    between atoms: C_5  and  N_6
REMARK    2  A    between atoms: N_9  and  C_10
REMARK    3  A    between atoms: C_10  and  C_11
REMARK                            x       y       z     vdW  Elec       q    Type
REMARK                         _______ _______ _______ _____ _____    ______ ____
ROOT
ATOM      1  N   UNL     1       3.649   4.492  18.024  0.00  0.00    +0.000 N 
ATOM      2  C   UNL     1       4.094   5.889  17.914  0.00  0.00    +0.000 C 
ATOM      3  C   UNL     1       5.610   5.977  17.603  0.00  0.00    +0.000 C 
ATOM      4  N   UNL     1       6.080   5.132  16.473  0.00  0.00    +0.000 NA
ATOM      5  C   UNL     1       5.634   3.743  16.750  0.00  0.00    +0.000 C 
ATOM      6  C   UNL     1       4.113   3.575  16.971  0.00  0.00    +0.000 C 
ENDROOT
BRANCH   1  11
ATOM      7  F   UNL     1       0.870   2.468  22.363  0.00  0.00    +0.000 F 
ATOM      8  C   UNL     1       1.547   2.968  21.322  0.00  0.00    +0.000 A 
ATOM      9  C   UNL     1       0.915   3.832  20.446  0.00  0.00    +0.000 A 
ATOM     10  C   UNL     1       1.628   4.344  19.356  0.00  0.00    +0.000 A 
ATOM     11  C   UNL     1       2.972   4.000  19.122  0.00  0.00    +0.000 A 
ATOM     12  C   UNL     1       3.577   3.129  20.041  0.00  0.00    +0.000 A 
ATOM     13  C   UNL     1       2.873   2.610  21.134  0.00  0.00    +0.000 A 
ENDBRANCH   1  11
BRANCH   4  14
ATOM     14  C   UNL     1       5.557   5.654  15.196  0.00  0.00    +0.000 C 
BRANCH  14  15
ATOM     15  C   UNL     1       5.935   4.819  14.001  0.00  0.00    +0.000 A 
ATOM     16  C   UNL     1       5.176   3.880  13.329  0.00  0.00    +0.000 A 
ATOM     17  C   UNL     1       5.890   3.274  12.255  0.00  0.00    +0.000 A 
ATOM     18  C   UNL     1       7.168   3.772  12.138  0.00  0.00    +0.000 A 
ATOM     19  S   UNL     1       7.505   4.955  13.322  0.00  0.00    +0.000 S 
ENDBRANCH  14  15
ENDBRANCH   4  14
TORSDOF 3
ENDMDL
MODEL 6
REMARK VINA RESULT:      -6.5      1.099      1.853
REMARK  Name = 
REMARK  3 active torsions:
REMARK  status: ('A' for Active; 'I' for Inactive)
REMARK    1  A    between atoms: C_5  and  N_6
REMARK    2  A    between atoms: N_9  and  C_10
REMARK    3  A    between atoms: C_10  and  C_11
REMARK                            x       y       z     vdW  Elec       q    Type
REMARK                         _______ _______ _______ _____ _____    ______ ____
ROOT
ATOM      1  N   UNL     1       5.011   4.881  15.994  0.00  0.00    +0.000 N 
ATOM      2  C   UNL     1       4.260   3.850  16.725  0.00  0.00    +0.000 C 
ATOM      3  C   UNL     1       4.729   3.748  18.199  0.00  0.00    +0.000 C 
ATOM      4  N   UNL     1       4.804   5.038  18.936  0.00  0.00    +0.000 NA
ATOM      5  C   UNL     1       5.651   5.953  18.130  0.00  0.00    +0.000 C 
ATOM      6  C   UNL     1       5.177   6.175  16.676  0.00  0.00    +0.000 C 
ENDROOT
BRANCH   1  11
ATOM      7  F   UNL     1       7.742   3.842  11.291  0.00  0.00    +0.000 F 
ATOM      8  C   UNL     1       7.074   4.104  12.422  0.00  0.00    +0.000 A 
ATOM      9  C   UNL     1       7.634   4.945  13.368  0.00  0.00    +0.000 A 
ATOM     10  C   UNL     1       6.933   5.206  14.551  0.00  0.00    +0.000 A 
ATOM     11  C   UNL     1       5.674   4.634  14.808  0.00  0.00    +0.000 A 
ATOM     12  C   UNL     1       5.139   3.795  13.818  0.00  0.00    +0.000 A 
ATOM     13  C   UNL     1       5.832   3.526  12.632  0.00  0.00    +0.000 A 
ENDBRANCH   1  11
BRANCH   4  14
ATOM     14  C   UNL     1       3.447   5.571  19.166  0.00  0.00    +0.000 C 
BRANCH  14  15
ATOM     15  C   UNL     1       2.475   4.546  19.687  0.00  0.00    +0.000 A 
ATOM     16  C   UNL     1       1.429   3.933  19.025  0.00  0.00    +0.000 A 
ATOM     17  C   UNL     1       0.712   3.029  19.862  0.00  0.00    +0.000 A 
ATOM     18  C   UNL     1       1.235   2.977  21.133  0.00  0.00    +0.000 A 
ATOM     19  S   UNL     1       2.576   4.019  21.318  0.00  0.00    +0.000 S 
ENDBRANCH  14  15
ENDBRANCH   4  14
TORSDOF 3
ENDMDL
MODEL 7
REMARK VINA RESULT:      -6.5      1.055      1.619
REMARK  Name = 
REMARK  3 active torsions:
REMARK  status: ('A' for Active; 'I' for Inactive)
REMARK    1  A    between atoms: C_5  and  N_6
REMARK    2  A    between atoms: N_9  and  C_10
REMARK    3  A    between atoms: C_10  and  C_11
REMARK                            x       y       z     vdW  Elec       q    Type
REMARK                         _______ _______ _______ _____ _____    ______ ____
ROOT
ATOM      1  N   UNL     1       5.385   4.850  16.264  0.00  0.00    +0.000 N 
ATOM      2  C   UNL     1       5.547   6.109  17.005  0.00  0.00    +0.000 C 
ATOM      3  C   UNL     1       4.178   6.680  17.455  0.00  0.00    +0.000 C 
ATOM      4  N   UNL     1       3.280   5.715  18.146  0.00  0.00    +0.000 NA
ATOM      5  C   UNL     1       3.141   4.534  17.257  0.00  0.00    +0.000 C 
ATOM      6  C   UNL     1       4.471   3.858  16.853  0.00  0.00    +0.000 C 
ENDROOT
BRANCH   1  11
ATOM      7  F   UNL     1       7.591   3.961  11.264  0.00  0.00    +0.000 F 
ATOM      8  C   UNL     1       7.050   4.187  12.468  0.00  0.00    +0.000 A 
ATOM      9  C   UNL     1       7.709   4.999  13.373  0.00  0.00    +0.000 A 
ATOM     10  C   UNL     1       7.140   5.223  14.633  0.00  0.00    +0.000 A 
ATOM     11  C   UNL     1       5.916   4.640  15.007  0.00  0.00    +0.000 A 
ATOM     12  C   UNL     1       5.276   3.831  14.054  0.00  0.00    +0.000 A 
ATOM     13  C   UNL     1       5.837   3.600  12.793  0.00  0.00    +0.000 A 
ENDBRANCH   1  11
BRANCH   4  14
ATOM     14  C   UNL     1       3.828   5.371  19.472  0.00  0.00    +0.000 C 
BRANCH  14  15
ATOM     15  C   UNL     1       3.014   4.344  20.214  0.00  0.00    +0.000 A 
ATOM     16  C   UNL     1       1.755   4.476  20.769  0.00  0.00    +0.000 A 
ATOM     17  C   UNL     1       1.320   3.284  21.416  0.00  0.00    +0.000 A 
ATOM     18  C   UNL     1       2.257   2.279  21.333  0.00  0.00    +0.000 A 
ATOM     19  S   UNL     1       3.655   2.775  20.486  0.00  0.00    +0.000 S 
ENDBRANCH  14  15
ENDBRANCH   4  14
TORSDOF 3
ENDMDL
MODEL 8
REMARK VINA RESULT:      -6.5      3.789      7.397
REMARK  Name = 
REMARK  3 active torsions:
REMARK  status: ('A' for Active; 'I' for Inactive)
REMARK    1  A    between atoms: C_5  and  N_6
REMARK    2  A    between atoms: N_9  and  C_10
REMARK    3  A    between atoms: C_10  and  C_11
REMARK                            x       y       z     vdW  Elec       q    Type
REMARK                         _______ _______ _______ _____ _____    ______ ____
ROOT
ATOM      1  N   UNL     1       3.603   4.457  17.996  0.00  0.00    +0.000 N 
ATOM      2  C   UNL     1       4.041   5.858  17.908  0.00  0.00    +0.000 C 
ATOM      3  C   UNL     1       5.561   5.958  17.622  0.00  0.00    +0.000 C 
ATOM      4  N   UNL     1       6.054   5.127  16.491  0.00  0.00    +0.000 NA
ATOM      5  C   UNL     1       5.612   3.733  16.747  0.00  0.00    +0.000 C 
ATOM      6  C   UNL     1       4.089   3.554  16.942  0.00  0.00    +0.000 C 
ENDROOT
BRANCH   1  11
ATOM      7  F   UNL     1       0.886   2.476  22.395  0.00  0.00    +0.000 F 
ATOM      8  C   UNL     1       1.538   2.944  21.323  0.00  0.00    +0.000 A 
ATOM      9  C   UNL     1       2.870   2.620  21.138  0.00  0.00    +0.000 A 
ATOM     10  C   UNL     1       3.547   3.121  20.019  0.00  0.00    +0.000 A 
ATOM     11  C   UNL     1       2.910   3.950  19.078  0.00  0.00    +0.000 A 
ATOM     12  C   UNL     1       1.556   4.245  19.300  0.00  0.00    +0.000 A 
ATOM     13  C   UNL     1       0.871   3.751  20.415  0.00  0.00    +0.000 A 
ENDBRANCH   1  11
BRANCH   4  14
ATOM     14  C   UNL     1       5.548   5.660  15.211  0.00  0.00    +0.000 C 
BRANCH  14  15
ATOM     15  C   UNL     1       5.932   4.828  14.016  0.00  0.00    +0.000 A 
ATOM     16  C   UNL     1       5.177   3.893  13.335  0.00  0.00    +0.000 A 
ATOM     17  C   UNL     1       5.897   3.290  12.264  0.00  0.00    +0.000 A 
ATOM     18  C   UNL     1       7.177   3.785  12.158  0.00  0.00    +0.000 A 
ATOM     19  S   UNL     1       7.509   4.963  13.349  0.00  0.00    +0.000 S 
ENDBRANCH  14  15
ENDBRANCH   4  14
TORSDOF 3
ENDMDL
MODEL 9
REMARK VINA RESULT:      -6.4      1.009      1.789
REMARK  Name = 
REMARK  3 active torsions:
REMARK  status: ('A' for Active; 'I' for Inactive)
REMARK    1  A    between atoms: C_5  and  N_6
REMARK    2  A    between atoms: N_9  and  C_10
REMARK    3  A    between atoms: C_10  and  C_11
REMARK                            x       y       z     vdW  Elec       q    Type
REMARK                         _______ _______ _______ _____ _____    ______ ____
ROOT
ATOM      1  N   UNL     1       5.162   4.850  16.253  0.00  0.00    +0.000 N 
ATOM      2  C   UNL     1       4.311   3.846  16.907  0.00  0.00    +0.000 C 
ATOM      3  C   UNL     1       4.799   3.543  18.347  0.00  0.00    +0.000 C 
ATOM      4  N   UNL     1       5.044   4.735  19.202  0.00  0.00    +0.000 NA
ATOM      5  C   UNL     1       5.975   5.622  18.459  0.00  0.00    +0.000 C 
ATOM      6  C   UNL     1       5.497   6.041  17.051  0.00  0.00    +0.000 C 
ENDROOT
BRANCH   1  11
ATOM      7  F   UNL     1       7.644   3.988  11.380  0.00  0.00    +0.000 F 
ATOM      8  C   UNL     1       7.036   4.207  12.553  0.00  0.00    +0.000 A 
ATOM      9  C   UNL     1       7.653   4.999  13.505  0.00  0.00    +0.000 A 
ATOM     10  C   UNL     1       7.015   5.217  14.732  0.00  0.00    +0.000 A 
ATOM     11  C   UNL     1       5.762   4.648  15.027  0.00  0.00    +0.000 A 
ATOM     12  C   UNL     1       5.168   3.860  14.029  0.00  0.00    +0.000 A 
ATOM     13  C   UNL     1       5.799   3.635  12.799  0.00  0.00    +0.000 A 
ENDBRANCH   1  11
BRANCH   4  14
ATOM     14  C   UNL     1       3.766   5.397  19.531  0.00  0.00    +0.000 C 
BRANCH  14  15
ATOM     15  C   UNL     1       2.726   4.459  20.084  0.00  0.00    +0.000 A 
ATOM     16  C   UNL     1       2.678   3.857  21.327  0.00  0.00    +0.000 A 
ATOM     17  C   UNL     1       1.543   3.010  21.476  0.00  0.00    +0.000 A 
ATOM     18  C   UNL     1       0.757   2.995  20.347  0.00  0.00    +0.000 A 
ATOM     19  S   UNL     1       1.392   3.989  19.111  0.00  0.00    +0.000 S 
ENDBRANCH  14  15
ENDBRANCH   4  14
TORSDOF 3
ENDMDL
