MODEL 1
REMARK VINA RESULT:      -8.1      0.000      0.000
REMARK  Name = 
REMARK  8 active torsions:
REMARK  status: ('A' for Active; 'I' for Inactive)
REMARK    1  A    between atoms: C_2  and  C_14
REMARK    2  A    between atoms: N_3  and  C_4
REMARK    3  A    between atoms: C_4  and  C_5
REMARK    4  A    between atoms: C_5  and  O_6
REMARK    5  A    between atoms: O_6  and  C_7
REMARK    6  A    between atoms: C_19  and  S_20
REMARK    7  A    between atoms: S_20  and  C_21
REMARK    8  A    between atoms: C_21  and  C_22
REMARK                            x       y       z     vdW  Elec       q    Type
REMARK                         _______ _______ _______ _____ _____    ______ ____
ROOT
ATOM      1  O   UNL     1       8.105   6.159  19.009  0.00  0.00    +0.000 OA
ATOM      2  C   UNL     1       7.590   6.767  18.075  0.00  0.00    +0.000 C 
ATOM      3  N   UNL     1       7.811   8.102  17.816  0.00  0.00    +0.000 N 
ATOM      4  H   UNL     1       7.197   8.555  17.146  0.00  0.00    +0.000 HD
ENDROOT
BRANCH   2   5
ATOM      5  C   UNL     1       6.758   5.987  17.133  0.00  0.00    +0.000 A 
ATOM      6  C   UNL     1       7.442   5.567  15.974  0.00  0.00    +0.000 A 
ATOM      7  C   UNL     1       6.812   4.790  15.006  0.00  0.00    +0.000 A 
ATOM      8  C   UNL     1       5.491   4.423  15.191  0.00  0.00    +0.000 A 
ATOM      9  C   UNL     1       4.792   4.842  16.329  0.00  0.00    +0.000 A 
ATOM     10  C   UNL     1       5.411   5.618  17.329  0.00  0.00    +0.000 A 
BRANCH  10  11
ATOM     11  S   UNL     1       4.409   6.136  18.726  0.00  0.00    +0.000 S 
BRANCH  11  12
ATOM     12  C   UNL     1       2.717   5.879  18.079  0.00  0.00    +0.000 C 
BRANCH  12  13
ATOM     13  C   UNL     1       2.040   4.710  18.759  0.00  0.00    +0.000 A 
ATOM     14  C   UNL     1       1.824   4.719  20.146  0.00  0.00    +0.000 A 
ATOM     15  C   UNL     1       1.221   3.628  20.779  0.00  0.00    +0.000 A 
ATOM     16  C   UNL     1       0.831   2.517  20.032  0.00  0.00    +0.000 A 
ATOM     17  C   UNL     1       1.037   2.499  18.655  0.00  0.00    +0.000 A 
ATOM     18  C   UNL     1       1.640   3.587  18.023  0.00  0.00    +0.000 A 
ENDBRANCH  12  13
ENDBRANCH  11  12
ENDBRANCH  10  11
ENDBRANCH   2   5
BRANCH   3  19
ATOM     19  C   UNL     1       8.650   8.958  18.650  0.00  0.00    +0.000 C 
BRANCH  19  20
ATOM     20  C   UNL     1       8.859  10.370  18.101  0.00  0.00    +0.000 C 
BRANCH  20  21
ATOM     21  O   UNL     1       9.859  11.076  18.833  0.00  0.00    +0.000 OA
BRANCH  21  22
ATOM     22  C   UNL     1      10.242  12.261  18.252  0.00  0.00    +0.000 A 
ATOM     23  C   UNL     1      11.365  12.446  17.428  0.00  0.00    +0.000 A 
ATOM     24  C   UNL     1      11.627  13.693  16.862  0.00  0.00    +0.000 A 
ATOM     25  C   UNL     1      10.773  14.755  17.128  0.00  0.00    +0.000 A 
ATOM     26  F   UNL     1      11.016  15.953  16.577  0.00  0.00    +0.000 F 
ATOM     27  C   UNL     1       9.668  14.594  17.956  0.00  0.00    +0.000 A 
ATOM     28  C   UNL     1       9.406  13.346  18.521  0.00  0.00    +0.000 A 
ENDBRANCH  21  22
ENDBRANCH  20  21
ENDBRANCH  19  20
ENDBRANCH   3  19
TORSDOF 8
ENDMDL
MODEL 2
REMARK VINA RESULT:      -8.0      0.649      1.453
REMARK  Name = 
REMARK  8 active torsions:
REMARK  status: ('A' for Active; 'I' for Inactive)
REMARK    1  A    between atoms: C_2  and  C_14
REMARK    2  A    between atoms: N_3  and  C_4
REMARK    3  A    between atoms: C_4  and  C_5
REMARK    4  A    between atoms: C_5  and  O_6
REMARK    5  A    between atoms: O_6  and  C_7
REMARK    6  A    between atoms: C_19  and  S_20
REMARK    7  A    between atoms: S_20  and  C_21
REMARK    8  A    between atoms: C_21  and  C_22
REMARK                            x       y       z     vdW  Elec       q    Type
REMARK                         _______ _______ _______ _____ _____    ______ ____
ROOT
ATOM      1  O   UNL     1       7.325   6.042  19.004  0.00  0.00    +0.000 OA
ATOM      2  C   UNL     1       7.199   6.530  17.884  0.00  0.00    +0.000 C 
ATOM      3  N   UNL     1       7.764   7.727  17.502  0.00  0.00    +0.000 N 
ATOM      4  H   UNL     1       7.447   8.134  16.628  0.00  0.00    +0.000 HD
ENDROOT
BRANCH   2   5
ATOM      5  C   UNL     1       6.470   5.732  16.875  0.00  0.00    +0.000 A 
ATOM      6  C   UNL     1       7.295   5.175  15.876  0.00  0.00    +0.000 A 
ATOM      7  C   UNL     1       6.769   4.365  14.874  0.00  0.00    +0.000 A 
ATOM      8  C   UNL     1       5.410   4.102  14.863  0.00  0.00    +0.000 A 
ATOM      9  C   UNL     1       4.574   4.657  15.838  0.00  0.00    +0.000 A 
ATOM     10  C   UNL     1       5.084   5.470  16.870  0.00  0.00    +0.000 A 
BRANCH  10  11
ATOM     11  S   UNL     1       3.916   6.166  18.043  0.00  0.00    +0.000 S 
BRANCH  11  12
ATOM     12  C   UNL     1       2.442   5.118  17.756  0.00  0.00    +0.000 C 
BRANCH  12  13
ATOM     13  C   UNL     1       2.086   4.322  18.991  0.00  0.00    +0.000 A 
ATOM     14  C   UNL     1       1.243   3.203  18.901  0.00  0.00    +0.000 A 
ATOM     15  C   UNL     1       0.895   2.481  20.046  0.00  0.00    +0.000 A 
ATOM     16  C   UNL     1       1.382   2.871  21.292  0.00  0.00    +0.000 A 
ATOM     17  C   UNL     1       2.222   3.977  21.394  0.00  0.00    +0.000 A 
ATOM     18  C   UNL     1       2.570   4.700  20.251  0.00  0.00    +0.000 A 
ENDBRANCH  12  13
ENDBRANCH  11  12
ENDBRANCH  10  11
ENDBRANCH   2   5
BRANCH   3  19
ATOM     19  C   UNL     1       8.543   8.575  18.400  0.00  0.00    +0.000 C 
BRANCH  19  20
ATOM     20  C   UNL     1       8.400  10.074  18.139  0.00  0.00    +0.000 C 
BRANCH  20  21
ATOM     21  O   UNL     1       9.233  10.841  19.006  0.00  0.00    +0.000 OA
BRANCH  21  22
ATOM     22  C   UNL     1       9.704  12.003  18.444  0.00  0.00    +0.000 A 
ATOM     23  C   UNL     1       9.153  13.283  18.624  0.00  0.00    +0.000 A 
ATOM     24  C   UNL     1       9.748  14.397  18.032  0.00  0.00    +0.000 A 
ATOM     25  C   UNL     1      10.885  14.228  17.252  0.00  0.00    +0.000 A 
ATOM     26  F   UNL     1      11.465  15.298  16.689  0.00  0.00    +0.000 F 
ATOM     27  C   UNL     1      11.432  12.966  17.048  0.00  0.00    +0.000 A 
ATOM     28  C   UNL     1      10.837  11.854  17.643  0.00  0.00    +0.000 A 
ENDBRANCH  21  22
ENDBRANCH  20  21
ENDBRANCH  19  20
ENDBRANCH   3  19
TORSDOF 8
ENDMDL
MODEL 3
REMARK VINA RESULT:      -8.0      0.868      1.033
REMARK  Name = 
REMARK  8 active torsions:
REMARK  status: ('A' for Active; 'I' for Inactive)
REMARK    1  A    between atoms: C_2  and  C_14
REMARK    2  A    between atoms: N_3  and  C_4
REMARK    3  A    between atoms: C_4  and  C_5
REMARK    4  A    between atoms: C_5  and  O_6
REMARK    5  A    between atoms: O_6  and  C_7
REMARK    6  A    between atoms: C_19  and  S_20
REMARK    7  A    between atoms: S_20  and  C_21
REMARK    8  A    between atoms: C_21  and  C_22
REMARK                            x       y       z     vdW  Elec       q    Type
REMARK                         _______ _______ _______ _____ _____    ______ ____
ROOT
ATOM      1  O   UNL     1       7.779   5.806  18.976  0.00  0.00    +0.000 OA
ATOM      2  C   UNL     1       7.407   6.410  17.974  0.00  0.00    +0.000 C 
ATOM      3  N   UNL     1       7.757   7.713  17.691  0.00  0.00    +0.000 N 
ATOM      4  H   UNL     1       7.250   8.180  16.946  0.00  0.00    +0.000 HD
ENDROOT
BRANCH   2   5
ATOM      5  C   UNL     1       6.613   5.655  16.980  0.00  0.00    +0.000 A 
ATOM      6  C   UNL     1       7.384   5.052  15.965  0.00  0.00    +0.000 A 
ATOM      7  C   UNL     1       6.792   4.273  14.976  0.00  0.00    +0.000 A 
ATOM      8  C   UNL     1       5.421   4.086  14.994  0.00  0.00    +0.000 A 
ATOM      9  C   UNL     1       4.638   4.688  15.986  0.00  0.00    +0.000 A 
ATOM     10  C   UNL     1       5.215   5.471  17.005  0.00  0.00    +0.000 A 
BRANCH  10  11
ATOM     11  S   UNL     1       4.113   6.231  18.202  0.00  0.00    +0.000 S 
BRANCH  11  12
ATOM     12  C   UNL     1       2.611   5.199  18.024  0.00  0.00    +0.000 C 
BRANCH  12  13
ATOM     13  C   UNL     1       2.444   4.266  19.202  0.00  0.00    +0.000 A 
ATOM     14  C   UNL     1       3.548   3.584  19.736  0.00  0.00    +0.000 A 
ATOM     15  C   UNL     1       3.389   2.703  20.809  0.00  0.00    +0.000 A 
ATOM     16  C   UNL     1       2.125   2.491  21.356  0.00  0.00    +0.000 A 
ATOM     17  C   UNL     1       1.022   3.164  20.837  0.00  0.00    +0.000 A 
ATOM     18  C   UNL     1       1.179   4.044  19.765  0.00  0.00    +0.000 A 
ENDBRANCH  12  13
ENDBRANCH  11  12
ENDBRANCH  10  11
ENDBRANCH   2   5
BRANCH   3  19
ATOM     19  C   UNL     1       8.575   8.539  18.575  0.00  0.00    +0.000 C 
BRANCH  19  20
ATOM     20  C   UNL     1       8.614  10.020  18.201  0.00  0.00    +0.000 C 
BRANCH  20  21
ATOM     21  O   UNL     1       9.467  10.760  19.072  0.00  0.00    +0.000 OA
BRANCH  21  22
ATOM     22  C   UNL     1      10.066  11.845  18.478  0.00  0.00    +0.000 A 
ATOM     23  C   UNL     1      11.325  11.847  17.854  0.00  0.00    +0.000 A 
ATOM     24  C   UNL     1      11.809  13.006  17.247  0.00  0.00    +0.000 A 
ATOM     25  C   UNL     1      11.039  14.162  17.274  0.00  0.00    +0.000 A 
ATOM     26  F   UNL     1      11.497  15.275  16.682  0.00  0.00    +0.000 F 
ATOM     27  C   UNL     1       9.800  14.182  17.903  0.00  0.00    +0.000 A 
ATOM     28  C   UNL     1       9.316  13.022  18.508  0.00  0.00    +0.000 A 
ENDBRANCH  21  22
ENDBRANCH  20  21
ENDBRANCH  19  20
ENDBRANCH   3  19
TORSDOF 8
ENDMDL
MODEL 4
REMARK VINA RESULT:      -7.8      5.667      7.684
REMARK  Name = 
REMARK  8 active torsions:
REMARK  status: ('A' for Active; 'I' for Inactive)
REMARK    1  A    between atoms: C_2  and  C_14
REMARK    2  A    between atoms: N_3  and  C_4
REMARK    3  A    between atoms: C_4  and  C_5
REMARK    4  A    between atoms: C_5  and  O_6
REMARK    5  A    between atoms: O_6  and  C_7
REMARK    6  A    between atoms: C_19  and  S_20
REMARK    7  A    between atoms: S_20  and  C_21
REMARK    8  A    between atoms: C_21  and  C_22
REMARK                            x       y       z     vdW  Elec       q    Type
REMARK                         _______ _______ _______ _____ _____    ______ ____
ROOT
ATOM      1  O   UNL     1       4.119   5.714  16.846  0.00  0.00    +0.000 OA
ATOM      2  C   UNL     1       4.268   4.988  17.824  0.00  0.00    +0.000 C 
ATOM      3  N   UNL     1       5.477   4.798  18.459  0.00  0.00    +0.000 N 
ATOM      4  H   UNL     1       5.535   4.039  19.131  0.00  0.00    +0.000 HD
ENDROOT
BRANCH   2   5
ATOM      5  C   UNL     1       3.057   4.359  18.395  0.00  0.00    +0.000 A 
ATOM      6  C   UNL     1       2.747   3.101  17.842  0.00  0.00    +0.000 A 
ATOM      7  C   UNL     1       1.660   2.360  18.298  0.00  0.00    +0.000 A 
ATOM      8  C   UNL     1       0.874   2.871  19.315  0.00  0.00    +0.000 A 
ATOM      9  C   UNL     1       1.159   4.126  19.867  0.00  0.00    +0.000 A 
ATOM     10  C   UNL     1       2.261   4.889  19.431  0.00  0.00    +0.000 A 
BRANCH  10  11
ATOM     11  S   UNL     1       2.508   6.503  20.179  0.00  0.00    +0.000 S 
BRANCH  11  12
ATOM     12  C   UNL     1       2.147   7.617  18.772  0.00  0.00    +0.000 C 
BRANCH  12  13
ATOM     13  C   UNL     1       1.447   8.875  19.234  0.00  0.00    +0.000 A 
ATOM     14  C   UNL     1       1.301   9.971  18.368  0.00  0.00    +0.000 A 
ATOM     15  C   UNL     1       0.675  11.143  18.803  0.00  0.00    +0.000 A 
ATOM     16  C   UNL     1       0.193  11.233  20.108  0.00  0.00    +0.000 A 
ATOM     17  C   UNL     1       0.328  10.151  20.975  0.00  0.00    +0.000 A 
ATOM     18  C   UNL     1       0.953   8.981  20.542  0.00  0.00    +0.000 A 
ENDBRANCH  12  13
ENDBRANCH  11  12
ENDBRANCH  10  11
ENDBRANCH   2   5
BRANCH   3  19
ATOM     19  C   UNL     1       6.727   5.405  18.013  0.00  0.00    +0.000 C 
BRANCH  19  20
ATOM     20  C   UNL     1       7.405   4.679  16.850  0.00  0.00    +0.000 C 
BRANCH  20  21
ATOM     21  O   UNL     1       7.486   5.506  15.691  0.00  0.00    +0.000 OA
BRANCH  21  22
ATOM     22  C   UNL     1       7.053   4.894  14.539  0.00  0.00    +0.000 A 
ATOM     23  C   UNL     1       7.657   5.004  13.275  0.00  0.00    +0.000 A 
ATOM     24  C   UNL     1       7.147   4.299  12.186  0.00  0.00    +0.000 A 
ATOM     25  C   UNL     1       6.027   3.495  12.358  0.00  0.00    +0.000 A 
ATOM     26  F   UNL     1       5.539   2.809  11.315  0.00  0.00    +0.000 F 
ATOM     27  C   UNL     1       5.405   3.391  13.597  0.00  0.00    +0.000 A 
ATOM     28  C   UNL     1       5.918   4.095  14.686  0.00  0.00    +0.000 A 
ENDBRANCH  21  22
ENDBRANCH  20  21
ENDBRANCH  19  20
ENDBRANCH   3  19
TORSDOF 8
ENDMDL
MODEL 5
REMARK VINA RESULT:      -7.7      1.723      2.250
REMARK  Name = 
REMARK  8 active torsions:
REMARK  status: ('A' for Active; 'I' for Inactive)
REMARK    1  A    between atoms: C_2  and  C_14
REMARK    2  A    between atoms: N_3  and  C_4
REMARK    3  A    between atoms: C_4  and  C_5
REMARK    4  A    between atoms: C_5  and  O_6
REMARK    5  A    between atoms: O_6  and  C_7
REMARK    6  A    between atoms: C_19  and  S_20
REMARK    7  A    between atoms: S_20  and  C_21
REMARK    8  A    between atoms: C_21  and  C_22
REMARK                            x       y       z     vdW  Elec       q    Type
REMARK                         _______ _______ _______ _____ _____    ______ ____
ROOT
ATOM      1  O   UNL     1       7.717   4.969  17.925  0.00  0.00    +0.000 OA
ATOM      2  C   UNL     1       7.286   5.726  17.059  0.00  0.00    +0.000 C 
ATOM      3  N   UNL     1       7.484   7.090  17.068  0.00  0.00    +0.000 N 
ATOM      4  H   UNL     1       6.932   7.644  16.420  0.00  0.00    +0.000 HD
ENDROOT
BRANCH   2   5
ATOM      5  C   UNL     1       6.595   5.114  15.904  0.00  0.00    +0.000 A 
ATOM      6  C   UNL     1       7.410   4.956  14.764  0.00  0.00    +0.000 A 
ATOM      7  C   UNL     1       6.922   4.359  13.605  0.00  0.00    +0.000 A 
ATOM      8  C   UNL     1       5.613   3.911  13.576  0.00  0.00    +0.000 A 
ATOM      9  C   UNL     1       4.786   4.072  14.694  0.00  0.00    +0.000 A 
ATOM     10  C   UNL     1       5.260   4.662  15.883  0.00  0.00    +0.000 A 
BRANCH  10  11
ATOM     11  S   UNL     1       4.100   4.857  17.240  0.00  0.00    +0.000 S 
BRANCH  11  12
ATOM     12  C   UNL     1       3.879   3.124  17.785  0.00  0.00    +0.000 C 
BRANCH  12  13
ATOM     13  C   UNL     1       2.986   3.040  19.002  0.00  0.00    +0.000 A 
ATOM     14  C   UNL     1       3.523   2.738  20.263  0.00  0.00    +0.000 A 
ATOM     15  C   UNL     1       2.694   2.637  21.384  0.00  0.00    +0.000 A 
ATOM     16  C   UNL     1       1.320   2.834  21.255  0.00  0.00    +0.000 A 
ATOM     17  C   UNL     1       0.776   3.138  20.010  0.00  0.00    +0.000 A 
ATOM     18  C   UNL     1       1.603   3.238  18.890  0.00  0.00    +0.000 A 
ENDBRANCH  12  13
ENDBRANCH  11  12
ENDBRANCH  10  11
ENDBRANCH   2   5
BRANCH   3  19
ATOM     19  C   UNL     1       8.191   7.797  18.132  0.00  0.00    +0.000 C 
BRANCH  19  20
ATOM     20  C   UNL     1       7.976   9.310  18.139  0.00  0.00    +0.000 C 
BRANCH  20  21
ATOM     21  O   UNL     1       9.110  10.005  17.627  0.00  0.00    +0.000 OA
BRANCH  21  22
ATOM     22  C   UNL     1       9.614  10.957  18.481  0.00  0.00    +0.000 A 
ATOM     23  C   UNL     1       9.405  11.005  19.869  0.00  0.00    +0.000 A 
ATOM     24  C   UNL     1      10.007  12.001  20.639  0.00  0.00    +0.000 A 
ATOM     25  C   UNL     1      10.806  12.952  20.018  0.00  0.00    +0.000 A 
ATOM     26  F   UNL     1      11.394  13.906  20.755  0.00  0.00    +0.000 F 
ATOM     27  C   UNL     1      11.007  12.930  18.643  0.00  0.00    +0.000 A 
ATOM     28  C   UNL     1      10.407  11.933  17.875  0.00  0.00    +0.000 A 
ENDBRANCH  21  22
ENDBRANCH  20  21
ENDBRANCH  19  20
ENDBRANCH   3  19
TORSDOF 8
ENDMDL
MODEL 6
REMARK VINA RESULT:      -7.7      1.707      2.139
REMARK  Name = 
REMARK  8 active torsions:
REMARK  status: ('A' for Active; 'I' for Inactive)
REMARK    1  A    between atoms: C_2  and  C_14
REMARK    2  A    between atoms: N_3  and  C_4
REMARK    3  A    between atoms: C_4  and  C_5
REMARK    4  A    between atoms: C_5  and  O_6
REMARK    5  A    between atoms: O_6  and  C_7
REMARK    6  A    between atoms: C_19  and  S_20
REMARK    7  A    between atoms: S_20  and  C_21
REMARK    8  A    between atoms: C_21  and  C_22
REMARK                            x       y       z     vdW  Elec       q    Type
REMARK                         _______ _______ _______ _____ _____    ______ ____
ROOT
ATOM      1  O   UNL     1       7.857   6.046  18.566  0.00  0.00    +0.000 OA
ATOM      2  C   UNL     1       7.384   6.637  17.599  0.00  0.00    +0.000 C 
ATOM      3  N   UNL     1       7.575   7.979  17.353  0.00  0.00    +0.000 N 
ATOM      4  H   UNL     1       6.992   8.410  16.642  0.00  0.00    +0.000 HD
ENDROOT
BRANCH   2   5
ATOM      5  C   UNL     1       6.645   5.828  16.605  0.00  0.00    +0.000 A 
ATOM      6  C   UNL     1       7.435   5.372  15.531  0.00  0.00    +0.000 A 
ATOM      7  C   UNL     1       6.899   4.566  14.531  0.00  0.00    +0.000 A 
ATOM      8  C   UNL     1       5.565   4.206  14.598  0.00  0.00    +0.000 A 
ATOM      9  C   UNL     1       4.761   4.661  15.649  0.00  0.00    +0.000 A 
ATOM     10  C   UNL     1       5.284   5.468  16.680  0.00  0.00    +0.000 A 
BRANCH  10  11
ATOM     11  S   UNL     1       4.153   6.031  17.957  0.00  0.00    +0.000 S 
BRANCH  11  12
ATOM     12  C   UNL     1       4.571   4.905  19.338  0.00  0.00    +0.000 C 
BRANCH  12  13
ATOM     13  C   UNL     1       3.334   4.242  19.900  0.00  0.00    +0.000 A 
ATOM     14  C   UNL     1       2.069   4.826  19.726  0.00  0.00    +0.000 A 
ATOM     15  C   UNL     1       0.928   4.225  20.266  0.00  0.00    +0.000 A 
ATOM     16  C   UNL     1       1.040   3.039  20.989  0.00  0.00    +0.000 A 
ATOM     17  C   UNL     1       2.289   2.448  21.165  0.00  0.00    +0.000 A 
ATOM     18  C   UNL     1       3.429   3.048  20.627  0.00  0.00    +0.000 A 
ENDBRANCH  12  13
ENDBRANCH  11  12
ENDBRANCH  10  11
ENDBRANCH   2   5
BRANCH   3  19
ATOM     19  C   UNL     1       8.327   8.864  18.239  0.00  0.00    +0.000 C 
BRANCH  19  20
ATOM     20  C   UNL     1       8.421  10.312  17.758  0.00  0.00    +0.000 C 
BRANCH  20  21
ATOM     21  O   UNL     1       9.740  10.832  17.912  0.00  0.00    +0.000 OA
BRANCH  21  22
ATOM     22  C   UNL     1       9.879  11.692  18.975  0.00  0.00    +0.000 A 
ATOM     23  C   UNL     1       9.795  11.338  20.332  0.00  0.00    +0.000 A 
ATOM     24  C   UNL     1       9.997  12.297  21.325  0.00  0.00    +0.000 A 
ATOM     25  C   UNL     1      10.272  13.609  20.959  0.00  0.00    +0.000 A 
ATOM     26  F   UNL     1      10.476  14.531  21.910  0.00  0.00    +0.000 F 
ATOM     27  C   UNL     1      10.340  13.979  19.621  0.00  0.00    +0.000 A 
ATOM     28  C   UNL     1      10.139  13.019  18.629  0.00  0.00    +0.000 A 
ENDBRANCH  21  22
ENDBRANCH  20  21
ENDBRANCH  19  20
ENDBRANCH   3  19
TORSDOF 8
ENDMDL
MODEL 7
REMARK VINA RESULT:      -7.7      0.852      1.231
REMARK  Name = 
REMARK  8 active torsions:
REMARK  status: ('A' for Active; 'I' for Inactive)
REMARK    1  A    between atoms: C_2  and  C_14
REMARK    2  A    between atoms: N_3  and  C_4
REMARK    3  A    between atoms: C_4  and  C_5
REMARK    4  A    between atoms: C_5  and  O_6
REMARK    5  A    between atoms: O_6  and  C_7
REMARK    6  A    between atoms: C_19  and  S_20
REMARK    7  A    between atoms: S_20  and  C_21
REMARK    8  A    between atoms: C_21  and  C_22
REMARK                            x       y       z     vdW  Elec       q    Type
REMARK                         _______ _______ _______ _____ _____    ______ ____
ROOT
ATOM      1  O   UNL     1       8.234   6.255  18.977  0.00  0.00    +0.000 OA
ATOM      2  C   UNL     1       7.659   6.782  18.029  0.00  0.00    +0.000 C 
ATOM      3  N   UNL     1       7.785   8.114  17.701  0.00  0.00    +0.000 N 
ATOM      4  H   UNL     1       7.127   8.492  17.026  0.00  0.00    +0.000 HD
ENDROOT
BRANCH   2   5
ATOM      5  C   UNL     1       6.859   5.904  17.146  0.00  0.00    +0.000 A 
ATOM      6  C   UNL     1       7.442   5.672  15.884  0.00  0.00    +0.000 A 
ATOM      7  C   UNL     1       6.836   4.836  14.951  0.00  0.00    +0.000 A 
ATOM      8  C   UNL     1       5.639   4.221  15.274  0.00  0.00    +0.000 A 
ATOM      9  C   UNL     1       5.039   4.450  16.517  0.00  0.00    +0.000 A 
ATOM     10  C   UNL     1       5.639   5.283  17.483  0.00  0.00    +0.000 A 
BRANCH  10  11
ATOM     11  S   UNL     1       4.761   5.541  19.028  0.00  0.00    +0.000 S 
BRANCH  11  12
ATOM     12  C   UNL     1       3.031   5.684  18.446  0.00  0.00    +0.000 C 
BRANCH  12  13
ATOM     13  C   UNL     1       2.182   4.543  18.961  0.00  0.00    +0.000 A 
ATOM     14  C   UNL     1       1.849   4.459  20.322  0.00  0.00    +0.000 A 
ATOM     15  C   UNL     1       1.085   3.392  20.803  0.00  0.00    +0.000 A 
ATOM     16  C   UNL     1       0.650   2.396  19.930  0.00  0.00    +0.000 A 
ATOM     17  C   UNL     1       0.971   2.471  18.576  0.00  0.00    +0.000 A 
ATOM     18  C   UNL     1       1.735   3.536  18.095  0.00  0.00    +0.000 A 
ENDBRANCH  12  13
ENDBRANCH  11  12
ENDBRANCH  10  11
ENDBRANCH   2   5
BRANCH   3  19
ATOM     19  C   UNL     1       8.584   9.063  18.472  0.00  0.00    +0.000 C 
BRANCH  19  20
ATOM     20  C   UNL     1       8.732  10.440  17.825  0.00  0.00    +0.000 C 
BRANCH  20  21
ATOM     21  O   UNL     1      10.099  10.764  17.583  0.00  0.00    +0.000 OA
BRANCH  21  22
ATOM     22  C   UNL     1      10.447  12.037  17.966  0.00  0.00    +0.000 A 
ATOM     23  C   UNL     1       9.552  13.092  18.212  0.00  0.00    +0.000 A 
ATOM     24  C   UNL     1      10.026  14.333  18.638  0.00  0.00    +0.000 A 
ATOM     25  C   UNL     1      11.392  14.520  18.806  0.00  0.00    +0.000 A 
ATOM     26  F   UNL     1      11.850  15.708  19.225  0.00  0.00    +0.000 F 
ATOM     27  C   UNL     1      12.292  13.492  18.548  0.00  0.00    +0.000 A 
ATOM     28  C   UNL     1      11.817  12.251  18.125  0.00  0.00    +0.000 A 
ENDBRANCH  21  22
ENDBRANCH  20  21
ENDBRANCH  19  20
ENDBRANCH   3  19
TORSDOF 8
ENDMDL
MODEL 8
REMARK VINA RESULT:      -7.7      1.228      1.602
REMARK  Name = 
REMARK  8 active torsions:
REMARK  status: ('A' for Active; 'I' for Inactive)
REMARK    1  A    between atoms: C_2  and  C_14
REMARK    2  A    between atoms: N_3  and  C_4
REMARK    3  A    between atoms: C_4  and  C_5
REMARK    4  A    between atoms: C_5  and  O_6
REMARK    5  A    between atoms: O_6  and  C_7
REMARK    6  A    between atoms: C_19  and  S_20
REMARK    7  A    between atoms: S_20  and  C_21
REMARK    8  A    between atoms: C_21  and  C_22
REMARK                            x       y       z     vdW  Elec       q    Type
REMARK                         _______ _______ _______ _____ _____    ______ ____
ROOT
ATOM      1  O   UNL     1       8.067   6.316  18.831  0.00  0.00    +0.000 OA
ATOM      2  C   UNL     1       7.511   6.843  17.871  0.00  0.00    +0.000 C 
ATOM      3  N   UNL     1       7.674   8.167  17.524  0.00  0.00    +0.000 N 
ATOM      4  H   UNL     1       7.031   8.551  16.839  0.00  0.00    +0.000 HD
ENDROOT
BRANCH   2   5
ATOM      5  C   UNL     1       6.695   5.973  16.997  0.00  0.00    +0.000 A 
ATOM      6  C   UNL     1       7.398   5.438  15.899  0.00  0.00    +0.000 A 
ATOM      7  C   UNL     1       6.783   4.567  15.003  0.00  0.00    +0.000 A 
ATOM      8  C   UNL     1       5.458   4.222  15.200  0.00  0.00    +0.000 A 
ATOM      9  C   UNL     1       4.740   4.754  16.277  0.00  0.00    +0.000 A 
ATOM     10  C   UNL     1       5.343   5.627  17.204  0.00  0.00    +0.000 A 
BRANCH  10  11
ATOM     11  S   UNL     1       4.318   6.285  18.524  0.00  0.00    +0.000 S 
BRANCH  11  12
ATOM     12  C   UNL     1       2.638   5.885  17.916  0.00  0.00    +0.000 C 
BRANCH  12  13
ATOM     13  C   UNL     1       2.020   4.758  18.712  0.00  0.00    +0.000 A 
ATOM     14  C   UNL     1       1.526   3.614  18.066  0.00  0.00    +0.000 A 
ATOM     15  C   UNL     1       0.932   2.583  18.801  0.00  0.00    +0.000 A 
ATOM     16  C   UNL     1       0.823   2.687  20.186  0.00  0.00    +0.000 A 
ATOM     17  C   UNL     1       1.313   3.815  20.839  0.00  0.00    +0.000 A 
ATOM     18  C   UNL     1       1.905   4.846  20.106  0.00  0.00    +0.000 A 
ENDBRANCH  12  13
ENDBRANCH  11  12
ENDBRANCH  10  11
ENDBRANCH   2   5
BRANCH   3  19
ATOM     19  C   UNL     1       8.493   9.106  18.284  0.00  0.00    +0.000 C 
BRANCH  19  20
ATOM     20  C   UNL     1       8.481  10.537  17.747  0.00  0.00    +0.000 C 
BRANCH  20  21
ATOM     21  O   UNL     1       9.780  11.125  17.786  0.00  0.00    +0.000 OA
BRANCH  21  22
ATOM     22  C   UNL     1       9.850  12.275  18.535  0.00  0.00    +0.000 A 
ATOM     23  C   UNL     1      10.854  12.587  19.466  0.00  0.00    +0.000 A 
ATOM     24  C   UNL     1      10.839  13.810  20.137  0.00  0.00    +0.000 A 
ATOM     25  C   UNL     1       9.814  14.712  19.884  0.00  0.00    +0.000 A 
ATOM     26  F   UNL     1       9.801  15.893  20.520  0.00  0.00    +0.000 F 
ATOM     27  C   UNL     1       8.802  14.411  18.980  0.00  0.00    +0.000 A 
ATOM     28  C   UNL     1       8.820  13.189  18.309  0.00  0.00    +0.000 A 
ENDBRANCH  21  22
ENDBRANCH  20  21
ENDBRANCH  19  20
ENDBRANCH   3  19
TORSDOF 8
ENDMDL
MODEL 9
REMARK VINA RESULT:      -7.7      5.503      7.230
REMARK  Name = 
REMARK  8 active torsions:
REMARK  status: ('A' for Active; 'I' for Inactive)
REMARK    1  A    between atoms: C_2  and  C_14
REMARK    2  A    between atoms: N_3  and  C_4
REMARK    3  A    between atoms: C_4  and  C_5
REMARK    4  A    between atoms: C_5  and  O_6
REMARK    5  A    between atoms: O_6  and  C_7
REMARK    6  A    between atoms: C_19  and  S_20
REMARK    7  A    between atoms: S_20  and  C_21
REMARK    8  A    between atoms: C_21  and  C_22
REMARK                            x       y       z     vdW  Elec       q    Type
REMARK                         _______ _______ _______ _____ _____    ______ ____
ROOT
ATOM      1  O   UNL     1       4.869   5.467  19.890  0.00  0.00    +0.000 OA
ATOM      2  C   UNL     1       4.241   5.589  18.842  0.00  0.00    +0.000 C 
ATOM      3  N   UNL     1       2.935   6.023  18.778  0.00  0.00    +0.000 N 
ATOM      4  H   UNL     1       2.449   5.908  17.894  0.00  0.00    +0.000 HD
ENDROOT
BRANCH   2   5
ATOM      5  C   UNL     1       4.971   5.337  17.581  0.00  0.00    +0.000 A 
ATOM      6  C   UNL     1       6.134   6.118  17.423  0.00  0.00    +0.000 A 
ATOM      7  C   UNL     1       6.955   5.974  16.308  0.00  0.00    +0.000 A 
ATOM      8  C   UNL     1       6.620   5.043  15.340  0.00  0.00    +0.000 A 
ATOM      9  C   UNL     1       5.462   4.269  15.473  0.00  0.00    +0.000 A 
ATOM     10  C   UNL     1       4.622   4.388  16.599  0.00  0.00    +0.000 A 
BRANCH  10  11
ATOM     11  S   UNL     1       3.139   3.376  16.646  0.00  0.00    +0.000 S 
BRANCH  11  12
ATOM     12  C   UNL     1       3.562   2.167  17.954  0.00  0.00    +0.000 C 
BRANCH  12  13
ATOM     13  C   UNL     1       2.767   2.420  19.214  0.00  0.00    +0.000 A 
ATOM     14  C   UNL     1       1.397   2.719  19.146  0.00  0.00    +0.000 A 
ATOM     15  C   UNL     1       0.667   2.977  20.310  0.00  0.00    +0.000 A 
ATOM     16  C   UNL     1       1.298   2.942  21.552  0.00  0.00    +0.000 A 
ATOM     17  C   UNL     1       2.656   2.642  21.632  0.00  0.00    +0.000 A 
ATOM     18  C   UNL     1       3.387   2.386  20.471  0.00  0.00    +0.000 A 
ENDBRANCH  12  13
ENDBRANCH  11  12
ENDBRANCH  10  11
ENDBRANCH   2   5
BRANCH   3  19
ATOM     19  C   UNL     1       2.132   6.346  19.955  0.00  0.00    +0.000 C 
BRANCH  19  20
ATOM     20  C   UNL     1       1.895   7.841  20.170  0.00  0.00    +0.000 C 
BRANCH  20  21
ATOM     21  O   UNL     1       1.534   8.127  21.519  0.00  0.00    +0.000 OA
BRANCH  21  22
ATOM     22  C   UNL     1       0.640   9.162  21.650  0.00  0.00    +0.000 A 
ATOM     23  C   UNL     1       0.049   9.589  22.851  0.00  0.00    +0.000 A 
ATOM     24  C   UNL     1      -0.815  10.683  22.862  0.00  0.00    +0.000 A 
ATOM     25  C   UNL     1      -1.096  11.342  21.672  0.00  0.00    +0.000 A 
ATOM     26  F   UNL     1      -1.919  12.401  21.680  0.00  0.00    +0.000 F 
ATOM     27  C   UNL     1      -0.534  10.921  20.472  0.00  0.00    +0.000 A 
ATOM     28  C   UNL     1       0.331   9.828  20.462  0.00  0.00    +0.000 A 
ENDBRANCH  21  22
ENDBRANCH  20  21
ENDBRANCH  19  20
ENDBRANCH   3  19
TORSDOF 8
ENDMDL
