MODEL 1
REMARK VINA RESULT:      -9.0      0.000      0.000
REMARK  Name = 
REMARK  7 active torsions:
REMARK  status: ('A' for Active; 'I' for Inactive)
REMARK    1  A    between atoms: C_1  and  O_2
REMARK    2  A    between atoms: O_2  and  C_3
REMARK    3  A    between atoms: C_6  and  C_7
REMARK    4  A    between atoms: C_9  and  C_10
REMARK    5  A    between atoms: C_15  and  C_16
REMARK    6  A    between atoms: N_20  and  C_21
REMARK    7  A    between atoms: C_21  and  C_22
REMARK                            x       y       z     vdW  Elec       q    Type
REMARK                         _______ _______ _______ _____ _____    ______ ____
ROOT
ATOM      1  C   UNL     1       0.134  11.253  18.352  0.00  0.00    +0.000 C 
ATOM      2  C   UNL     1      -1.306  11.175  17.779  0.00  0.00    +0.000 C 
ATOM      3  C   UNL     1      -1.885   9.929  17.163  0.00  0.00    +0.000 C 
ATOM      4  C   UNL     1      -3.190   9.636  17.290  0.00  0.00    +0.000 C 
ATOM      5  C   UNL     1      -4.177  10.493  18.043  0.00  0.00    +0.000 C 
ATOM      6  C   UNL     1      -3.602  11.855  18.523  0.00  0.00    +0.000 C 
ATOM      7  C   UNL     1      -4.511  12.447  19.595  0.00  0.00    +0.000 C 
ATOM      8  C   UNL     1      -2.164  11.616  18.980  0.00  0.00    +0.000 C 
ATOM      9  C   UNL     1      -1.307  12.723  19.558  0.00  0.00    +0.000 C 
ATOM     10  O   UNL     1      -1.684  13.627  20.279  0.00  0.00    +0.000 OA
ATOM     11  N   UNL     1       0.019  12.402  19.253  0.00  0.00    +0.000 N 
ENDROOT
BRANCH   1  14
ATOM     12  C   UNL     1       1.985   7.915  18.970  0.00  0.00    +0.000 A 
ATOM     13  C   UNL     1       1.436   9.049  18.340  0.00  0.00    +0.000 A 
ATOM     14  C   UNL     1       0.600   9.962  19.008  0.00  0.00    +0.000 A 
ATOM     15  C   UNL     1       0.251   9.689  20.338  0.00  0.00    +0.000 A 
ATOM     16  C   UNL     1       0.802   8.592  21.002  0.00  0.00    +0.000 A 
ATOM     17  C   UNL     1       1.675   7.740  20.328  0.00  0.00    +0.000 A 
ATOM     18  F   UNL     1       2.220   6.738  21.036  0.00  0.00    +0.000 F 
BRANCH  12  22
ATOM     19  C   UNL     1       4.486   5.141  16.804  0.00  0.00    +0.000 A 
ATOM     20  C   UNL     1       3.360   4.686  17.484  0.00  0.00    +0.000 A 
ATOM     21  C   UNL     1       2.530   5.588  18.157  0.00  0.00    +0.000 A 
ATOM     22  C   UNL     1       2.825   6.964  18.206  0.00  0.00    +0.000 A 
ATOM     23  C   UNL     1       3.986   7.389  17.541  0.00  0.00    +0.000 A 
ATOM     24  C   UNL     1       4.805   6.492  16.842  0.00  0.00    +0.000 A 
BRANCH  19  26
ATOM     25  C   UNL     1       5.513   4.446  14.807  0.00  0.00    +0.000 C 
ATOM     26  O   UNL     1       5.222   4.177  16.173  0.00  0.00    +0.000 OA
ENDBRANCH  19  26
ENDBRANCH  12  22
ENDBRANCH   1  14
BRANCH  11  27
ATOM     27  C   UNL     1       1.150  13.023  19.919  0.00  0.00    +0.000 C 
BRANCH  27  28
ATOM     28  C   UNL     1       1.861  14.083  19.118  0.00  0.00    +0.000 A 
ATOM     29  C   UNL     1       1.338  15.383  19.029  0.00  0.00    +0.000 A 
ATOM     30  C   UNL     1       2.062  16.399  18.400  0.00  0.00    +0.000 A 
ATOM     31  C   UNL     1       3.310  16.122  17.842  0.00  0.00    +0.000 A 
ATOM     32  C   UNL     1       3.823  14.829  17.895  0.00  0.00    +0.000 A 
ATOM     33  C   UNL     1       3.100  13.812  18.524  0.00  0.00    +0.000 A 
ENDBRANCH  27  28
ENDBRANCH  11  27
TORSDOF 5
ENDMDL
MODEL 2
REMARK VINA RESULT:      -9.0      0.442      1.242
REMARK  Name = 
REMARK  7 active torsions:
REMARK  status: ('A' for Active; 'I' for Inactive)
REMARK    1  A    between atoms: C_1  and  O_2
REMARK    2  A    between atoms: O_2  and  C_3
REMARK    3  A    between atoms: C_6  and  C_7
REMARK    4  A    between atoms: C_9  and  C_10
REMARK    5  A    between atoms: C_15  and  C_16
REMARK    6  A    between atoms: N_20  and  C_21
REMARK    7  A    between atoms: C_21  and  C_22
REMARK                            x       y       z     vdW  Elec       q    Type
REMARK                         _______ _______ _______ _____ _____    ______ ____
ROOT
ATOM      1  C   UNL     1       0.334  11.142  18.556  0.00  0.00    +0.000 C 
ATOM      2  C   UNL     1      -1.092  11.141  17.945  0.00  0.00    +0.000 C 
ATOM      3  C   UNL     1      -1.702   9.941  17.269  0.00  0.00    +0.000 C 
ATOM      4  C   UNL     1      -3.020   9.695  17.352  0.00  0.00    +0.000 C 
ATOM      5  C   UNL     1      -3.994  10.563  18.111  0.00  0.00    +0.000 C 
ATOM      6  C   UNL     1      -3.380  11.884  18.655  0.00  0.00    +0.000 C 
ATOM      7  C   UNL     1      -4.294  12.472  19.725  0.00  0.00    +0.000 C 
ATOM      8  C   UNL     1      -1.965  11.573  19.139  0.00  0.00    +0.000 C 
ATOM      9  C   UNL     1      -1.081  12.623  19.779  0.00  0.00    +0.000 C 
ATOM     10  O   UNL     1      -1.444  13.515  20.523  0.00  0.00    +0.000 OA
ATOM     11  N   UNL     1       0.239  12.262  19.495  0.00  0.00    +0.000 N 
ENDROOT
BRANCH   1  14
ATOM     12  C   UNL     1       2.045   7.718  19.103  0.00  0.00    +0.000 A 
ATOM     13  C   UNL     1       1.557   8.894  18.500  0.00  0.00    +0.000 A 
ATOM     14  C   UNL     1       0.732   9.811  19.175  0.00  0.00    +0.000 A 
ATOM     15  C   UNL     1       0.331   9.502  20.483  0.00  0.00    +0.000 A 
ATOM     16  C   UNL     1       0.821   8.361  21.120  0.00  0.00    +0.000 A 
ATOM     17  C   UNL     1       1.685   7.503  20.442  0.00  0.00    +0.000 A 
ATOM     18  F   UNL     1       2.171   6.457  21.127  0.00  0.00    +0.000 F 
BRANCH  12  22
ATOM     19  C   UNL     1       4.414   4.948  16.788  0.00  0.00    +0.000 A 
ATOM     20  C   UNL     1       4.759   6.296  16.836  0.00  0.00    +0.000 A 
ATOM     21  C   UNL     1       4.013   7.188  17.613  0.00  0.00    +0.000 A 
ATOM     22  C   UNL     1       2.876   6.767  18.329  0.00  0.00    +0.000 A 
ATOM     23  C   UNL     1       2.532   5.409  18.234  0.00  0.00    +0.000 A 
ATOM     24  C   UNL     1       3.293   4.506  17.479  0.00  0.00    +0.000 A 
BRANCH  19  26
ATOM     25  C   UNL     1       6.598   4.497  16.041  0.00  0.00    +0.000 C 
ATOM     26  O   UNL     1       5.215   4.163  16.005  0.00  0.00    +0.000 OA
ENDBRANCH  19  26
ENDBRANCH  12  22
ENDBRANCH   1  14
BRANCH  11  27
ATOM     27  C   UNL     1       1.374  12.814  20.213  0.00  0.00    +0.000 C 
BRANCH  27  28
ATOM     28  C   UNL     1       2.040  13.991  19.547  0.00  0.00    +0.000 A 
ATOM     29  C   UNL     1       2.978  13.795  18.520  0.00  0.00    +0.000 A 
ATOM     30  C   UNL     1       3.494  14.884  17.813  0.00  0.00    +0.000 A 
ATOM     31  C   UNL     1       3.088  16.179  18.132  0.00  0.00    +0.000 A 
ATOM     32  C   UNL     1       2.183  16.387  19.170  0.00  0.00    +0.000 A 
ATOM     33  C   UNL     1       1.666  15.299  19.879  0.00  0.00    +0.000 A 
ENDBRANCH  27  28
ENDBRANCH  11  27
TORSDOF 5
ENDMDL
MODEL 3
REMARK VINA RESULT:      -8.4      3.714      8.527
REMARK  Name = 
REMARK  7 active torsions:
REMARK  status: ('A' for Active; 'I' for Inactive)
REMARK    1  A    between atoms: C_1  and  O_2
REMARK    2  A    between atoms: O_2  and  C_3
REMARK    3  A    between atoms: C_6  and  C_7
REMARK    4  A    between atoms: C_9  and  C_10
REMARK    5  A    between atoms: C_15  and  C_16
REMARK    6  A    between atoms: N_20  and  C_21
REMARK    7  A    between atoms: C_21  and  C_22
REMARK                            x       y       z     vdW  Elec       q    Type
REMARK                         _______ _______ _______ _____ _____    ______ ____
ROOT
ATOM      1  C   UNL     1       3.873   5.895  19.115  0.00  0.00    +0.000 C 
ATOM      2  C   UNL     1       3.194   4.749  19.911  0.00  0.00    +0.000 C 
ATOM      3  C   UNL     1       2.133   4.982  20.955  0.00  0.00    +0.000 C 
ATOM      4  C   UNL     1       1.133   4.102  21.134  0.00  0.00    +0.000 C 
ATOM      5  C   UNL     1       0.972   2.834  20.332  0.00  0.00    +0.000 C 
ATOM      6  C   UNL     1       2.164   2.524  19.384  0.00  0.00    +0.000 C 
ATOM      7  C   UNL     1       1.740   1.489  18.347  0.00  0.00    +0.000 C 
ATOM      8  C   UNL     1       2.641   3.848  18.790  0.00  0.00    +0.000 C 
ATOM      9  C   UNL     1       3.767   3.921  17.779  0.00  0.00    +0.000 C 
ATOM     10  O   UNL     1       3.995   3.118  16.894  0.00  0.00    +0.000 OA
ATOM     11  N   UNL     1       4.374   5.168  17.946  0.00  0.00    +0.000 N 
ENDROOT
BRANCH   1  14
ATOM     12  C   UNL     1       1.427   8.855  19.567  0.00  0.00    +0.000 A 
ATOM     13  C   UNL     1       2.193   7.697  19.808  0.00  0.00    +0.000 A 
ATOM     14  C   UNL     1       2.941   7.056  18.804  0.00  0.00    +0.000 A 
ATOM     15  C   UNL     1       2.863   7.558  17.497  0.00  0.00    +0.000 A 
ATOM     16  C   UNL     1       2.138   8.720  17.230  0.00  0.00    +0.000 A 
ATOM     17  C   UNL     1       1.457   9.367  18.260  0.00  0.00    +0.000 A 
ATOM     18  F   UNL     1       0.829  10.512  17.954  0.00  0.00    +0.000 F 
BRANCH  12  22
ATOM     19  C   UNL     1      -0.844  10.665  22.762  0.00  0.00    +0.000 A 
ATOM     20  C   UNL     1      -0.826  11.247  21.497  0.00  0.00    +0.000 A 
ATOM     21  C   UNL     1      -0.119  10.643  20.452  0.00  0.00    +0.000 A 
ATOM     22  C   UNL     1       0.625   9.465  20.653  0.00  0.00    +0.000 A 
ATOM     23  C   UNL     1       0.617   8.920  21.947  0.00  0.00    +0.000 A 
ATOM     24  C   UNL     1      -0.113   9.506  22.989  0.00  0.00    +0.000 A 
BRANCH  19  26
ATOM     25  C   UNL     1      -1.952  12.656  23.344  0.00  0.00    +0.000 C 
ATOM     26  O   UNL     1      -1.572  11.334  23.707  0.00  0.00    +0.000 OA
ENDBRANCH  19  26
ENDBRANCH  12  22
ENDBRANCH   1  14
BRANCH  11  27
ATOM     27  C   UNL     1       5.257   5.750  16.951  0.00  0.00    +0.000 C 
BRANCH  27  28
ATOM     28  C   UNL     1       6.462   6.465  17.506  0.00  0.00    +0.000 A 
ATOM     29  C   UNL     1       6.756   7.781  17.113  0.00  0.00    +0.000 A 
ATOM     30  C   UNL     1       7.793   8.490  17.726  0.00  0.00    +0.000 A 
ATOM     31  C   UNL     1       8.553   7.887  18.727  0.00  0.00    +0.000 A 
ATOM     32  C   UNL     1       8.291   6.572  19.101  0.00  0.00    +0.000 A 
ATOM     33  C   UNL     1       7.255   5.861  18.489  0.00  0.00    +0.000 A 
ENDBRANCH  27  28
ENDBRANCH  11  27
TORSDOF 5
ENDMDL
MODEL 4
REMARK VINA RESULT:      -8.3      3.884      6.953
REMARK  Name = 
REMARK  7 active torsions:
REMARK  status: ('A' for Active; 'I' for Inactive)
REMARK    1  A    between atoms: C_1  and  O_2
REMARK    2  A    between atoms: O_2  and  C_3
REMARK    3  A    between atoms: C_6  and  C_7
REMARK    4  A    between atoms: C_9  and  C_10
REMARK    5  A    between atoms: C_15  and  C_16
REMARK    6  A    between atoms: N_20  and  C_21
REMARK    7  A    between atoms: C_21  and  C_22
REMARK                            x       y       z     vdW  Elec       q    Type
REMARK                         _______ _______ _______ _____ _____    ______ ____
ROOT
ATOM      1  C   UNL     1       2.563   5.944  17.868  0.00  0.00    +0.000 C 
ATOM      2  C   UNL     1       1.896   4.564  18.107  0.00  0.00    +0.000 C 
ATOM      3  C   UNL     1       2.267   3.321  17.342  0.00  0.00    +0.000 C 
ATOM      4  C   UNL     1       2.236   2.112  17.928  0.00  0.00    +0.000 C 
ATOM      5  C   UNL     1       1.843   1.882  19.367  0.00  0.00    +0.000 C 
ATOM      6  C   UNL     1       1.299   3.147  20.088  0.00  0.00    +0.000 C 
ATOM      7  C   UNL     1       1.322   2.928  21.597  0.00  0.00    +0.000 C 
ATOM      8  C   UNL     1       2.123   4.342  19.614  0.00  0.00    +0.000 C 
ATOM      9  C   UNL     1       1.899   5.741  20.150  0.00  0.00    +0.000 C 
ATOM     10  O   UNL     1       1.605   6.038  21.293  0.00  0.00    +0.000 OA
ATOM     11  N   UNL     1       2.270   6.624  19.132  0.00  0.00    +0.000 N 
ENDROOT
BRANCH   1  14
ATOM     12  C   UNL     1       5.822   5.389  15.863  0.00  0.00    +0.000 A 
ATOM     13  C   UNL     1       4.473   5.360  16.266  0.00  0.00    +0.000 A 
ATOM     14  C   UNL     1       4.039   5.853  17.510  0.00  0.00    +0.000 A 
ATOM     15  C   UNL     1       5.005   6.331  18.406  0.00  0.00    +0.000 A 
ATOM     16  C   UNL     1       6.346   6.402  18.026  0.00  0.00    +0.000 A 
ATOM     17  C   UNL     1       6.735   5.961  16.763  0.00  0.00    +0.000 A 
ATOM     18  F   UNL     1       8.027   6.111  16.433  0.00  0.00    +0.000 F 
BRANCH  12  22
ATOM     19  C   UNL     1       7.064   3.681  12.097  0.00  0.00    +0.000 A 
ATOM     20  C   UNL     1       5.970   3.156  12.778  0.00  0.00    +0.000 A 
ATOM     21  C   UNL     1       5.545   3.730  13.980  0.00  0.00    +0.000 A 
ATOM     22  C   UNL     1       6.229   4.817  14.558  0.00  0.00    +0.000 A 
ATOM     23  C   UNL     1       7.349   5.304  13.866  0.00  0.00    +0.000 A 
ATOM     24  C   UNL     1       7.761   4.749  12.647  0.00  0.00    +0.000 A 
BRANCH  19  26
ATOM     25  C   UNL     1       7.125   1.652  10.910  0.00  0.00    +0.000 C 
ATOM     26  O   UNL     1       7.388   3.050  10.927  0.00  0.00    +0.000 OA
ENDBRANCH  19  26
ENDBRANCH  12  22
ENDBRANCH   1  14
BRANCH  11  27
ATOM     27  C   UNL     1       2.524   8.033  19.369  0.00  0.00    +0.000 C 
BRANCH  27  28
ATOM     28  C   UNL     1       1.316   8.928  19.259  0.00  0.00    +0.000 A 
ATOM     29  C   UNL     1       0.815   9.301  18.001  0.00  0.00    +0.000 A 
ATOM     30  C   UNL     1      -0.380  10.018  17.897  0.00  0.00    +0.000 A 
ATOM     31  C   UNL     1      -1.079  10.380  19.048  0.00  0.00    +0.000 A 
ATOM     32  C   UNL     1      -0.574  10.044  20.301  0.00  0.00    +0.000 A 
ATOM     33  C   UNL     1       0.621   9.327  20.408  0.00  0.00    +0.000 A 
ENDBRANCH  27  28
ENDBRANCH  11  27
TORSDOF 5
ENDMDL
MODEL 5
REMARK VINA RESULT:      -8.2      3.635      8.926
REMARK  Name = 
REMARK  7 active torsions:
REMARK  status: ('A' for Active; 'I' for Inactive)
REMARK    1  A    between atoms: C_1  and  O_2
REMARK    2  A    between atoms: O_2  and  C_3
REMARK    3  A    between atoms: C_6  and  C_7
REMARK    4  A    between atoms: C_9  and  C_10
REMARK    5  A    between atoms: C_15  and  C_16
REMARK    6  A    between atoms: N_20  and  C_21
REMARK    7  A    between atoms: C_21  and  C_22
REMARK                            x       y       z     vdW  Elec       q    Type
REMARK                         _______ _______ _______ _____ _____    ______ ____
ROOT
ATOM      1  C   UNL     1       3.557   5.832  19.886  0.00  0.00    +0.000 C 
ATOM      2  C   UNL     1       2.756   4.541  20.200  0.00  0.00    +0.000 C 
ATOM      3  C   UNL     1       1.368   4.549  20.784  0.00  0.00    +0.000 C 
ATOM      4  C   UNL     1       0.469   3.608  20.447  0.00  0.00    +0.000 C 
ATOM      5  C   UNL     1       0.747   2.485  19.478  0.00  0.00    +0.000 C 
ATOM      6  C   UNL     1       2.230   2.391  19.020  0.00  0.00    +0.000 C 
ATOM      7  C   UNL     1       2.326   1.525  17.768  0.00  0.00    +0.000 C 
ATOM      8  C   UNL     1       2.751   3.815  18.840  0.00  0.00    +0.000 C 
ATOM      9  C   UNL     1       4.155   4.106  18.352  0.00  0.00    +0.000 C 
ATOM     10  O   UNL     1       4.775   3.472  17.518  0.00  0.00    +0.000 OA
ATOM     11  N   UNL     1       4.525   5.334  18.907  0.00  0.00    +0.000 N 
ENDROOT
BRANCH   1  14
ATOM     12  C   UNL     1       1.215   8.909  19.899  0.00  0.00    +0.000 A 
ATOM     13  C   UNL     1       1.921   7.757  20.299  0.00  0.00    +0.000 A 
ATOM     14  C   UNL     1       2.688   6.986  19.408  0.00  0.00    +0.000 A 
ATOM     15  C   UNL     1       2.693   7.349  18.053  0.00  0.00    +0.000 A 
ATOM     16  C   UNL     1       2.030   8.501  17.629  0.00  0.00    +0.000 A 
ATOM     17  C   UNL     1       1.328   9.277  18.549  0.00  0.00    +0.000 A 
ATOM     18  F   UNL     1       0.763  10.405  18.093  0.00  0.00    +0.000 F 
BRANCH  12  22
ATOM     19  C   UNL     1      -1.128  11.123  22.771  0.00  0.00    +0.000 A 
ATOM     20  C   UNL     1      -0.923  11.633  21.492  0.00  0.00    +0.000 A 
ATOM     21  C   UNL     1      -0.193  10.901  20.550  0.00  0.00    +0.000 A 
ATOM     22  C   UNL     1       0.388   9.659  20.872  0.00  0.00    +0.000 A 
ATOM     23  C   UNL     1       0.194   9.187  22.180  0.00  0.00    +0.000 A 
ATOM     24  C   UNL     1      -0.560   9.904  23.119  0.00  0.00    +0.000 A 
BRANCH  19  26
ATOM     25  C   UNL     1      -3.141  12.290  23.111  0.00  0.00    +0.000 C 
ATOM     26  O   UNL     1      -1.862  11.916  23.610  0.00  0.00    +0.000 OA
ENDBRANCH  19  26
ENDBRANCH  12  22
ENDBRANCH   1  14
BRANCH  11  27
ATOM     27  C   UNL     1       5.646   6.113  18.411  0.00  0.00    +0.000 C 
BRANCH  27  28
ATOM     28  C   UNL     1       6.046   5.822  16.987  0.00  0.00    +0.000 A 
ATOM     29  C   UNL     1       7.223   5.109  16.707  0.00  0.00    +0.000 A 
ATOM     30  C   UNL     1       7.525   4.724  15.398  0.00  0.00    +0.000 A 
ATOM     31  C   UNL     1       6.661   5.058  14.356  0.00  0.00    +0.000 A 
ATOM     32  C   UNL     1       5.508   5.793  14.618  0.00  0.00    +0.000 A 
ATOM     33  C   UNL     1       5.204   6.180  15.926  0.00  0.00    +0.000 A 
ENDBRANCH  27  28
ENDBRANCH  11  27
TORSDOF 5
ENDMDL
MODEL 6
REMARK VINA RESULT:      -8.1      0.854      1.522
REMARK  Name = 
REMARK  7 active torsions:
REMARK  status: ('A' for Active; 'I' for Inactive)
REMARK    1  A    between atoms: C_1  and  O_2
REMARK    2  A    between atoms: O_2  and  C_3
REMARK    3  A    between atoms: C_6  and  C_7
REMARK    4  A    between atoms: C_9  and  C_10
REMARK    5  A    between atoms: C_15  and  C_16
REMARK    6  A    between atoms: N_20  and  C_21
REMARK    7  A    between atoms: C_21  and  C_22
REMARK                            x       y       z     vdW  Elec       q    Type
REMARK                         _______ _______ _______ _____ _____    ______ ____
ROOT
ATOM      1  C   UNL     1      -0.072  11.457  18.702  0.00  0.00    +0.000 C 
ATOM      2  C   UNL     1      -1.444  11.381  17.982  0.00  0.00    +0.000 C 
ATOM      3  C   UNL     1      -1.907  10.176  17.207  0.00  0.00    +0.000 C 
ATOM      4  C   UNL     1      -3.205   9.830  17.176  0.00  0.00    +0.000 C 
ATOM      5  C   UNL     1      -4.297  10.585  17.894  0.00  0.00    +0.000 C 
ATOM      6  C   UNL     1      -3.829  11.918  18.543  0.00  0.00    +0.000 C 
ATOM      7  C   UNL     1      -4.863  12.383  19.563  0.00  0.00    +0.000 C 
ATOM      8  C   UNL     1      -2.435  11.687  19.122  0.00  0.00    +0.000 C 
ATOM      9  C   UNL     1      -1.685  12.767  19.875  0.00  0.00    +0.000 C 
ATOM     10  O   UNL     1      -2.169  13.590  20.628  0.00  0.00    +0.000 OA
ATOM     11  N   UNL     1      -0.323  12.518  19.681  0.00  0.00    +0.000 N 
ENDROOT
BRANCH   1  14
ATOM     12  C   UNL     1       1.808   8.114  19.193  0.00  0.00    +0.000 A 
ATOM     13  C   UNL     1       1.274   9.281  18.613  0.00  0.00    +0.000 A 
ATOM     14  C   UNL     1       0.380  10.129  19.291  0.00  0.00    +0.000 A 
ATOM     15  C   UNL     1      -0.043   9.754  20.575  0.00  0.00    +0.000 A 
ATOM     16  C   UNL     1       0.490   8.620  21.190  0.00  0.00    +0.000 A 
ATOM     17  C   UNL     1       1.420   7.834  20.513  0.00  0.00    +0.000 A 
ATOM     18  F   UNL     1       1.942   6.793  21.179  0.00  0.00    +0.000 F 
BRANCH  12  22
ATOM     19  C   UNL     1       4.392   5.551  16.870  0.00  0.00    +0.000 A 
ATOM     20  C   UNL     1       4.606   6.926  16.894  0.00  0.00    +0.000 A 
ATOM     21  C   UNL     1       3.791   7.754  17.673  0.00  0.00    +0.000 A 
ATOM     22  C   UNL     1       2.713   7.235  18.416  0.00  0.00    +0.000 A 
ATOM     23  C   UNL     1       2.501   5.849  18.346  0.00  0.00    +0.000 A 
ATOM     24  C   UNL     1       3.332   5.013  17.589  0.00  0.00    +0.000 A 
BRANCH  19  26
ATOM     25  C   UNL     1       5.447   3.485  16.486  0.00  0.00    +0.000 C 
ATOM     26  O   UNL     1       5.251   4.835  16.083  0.00  0.00    +0.000 OA
ENDBRANCH  19  26
ENDBRANCH  12  22
ENDBRANCH   1  14
BRANCH  11  27
ATOM     27  C   UNL     1       0.710  13.115  20.508  0.00  0.00    +0.000 C 
BRANCH  27  28
ATOM     28  C   UNL     1       1.043  14.548  20.180  0.00  0.00    +0.000 A 
ATOM     29  C   UNL     1       1.419  14.913  18.878  0.00  0.00    +0.000 A 
ATOM     30  C   UNL     1       1.597  16.258  18.542  0.00  0.00    +0.000 A 
ATOM     31  C   UNL     1       1.415  17.248  19.506  0.00  0.00    +0.000 A 
ATOM     32  C   UNL     1       1.073  16.894  20.808  0.00  0.00    +0.000 A 
ATOM     33  C   UNL     1       0.895  15.550  21.147  0.00  0.00    +0.000 A 
ENDBRANCH  27  28
ENDBRANCH  11  27
TORSDOF 5
ENDMDL
MODEL 7
REMARK VINA RESULT:      -8.0      1.121      1.488
REMARK  Name = 
REMARK  7 active torsions:
REMARK  status: ('A' for Active; 'I' for Inactive)
REMARK    1  A    between atoms: C_1  and  O_2
REMARK    2  A    between atoms: O_2  and  C_3
REMARK    3  A    between atoms: C_6  and  C_7
REMARK    4  A    between atoms: C_9  and  C_10
REMARK    5  A    between atoms: C_15  and  C_16
REMARK    6  A    between atoms: N_20  and  C_21
REMARK    7  A    between atoms: C_21  and  C_22
REMARK                            x       y       z     vdW  Elec       q    Type
REMARK                         _______ _______ _______ _____ _____    ______ ____
ROOT
ATOM      1  C   UNL     1      -0.584  11.901  19.017  0.00  0.00    +0.000 C 
ATOM      2  C   UNL     1      -1.866  11.654  18.178  0.00  0.00    +0.000 C 
ATOM      3  C   UNL     1      -2.133  10.373  17.433  0.00  0.00    +0.000 C 
ATOM      4  C   UNL     1      -3.382   9.896  17.302  0.00  0.00    +0.000 C 
ATOM      5  C   UNL     1      -4.606  10.569  17.873  0.00  0.00    +0.000 C 
ATOM      6  C   UNL     1      -4.335  11.971  18.486  0.00  0.00    +0.000 C 
ATOM      7  C   UNL     1      -5.503  12.376  19.379  0.00  0.00    +0.000 C 
ATOM      8  C   UNL     1      -2.987  11.910  19.203  0.00  0.00    +0.000 C 
ATOM      9  C   UNL     1      -2.422  13.094  19.961  0.00  0.00    +0.000 C 
ATOM     10  O   UNL     1      -3.054  13.899  20.618  0.00  0.00    +0.000 OA
ATOM     11  N   UNL     1      -1.030  12.976  19.906  0.00  0.00    +0.000 N 
ENDROOT
BRANCH   1  14
ATOM     12  C   UNL     1       1.396   8.662  19.749  0.00  0.00    +0.000 A 
ATOM     13  C   UNL     1       0.799   9.748  19.079  0.00  0.00    +0.000 A 
ATOM     14  C   UNL     1      -0.065  10.655  19.718  0.00  0.00    +0.000 A 
ATOM     15  C   UNL     1      -0.393  10.422  21.062  0.00  0.00    +0.000 A 
ATOM     16  C   UNL     1       0.203   9.373  21.762  0.00  0.00    +0.000 A 
ATOM     17  C   UNL     1       1.103   8.528  21.115  0.00  0.00    +0.000 A 
ATOM     18  F   UNL     1       1.691   7.576  21.856  0.00  0.00    +0.000 F 
BRANCH  12  22
ATOM     19  C   UNL     1       3.995   5.931  17.644  0.00  0.00    +0.000 A 
ATOM     20  C   UNL     1       3.336   5.522  18.800  0.00  0.00    +0.000 A 
ATOM     21  C   UNL     1       2.467   6.394  19.463  0.00  0.00    +0.000 A 
ATOM     22  C   UNL     1       2.265   7.713  19.015  0.00  0.00    +0.000 A 
ATOM     23  C   UNL     1       2.970   8.109  17.866  0.00  0.00    +0.000 A 
ATOM     24  C   UNL     1       3.820   7.230  17.183  0.00  0.00    +0.000 A 
BRANCH  19  26
ATOM     25  C   UNL     1       4.304   3.669  17.080  0.00  0.00    +0.000 C 
ATOM     26  O   UNL     1       4.814   4.998  17.071  0.00  0.00    +0.000 OA
ENDBRANCH  19  26
ENDBRANCH  12  22
ENDBRANCH   1  14
BRANCH  11  27
ATOM     27  C   UNL     1      -0.145  13.712  20.791  0.00  0.00    +0.000 C 
BRANCH  27  28
ATOM     28  C   UNL     1       1.077  14.297  20.130  0.00  0.00    +0.000 A 
ATOM     29  C   UNL     1       2.349  13.751  20.371  0.00  0.00    +0.000 A 
ATOM     30  C   UNL     1       3.462  14.205  19.658  0.00  0.00    +0.000 A 
ATOM     31  C   UNL     1       3.318  15.215  18.708  0.00  0.00    +0.000 A 
ATOM     32  C   UNL     1       2.067  15.785  18.485  0.00  0.00    +0.000 A 
ATOM     33  C   UNL     1       0.953  15.333  19.197  0.00  0.00    +0.000 A 
ENDBRANCH  27  28
ENDBRANCH  11  27
TORSDOF 5
ENDMDL
MODEL 8
REMARK VINA RESULT:      -7.8      1.257      1.609
REMARK  Name = 
REMARK  7 active torsions:
REMARK  status: ('A' for Active; 'I' for Inactive)
REMARK    1  A    between atoms: C_1  and  O_2
REMARK    2  A    between atoms: O_2  and  C_3
REMARK    3  A    between atoms: C_6  and  C_7
REMARK    4  A    between atoms: C_9  and  C_10
REMARK    5  A    between atoms: C_15  and  C_16
REMARK    6  A    between atoms: N_20  and  C_21
REMARK    7  A    between atoms: C_21  and  C_22
REMARK                            x       y       z     vdW  Elec       q    Type
REMARK                         _______ _______ _______ _____ _____    ______ ____
ROOT
ATOM      1  C   UNL     1      -0.891  12.108  19.124  0.00  0.00    +0.000 C 
ATOM      2  C   UNL     1      -2.180  11.791  18.321  0.00  0.00    +0.000 C 
ATOM      3  C   UNL     1      -2.421  10.478  17.625  0.00  0.00    +0.000 C 
ATOM      4  C   UNL     1      -3.657   9.958  17.536  0.00  0.00    +0.000 C 
ATOM      5  C   UNL     1      -4.890  10.611  18.110  0.00  0.00    +0.000 C 
ATOM      6  C   UNL     1      -4.652  12.041  18.670  0.00  0.00    +0.000 C 
ATOM      7  C   UNL     1      -5.814  12.440  19.573  0.00  0.00    +0.000 C 
ATOM      8  C   UNL     1      -3.289  12.047  19.360  0.00  0.00    +0.000 C 
ATOM      9  C   UNL     1      -2.747  13.273  20.066  0.00  0.00    +0.000 C 
ATOM     10  O   UNL     1      -3.392  14.080  20.709  0.00  0.00    +0.000 OA
ATOM     11  N   UNL     1      -1.354  13.197  19.987  0.00  0.00    +0.000 N 
ENDROOT
BRANCH   1  14
ATOM     12  C   UNL     1       1.193   8.948  19.915  0.00  0.00    +0.000 A 
ATOM     13  C   UNL     1       0.548   9.993  19.225  0.00  0.00    +0.000 A 
ATOM     14  C   UNL     1      -0.319  10.903  19.856  0.00  0.00    +0.000 A 
ATOM     15  C   UNL     1      -0.598  10.715  21.217  0.00  0.00    +0.000 A 
ATOM     16  C   UNL     1       0.047   9.709  21.938  0.00  0.00    +0.000 A 
ATOM     17  C   UNL     1       0.947   8.861  21.295  0.00  0.00    +0.000 A 
ATOM     18  F   UNL     1       1.582   7.954  22.052  0.00  0.00    +0.000 F 
BRANCH  12  22
ATOM     19  C   UNL     1       3.793   6.204  17.830  0.00  0.00    +0.000 A 
ATOM     20  C   UNL     1       3.231   5.845  19.053  0.00  0.00    +0.000 A 
ATOM     21  C   UNL     1       2.361   6.719  19.712  0.00  0.00    +0.000 A 
ATOM     22  C   UNL     1       2.063   7.993  19.191  0.00  0.00    +0.000 A 
ATOM     23  C   UNL     1       2.671   8.340  17.974  0.00  0.00    +0.000 A 
ATOM     24  C   UNL     1       3.522   7.456  17.296  0.00  0.00    +0.000 A 
BRANCH  19  26
ATOM     25  C   UNL     1       5.318   5.714  16.109  0.00  0.00    +0.000 C 
ATOM     26  O   UNL     1       4.622   5.272  17.268  0.00  0.00    +0.000 OA
ENDBRANCH  19  26
ENDBRANCH  12  22
ENDBRANCH   1  14
BRANCH  11  27
ATOM     27  C   UNL     1      -0.476  13.991  20.828  0.00  0.00    +0.000 C 
BRANCH  27  28
ATOM     28  C   UNL     1       0.875  14.296  20.232  0.00  0.00    +0.000 A 
ATOM     29  C   UNL     1       1.006  15.251  19.211  0.00  0.00    +0.000 A 
ATOM     30  C   UNL     1       2.270  15.631  18.752  0.00  0.00    +0.000 A 
ATOM     31  C   UNL     1       3.414  15.052  19.300  0.00  0.00    +0.000 A 
ATOM     32  C   UNL     1       3.294  14.081  20.290  0.00  0.00    +0.000 A 
ATOM     33  C   UNL     1       2.031  13.699  20.750  0.00  0.00    +0.000 A 
ENDBRANCH  27  28
ENDBRANCH  11  27
TORSDOF 5
ENDMDL
MODEL 9
REMARK VINA RESULT:      -7.7      2.668      9.419
REMARK  Name = 
REMARK  7 active torsions:
REMARK  status: ('A' for Active; 'I' for Inactive)
REMARK    1  A    between atoms: C_1  and  O_2
REMARK    2  A    between atoms: O_2  and  C_3
REMARK    3  A    between atoms: C_6  and  C_7
REMARK    4  A    between atoms: C_9  and  C_10
REMARK    5  A    between atoms: C_15  and  C_16
REMARK    6  A    between atoms: N_20  and  C_21
REMARK    7  A    between atoms: C_21  and  C_22
REMARK                            x       y       z     vdW  Elec       q    Type
REMARK                         _______ _______ _______ _____ _____    ______ ____
ROOT
ATOM      1  C   UNL     1       3.606   6.128  17.129  0.00  0.00    +0.000 C 
ATOM      2  C   UNL     1       5.091   6.511  16.894  0.00  0.00    +0.000 C 
ATOM      3  C   UNL     1       5.627   7.905  17.089  0.00  0.00    +0.000 C 
ATOM      4  C   UNL     1       6.877   8.109  17.538  0.00  0.00    +0.000 C 
ATOM      5  C   UNL     1       7.840   7.000  17.884  0.00  0.00    +0.000 C 
ATOM      6  C   UNL     1       7.334   5.577  17.514  0.00  0.00    +0.000 C 
ATOM      7  C   UNL     1       8.159   4.530  18.256  0.00  0.00    +0.000 C 
ATOM      8  C   UNL     1       5.837   5.526  17.813  0.00  0.00    +0.000 C 
ATOM      9  C   UNL     1       5.017   4.267  17.615  0.00  0.00    +0.000 C 
ATOM     10  O   UNL     1       5.385   3.126  17.823  0.00  0.00    +0.000 OA
ATOM     11  N   UNL     1       3.714   4.680  17.326  0.00  0.00    +0.000 N 
ENDROOT
BRANCH   1  14
ATOM     12  C   UNL     1       1.610   8.793  19.094  0.00  0.00    +0.000 A 
ATOM     13  C   UNL     1       2.331   8.134  18.080  0.00  0.00    +0.000 A 
ATOM     14  C   UNL     1       2.955   6.889  18.275  0.00  0.00    +0.000 A 
ATOM     15  C   UNL     1       2.906   6.317  19.554  0.00  0.00    +0.000 A 
ATOM     16  C   UNL     1       2.174   6.928  20.573  0.00  0.00    +0.000 A 
ATOM     17  C   UNL     1       1.517   8.133  20.329  0.00  0.00    +0.000 A 
ATOM     18  F   UNL     1       0.779   8.641  21.329  0.00  0.00    +0.000 F 
BRANCH  12  22
ATOM     19  C   UNL     1      -0.161  12.677  18.445  0.00  0.00    +0.000 A 
ATOM     20  C   UNL     1       1.218  12.550  18.586  0.00  0.00    +0.000 A 
ATOM     21  C   UNL     1       1.796  11.289  18.761  0.00  0.00    +0.000 A 
ATOM     22  C   UNL     1       1.009  10.124  18.845  0.00  0.00    +0.000 A 
ATOM     23  C   UNL     1      -0.381  10.287  18.734  0.00  0.00    +0.000 A 
ATOM     24  C   UNL     1      -0.962  11.546  18.530  0.00  0.00    +0.000 A 
BRANCH  19  26
ATOM     25  C   UNL     1      -0.239  14.871  19.289  0.00  0.00    +0.000 C 
ATOM     26  O   UNL     1      -0.620  13.954  18.270  0.00  0.00    +0.000 OA
ENDBRANCH  19  26
ENDBRANCH  12  22
ENDBRANCH   1  14
BRANCH  11  27
ATOM     27  C   UNL     1       2.571   3.789  17.410  0.00  0.00    +0.000 C 
BRANCH  27  28
ATOM     28  C   UNL     1       2.207   3.348  18.805  0.00  0.00    +0.000 A 
ATOM     29  C   UNL     1       3.188   2.845  19.675  0.00  0.00    +0.000 A 
ATOM     30  C   UNL     1       2.878   2.563  21.008  0.00  0.00    +0.000 A 
ATOM     31  C   UNL     1       1.582   2.767  21.480  0.00  0.00    +0.000 A 
ATOM     32  C   UNL     1       0.594   3.234  20.618  0.00  0.00    +0.000 A 
ATOM     33  C   UNL     1       0.902   3.517  19.284  0.00  0.00    +0.000 A 
ENDBRANCH  27  28
ENDBRANCH  11  27
TORSDOF 5
ENDMDL
