MODEL 1
REMARK VINA RESULT:      -7.6      0.000      0.000
REMARK  Name = 
REMARK  7 active torsions:
REMARK  status: ('A' for Active; 'I' for Inactive)
REMARK    1  A    between atoms: C_1  and  O_2
REMARK    2  A    between atoms: O_2  and  C_3
REMARK    3  A    between atoms: C_3  and  C_5
REMARK    4  A    between atoms: C_13  and  N_14
REMARK    5  A    between atoms: C_15  and  C_17
REMARK    6  A    between atoms: C_17  and  S_18
REMARK    7  A    between atoms: S_18  and  C_19
REMARK                            x       y       z     vdW  Elec       q    Type
REMARK                         _______ _______ _______ _____ _____    ______ ____
ROOT
ATOM      1  C   UNL     1       4.677   5.583  18.161  0.00  0.00    +0.000 A 
ATOM      2  S   UNL     1       5.178   4.116  18.868  0.00  0.00    +0.000 S 
ATOM      3  C   UNL     1       3.643   3.821  19.571  0.00  0.00    +0.000 A 
ATOM      4  C   UNL     1       3.300   2.727  20.393  0.00  0.00    +0.000 A 
ATOM      5  C   UNL     1       2.017   2.654  20.929  0.00  0.00    +0.000 A 
ATOM      6  C   UNL     1       1.090   3.646  20.654  0.00  0.00    +0.000 A 
ATOM      7  C   UNL     1       1.428   4.724  19.823  0.00  0.00    +0.000 A 
ATOM      8  C   UNL     1       2.723   4.825  19.245  0.00  0.00    +0.000 A 
ATOM      9  C   UNL     1       3.333   5.834  18.399  0.00  0.00    +0.000 A 
ENDROOT
BRANCH   9  10
ATOM     10  N   UNL     1       2.724   6.984  17.881  0.00  0.00    +0.000 N 
ATOM     11  C   UNL     1       2.151   7.962  18.674  0.00  0.00    +0.000 C 
ATOM     12  O   UNL     1       2.208   8.002  19.902  0.00  0.00    +0.000 OA
ATOM     13  H   UNL     1       2.249   6.866  16.982  0.00  0.00    +0.000 HD
BRANCH  11  14
ATOM     14  C   UNL     1       1.417   9.059  17.904  0.00  0.00    +0.000 C 
BRANCH  14  15
ATOM     15  S   UNL     1       1.060  10.536  18.926  0.00  0.00    +0.000 S 
BRANCH  15  16
ATOM     16  C   UNL     1      -0.664  10.778  18.558  0.00  0.00    +0.000 A 
ATOM     17  C   UNL     1      -1.275   9.974  17.589  0.00  0.00    +0.000 A 
ATOM     18  C   UNL     1      -2.628  10.142  17.284  0.00  0.00    +0.000 A 
ATOM     19  C   UNL     1      -3.373  11.106  17.958  0.00  0.00    +0.000 A 
ATOM     20 BR   UNL     1      -5.198  11.350  17.532  0.00  0.00    +0.000 Br
ATOM     21  C   UNL     1      -2.783  11.892  18.945  0.00  0.00    +0.000 A 
ATOM     22  C   UNL     1      -1.429  11.723  19.248  0.00  0.00    +0.000 A 
ENDBRANCH  15  16
ENDBRANCH  14  15
ENDBRANCH  11  14
ENDBRANCH   9  10
BRANCH   1  23
ATOM     23  C   UNL     1       5.585   6.398  17.371  0.00  0.00    +0.000 C 
ATOM     24  O   UNL     1       6.607   6.918  17.814  0.00  0.00    +0.000 OA
BRANCH  23  26
ATOM     25  C   UNL     1       5.487   5.468  15.219  0.00  0.00    +0.000 C 
ATOM     26  O   UNL     1       5.153   6.551  16.087  0.00  0.00    +0.000 OA
ENDBRANCH  23  26
ENDBRANCH   1  23
TORSDOF 6
ENDMDL
MODEL 2
REMARK VINA RESULT:      -7.3      2.753      4.558
REMARK  Name = 
REMARK  7 active torsions:
REMARK  status: ('A' for Active; 'I' for Inactive)
REMARK    1  A    between atoms: C_1  and  O_2
REMARK    2  A    between atoms: O_2  and  C_3
REMARK    3  A    between atoms: C_3  and  C_5
REMARK    4  A    between atoms: C_13  and  N_14
REMARK    5  A    between atoms: C_15  and  C_17
REMARK    6  A    between atoms: C_17  and  S_18
REMARK    7  A    between atoms: S_18  and  C_19
REMARK                            x       y       z     vdW  Elec       q    Type
REMARK                         _______ _______ _______ _____ _____    ______ ____
ROOT
ATOM      1  C   UNL     1       2.869   4.410  18.197  0.00  0.00    +0.000 A 
ATOM      2  S   UNL     1       3.963   3.326  17.466  0.00  0.00    +0.000 S 
ATOM      3  C   UNL     1       5.176   4.523  17.287  0.00  0.00    +0.000 A 
ATOM      4  C   UNL     1       6.438   4.345  16.682  0.00  0.00    +0.000 A 
ATOM      5  C   UNL     1       7.298   5.434  16.569  0.00  0.00    +0.000 A 
ATOM      6  C   UNL     1       6.916   6.677  17.049  0.00  0.00    +0.000 A 
ATOM      7  C   UNL     1       5.669   6.847  17.666  0.00  0.00    +0.000 A 
ATOM      8  C   UNL     1       4.769   5.756  17.813  0.00  0.00    +0.000 A 
ATOM      9  C   UNL     1       3.430   5.668  18.365  0.00  0.00    +0.000 A 
ENDROOT
BRANCH   9  10
ATOM     10  N   UNL     1       2.696   6.696  18.969  0.00  0.00    +0.000 N 
ATOM     11  C   UNL     1       2.345   7.864  18.314  0.00  0.00    +0.000 C 
ATOM     12  O   UNL     1       2.525   8.087  17.118  0.00  0.00    +0.000 OA
ATOM     13  H   UNL     1       2.865   6.832  19.969  0.00  0.00    +0.000 HD
BRANCH  11  14
ATOM     14  C   UNL     1       1.669   8.913  19.198  0.00  0.00    +0.000 C 
BRANCH  14  15
ATOM     15  S   UNL     1       1.326   8.309  20.892  0.00  0.00    +0.000 S 
BRANCH  15  16
ATOM     16  C   UNL     1       0.251   9.596  21.485  0.00  0.00    +0.000 A 
ATOM     17  C   UNL     1      -0.250   9.521  22.789  0.00  0.00    +0.000 A 
ATOM     18  C   UNL     1      -1.094  10.520  23.280  0.00  0.00    +0.000 A 
ATOM     19  C   UNL     1      -1.427  11.603  22.469  0.00  0.00    +0.000 A 
ATOM     20 BR   UNL     1      -2.585  12.945  23.123  0.00  0.00    +0.000 Br
ATOM     21  C   UNL     1      -0.910  11.703  21.180  0.00  0.00    +0.000 A 
ATOM     22  C   UNL     1      -0.067  10.702  20.690  0.00  0.00    +0.000 A 
ENDBRANCH  15  16
ENDBRANCH  14  15
ENDBRANCH  11  14
ENDBRANCH   9  10
BRANCH   1  23
ATOM     23  C   UNL     1       1.544   3.988  18.617  0.00  0.00    +0.000 C 
ATOM     24  O   UNL     1       0.787   3.308  17.929  0.00  0.00    +0.000 OA
BRANCH  23  26
ATOM     25  C   UNL     1       1.651   3.641  20.936  0.00  0.00    +0.000 C 
ATOM     26  O   UNL     1       1.220   4.465  19.853  0.00  0.00    +0.000 OA
ENDBRANCH  23  26
ENDBRANCH   1  23
TORSDOF 6
ENDMDL
MODEL 3
REMARK VINA RESULT:      -7.3      0.520      1.390
REMARK  Name = 
REMARK  7 active torsions:
REMARK  status: ('A' for Active; 'I' for Inactive)
REMARK    1  A    between atoms: C_1  and  O_2
REMARK    2  A    between atoms: O_2  and  C_3
REMARK    3  A    between atoms: C_3  and  C_5
REMARK    4  A    between atoms: C_13  and  N_14
REMARK    5  A    between atoms: C_15  and  C_17
REMARK    6  A    between atoms: C_17  and  S_18
REMARK    7  A    between atoms: S_18  and  C_19
REMARK                            x       y       z     vdW  Elec       q    Type
REMARK                         _______ _______ _______ _____ _____    ______ ____
ROOT
ATOM      1  C   UNL     1       4.622   5.780  17.889  0.00  0.00    +0.000 A 
ATOM      2  S   UNL     1       5.209   4.309  18.519  0.00  0.00    +0.000 S 
ATOM      3  C   UNL     1       3.758   3.988  19.372  0.00  0.00    +0.000 A 
ATOM      4  C   UNL     1       3.513   2.878  20.209  0.00  0.00    +0.000 A 
ATOM      5  C   UNL     1       2.294   2.784  20.875  0.00  0.00    +0.000 A 
ATOM      6  C   UNL     1       1.333   3.769  20.712  0.00  0.00    +0.000 A 
ATOM      7  C   UNL     1       1.572   4.861  19.866  0.00  0.00    +0.000 A 
ATOM      8  C   UNL     1       2.799   4.985  19.158  0.00  0.00    +0.000 A 
ATOM      9  C   UNL     1       3.307   6.012  18.269  0.00  0.00    +0.000 A 
ENDROOT
BRANCH   9  10
ATOM     10  N   UNL     1       2.637   7.162  17.834  0.00  0.00    +0.000 N 
ATOM     11  C   UNL     1       2.092   8.096  18.697  0.00  0.00    +0.000 C 
ATOM     12  O   UNL     1       2.229   8.095  19.920  0.00  0.00    +0.000 OA
ATOM     13  H   UNL     1       2.108   7.062  16.964  0.00  0.00    +0.000 HD
BRANCH  11  14
ATOM     14  C   UNL     1       1.282   9.199  18.017  0.00  0.00    +0.000 C 
BRANCH  14  15
ATOM     15  S   UNL     1       0.808  10.549  19.159  0.00  0.00    +0.000 S 
BRANCH  15  16
ATOM     16  C   UNL     1      -0.895  10.781  18.702  0.00  0.00    +0.000 A 
ATOM     17  C   UNL     1      -1.657  11.744  19.372  0.00  0.00    +0.000 A 
ATOM     18  C   UNL     1      -2.996  11.948  19.031  0.00  0.00    +0.000 A 
ATOM     19  C   UNL     1      -3.570  11.196  18.008  0.00  0.00    +0.000 A 
ATOM     20 BR   UNL     1      -5.387  11.454  17.558  0.00  0.00    +0.000 Br
ATOM     21  C   UNL     1      -2.813  10.255  17.314  0.00  0.00    +0.000 A 
ATOM     22  C   UNL     1      -1.474  10.052  17.659  0.00  0.00    +0.000 A 
ENDBRANCH  15  16
ENDBRANCH  14  15
ENDBRANCH  11  14
ENDBRANCH   9  10
BRANCH   1  23
ATOM     23  C   UNL     1       5.435   6.616  17.021  0.00  0.00    +0.000 C 
ATOM     24  O   UNL     1       5.367   6.607  15.794  0.00  0.00    +0.000 OA
BRANCH  23  26
ATOM     25  C   UNL     1       7.668   6.949  17.663  0.00  0.00    +0.000 C 
ATOM     26  O   UNL     1       6.311   7.388  17.726  0.00  0.00    +0.000 OA
ENDBRANCH  23  26
ENDBRANCH   1  23
TORSDOF 6
ENDMDL
MODEL 4
REMARK VINA RESULT:      -7.2      2.879      4.638
REMARK  Name = 
REMARK  7 active torsions:
REMARK  status: ('A' for Active; 'I' for Inactive)
REMARK    1  A    between atoms: C_1  and  O_2
REMARK    2  A    between atoms: O_2  and  C_3
REMARK    3  A    between atoms: C_3  and  C_5
REMARK    4  A    between atoms: C_13  and  N_14
REMARK    5  A    between atoms: C_15  and  C_17
REMARK    6  A    between atoms: C_17  and  S_18
REMARK    7  A    between atoms: S_18  and  C_19
REMARK                            x       y       z     vdW  Elec       q    Type
REMARK                         _______ _______ _______ _____ _____    ______ ____
ROOT
ATOM      1  C   UNL     1       2.837   4.380  18.284  0.00  0.00    +0.000 A 
ATOM      2  S   UNL     1       3.961   3.304  17.588  0.00  0.00    +0.000 S 
ATOM      3  C   UNL     1       5.146   4.525  17.384  0.00  0.00    +0.000 A 
ATOM      4  C   UNL     1       6.416   4.362  16.791  0.00  0.00    +0.000 A 
ATOM      5  C   UNL     1       7.250   5.468  16.654  0.00  0.00    +0.000 A 
ATOM      6  C   UNL     1       6.836   6.713  17.098  0.00  0.00    +0.000 A 
ATOM      7  C   UNL     1       5.580   6.869  17.703  0.00  0.00    +0.000 A 
ATOM      8  C   UNL     1       4.707   5.761  17.875  0.00  0.00    +0.000 A 
ATOM      9  C   UNL     1       3.367   5.655  18.421  0.00  0.00    +0.000 A 
ENDROOT
BRANCH   9  10
ATOM     10  N   UNL     1       2.604   6.681  18.993  0.00  0.00    +0.000 N 
ATOM     11  C   UNL     1       2.313   7.866  18.340  0.00  0.00    +0.000 C 
ATOM     12  O   UNL     1       2.580   8.110  17.164  0.00  0.00    +0.000 OA
ATOM     13  H   UNL     1       2.703   6.794  20.005  0.00  0.00    +0.000 HD
BRANCH  11  14
ATOM     14  C   UNL     1       1.590   8.906  19.195  0.00  0.00    +0.000 C 
BRANCH  14  15
ATOM     15  S   UNL     1       1.313   8.350  20.917  0.00  0.00    +0.000 S 
BRANCH  15  16
ATOM     16  C   UNL     1       0.458   9.762  21.582  0.00  0.00    +0.000 A 
ATOM     17  C   UNL     1       0.674  11.021  21.012  0.00  0.00    +0.000 A 
ATOM     18  C   UNL     1       0.014  12.146  21.514  0.00  0.00    +0.000 A 
ATOM     19  C   UNL     1      -0.874  12.007  22.578  0.00  0.00    +0.000 A 
ATOM     20 BR   UNL     1      -1.753  13.529  23.273  0.00  0.00    +0.000 Br
ATOM     21  C   UNL     1      -1.119  10.753  23.134  0.00  0.00    +0.000 A 
ATOM     22  C   UNL     1      -0.456   9.630  22.632  0.00  0.00    +0.000 A 
ENDBRANCH  15  16
ENDBRANCH  14  15
ENDBRANCH  11  14
ENDBRANCH   9  10
BRANCH   1  23
ATOM     23  C   UNL     1       1.520   3.937  18.707  0.00  0.00    +0.000 C 
ATOM     24  O   UNL     1       0.745   3.301  17.996  0.00  0.00    +0.000 OA
BRANCH  23  26
ATOM     25  C   UNL     1       1.418   3.337  20.974  0.00  0.00    +0.000 C 
ATOM     26  O   UNL     1       1.226   4.340  19.976  0.00  0.00    +0.000 OA
ENDBRANCH  23  26
ENDBRANCH   1  23
TORSDOF 6
ENDMDL
MODEL 5
REMARK VINA RESULT:      -7.2      5.538      7.722
REMARK  Name = 
REMARK  7 active torsions:
REMARK  status: ('A' for Active; 'I' for Inactive)
REMARK    1  A    between atoms: C_1  and  O_2
REMARK    2  A    between atoms: O_2  and  C_3
REMARK    3  A    between atoms: C_3  and  C_5
REMARK    4  A    between atoms: C_13  and  N_14
REMARK    5  A    between atoms: C_15  and  C_17
REMARK    6  A    between atoms: C_17  and  S_18
REMARK    7  A    between atoms: S_18  and  C_19
REMARK                            x       y       z     vdW  Elec       q    Type
REMARK                         _______ _______ _______ _____ _____    ______ ____
ROOT
ATOM      1  C   UNL     1       5.720   5.023  15.901  0.00  0.00    +0.000 A 
ATOM      2  S   UNL     1       4.599   3.759  16.126  0.00  0.00    +0.000 S 
ATOM      3  C   UNL     1       3.825   4.552  17.433  0.00  0.00    +0.000 A 
ATOM      4  C   UNL     1       2.752   4.045  18.197  0.00  0.00    +0.000 A 
ATOM      5  C   UNL     1       2.263   4.794  19.264  0.00  0.00    +0.000 A 
ATOM      6  C   UNL     1       2.824   6.024  19.568  0.00  0.00    +0.000 A 
ATOM      7  C   UNL     1       3.879   6.533  18.796  0.00  0.00    +0.000 A 
ATOM      8  C   UNL     1       4.396   5.805  17.690  0.00  0.00    +0.000 A 
ATOM      9  C   UNL     1       5.484   6.078  16.770  0.00  0.00    +0.000 A 
ENDROOT
BRANCH   9  10
ATOM     10  N   UNL     1       6.288   7.224  16.728  0.00  0.00    +0.000 N 
ATOM     11  C   UNL     1       7.300   7.476  17.638  0.00  0.00    +0.000 C 
ATOM     12  O   UNL     1       7.688   6.691  18.501  0.00  0.00    +0.000 OA
ATOM     13  H   UNL     1       5.827   8.074  16.394  0.00  0.00    +0.000 HD
BRANCH  11  14
ATOM     14  C   UNL     1       7.958   8.849  17.497  0.00  0.00    +0.000 C 
BRANCH  14  15
ATOM     15  S   UNL     1       8.885   9.355  18.993  0.00  0.00    +0.000 S 
BRANCH  15  16
ATOM     16  C   UNL     1       9.530  10.925  18.460  0.00  0.00    +0.000 A 
ATOM     17  C   UNL     1      10.900  11.179  18.586  0.00  0.00    +0.000 A 
ATOM     18  C   UNL     1      11.432  12.403  18.174  0.00  0.00    +0.000 A 
ATOM     19  C   UNL     1      10.594  13.369  17.622  0.00  0.00    +0.000 A 
ATOM     20 BR   UNL     1      11.308  15.034  17.082  0.00  0.00    +0.000 Br
ATOM     21  C   UNL     1       9.233  13.116  17.464  0.00  0.00    +0.000 A 
ATOM     22  C   UNL     1       8.703  11.892  17.879  0.00  0.00    +0.000 A 
ENDBRANCH  15  16
ENDBRANCH  14  15
ENDBRANCH  11  14
ENDBRANCH   9  10
BRANCH   1  23
ATOM     23  C   UNL     1       6.742   4.961  14.869  0.00  0.00    +0.000 C 
ATOM     24  O   UNL     1       7.799   5.586  14.907  0.00  0.00    +0.000 OA
BRANCH  23  26
ATOM     25  C   UNL     1       7.150   4.328  12.646  0.00  0.00    +0.000 C 
ATOM     26  O   UNL     1       6.376   4.154  13.832  0.00  0.00    +0.000 OA
ENDBRANCH  23  26
ENDBRANCH   1  23
TORSDOF 6
ENDMDL
MODEL 6
REMARK VINA RESULT:      -7.2      1.733      3.603
REMARK  Name = 
REMARK  7 active torsions:
REMARK  status: ('A' for Active; 'I' for Inactive)
REMARK    1  A    between atoms: C_1  and  O_2
REMARK    2  A    between atoms: O_2  and  C_3
REMARK    3  A    between atoms: C_3  and  C_5
REMARK    4  A    between atoms: C_13  and  N_14
REMARK    5  A    between atoms: C_15  and  C_17
REMARK    6  A    between atoms: C_17  and  S_18
REMARK    7  A    between atoms: S_18  and  C_19
REMARK                            x       y       z     vdW  Elec       q    Type
REMARK                         _______ _______ _______ _____ _____    ______ ____
ROOT
ATOM      1  C   UNL     1       3.140   4.838  18.156  0.00  0.00    +0.000 A 
ATOM      2  S   UNL     1       4.380   3.738  18.550  0.00  0.00    +0.000 S 
ATOM      3  C   UNL     1       5.620   4.885  18.259  0.00  0.00    +0.000 A 
ATOM      4  C   UNL     1       7.008   4.652  18.355  0.00  0.00    +0.000 A 
ATOM      5  C   UNL     1       7.893   5.679  18.038  0.00  0.00    +0.000 A 
ATOM      6  C   UNL     1       7.412   6.915  17.637  0.00  0.00    +0.000 A 
ATOM      7  C   UNL     1       6.032   7.149  17.560  0.00  0.00    +0.000 A 
ATOM      8  C   UNL     1       5.097   6.130  17.889  0.00  0.00    +0.000 A 
ATOM      9  C   UNL     1       3.647   6.096  17.859  0.00  0.00    +0.000 A 
ENDROOT
BRANCH   9  10
ATOM     10  N   UNL     1       2.783   7.147  17.529  0.00  0.00    +0.000 N 
ATOM     11  C   UNL     1       2.114   7.905  18.474  0.00  0.00    +0.000 C 
ATOM     12  O   UNL     1       2.282   7.831  19.690  0.00  0.00    +0.000 OA
ATOM     13  H   UNL     1       2.254   7.029  16.662  0.00  0.00    +0.000 HD
BRANCH  11  14
ATOM     14  C   UNL     1       1.113   8.906  17.898  0.00  0.00    +0.000 C 
BRANCH  14  15
ATOM     15  S   UNL     1       0.798  10.326  19.011  0.00  0.00    +0.000 S 
BRANCH  15  16
ATOM     16  C   UNL     1      -0.884  10.713  18.577  0.00  0.00    +0.000 A 
ATOM     17  C   UNL     1      -1.488  10.034  17.513  0.00  0.00    +0.000 A 
ATOM     18  C   UNL     1      -2.808  10.318  17.153  0.00  0.00    +0.000 A 
ATOM     19  C   UNL     1      -3.528  11.273  17.868  0.00  0.00    +0.000 A 
ATOM     20 BR   UNL     1      -5.307  11.674  17.370  0.00  0.00    +0.000 Br
ATOM     21  C   UNL     1      -2.946  11.934  18.947  0.00  0.00    +0.000 A 
ATOM     22  C   UNL     1      -1.625  11.650  19.304  0.00  0.00    +0.000 A 
ENDBRANCH  15  16
ENDBRANCH  14  15
ENDBRANCH  11  14
ENDBRANCH   9  10
BRANCH   1  23
ATOM     23  C   UNL     1       1.739   4.455  18.197  0.00  0.00    +0.000 C 
ATOM     24  O   UNL     1       1.038   4.295  17.201  0.00  0.00    +0.000 OA
BRANCH  23  26
ATOM     25  C   UNL     1       0.827   3.015  19.812  0.00  0.00    +0.000 C 
ATOM     26  O   UNL     1       1.279   4.327  19.475  0.00  0.00    +0.000 OA
ENDBRANCH  23  26
ENDBRANCH   1  23
TORSDOF 6
ENDMDL
MODEL 7
REMARK VINA RESULT:      -7.0      3.736      8.503
REMARK  Name = 
REMARK  7 active torsions:
REMARK  status: ('A' for Active; 'I' for Inactive)
REMARK    1  A    between atoms: C_1  and  O_2
REMARK    2  A    between atoms: O_2  and  C_3
REMARK    3  A    between atoms: C_3  and  C_5
REMARK    4  A    between atoms: C_13  and  N_14
REMARK    5  A    between atoms: C_15  and  C_17
REMARK    6  A    between atoms: C_17  and  S_18
REMARK    7  A    between atoms: S_18  and  C_19
REMARK                            x       y       z     vdW  Elec       q    Type
REMARK                         _______ _______ _______ _____ _____    ______ ____
ROOT
ATOM      1  C   UNL     1      -1.033  11.542  20.427  0.00  0.00    +0.000 A 
ATOM      2  S   UNL     1      -2.393  12.535  20.165  0.00  0.00    +0.000 S 
ATOM      3  C   UNL     1      -2.865  11.679  18.757  0.00  0.00    +0.000 A 
ATOM      4  C   UNL     1      -3.964  11.983  17.927  0.00  0.00    +0.000 A 
ATOM      5  C   UNL     1      -4.188  11.218  16.786  0.00  0.00    +0.000 A 
ATOM      6  C   UNL     1      -3.339  10.168  16.474  0.00  0.00    +0.000 A 
ATOM      7  C   UNL     1      -2.258   9.857  17.310  0.00  0.00    +0.000 A 
ATOM      8  C   UNL     1      -2.005  10.606  18.491  0.00  0.00    +0.000 A 
ATOM      9  C   UNL     1      -0.956  10.521  19.490  0.00  0.00    +0.000 A 
ENDROOT
BRANCH   9  10
ATOM     10  N   UNL     1       0.083   9.584  19.547  0.00  0.00    +0.000 N 
ATOM     11  C   UNL     1       1.229   9.673  18.777  0.00  0.00    +0.000 C 
ATOM     12  O   UNL     1       1.525  10.622  18.054  0.00  0.00    +0.000 OA
ATOM     13  H   UNL     1      -0.203   8.620  19.733  0.00  0.00    +0.000 HD
BRANCH  11  14
ATOM     14  C   UNL     1       2.169   8.472  18.890  0.00  0.00    +0.000 C 
BRANCH  14  15
ATOM     15  S   UNL     1       1.897   7.490  20.411  0.00  0.00    +0.000 S 
BRANCH  15  16
ATOM     16  C   UNL     1       2.338   5.866  19.834  0.00  0.00    +0.000 A 
ATOM     17  C   UNL     1       1.880   4.745  20.534  0.00  0.00    +0.000 A 
ATOM     18  C   UNL     1       2.210   3.458  20.101  0.00  0.00    +0.000 A 
ATOM     19  C   UNL     1       2.990   3.294  18.958  0.00  0.00    +0.000 A 
ATOM     20 BR   UNL     1       3.456   1.556  18.382  0.00  0.00    +0.000 Br
ATOM     21  C   UNL     1       3.427   4.403  18.237  0.00  0.00    +0.000 A 
ATOM     22  C   UNL     1       3.097   5.688  18.673  0.00  0.00    +0.000 A 
ENDBRANCH  15  16
ENDBRANCH  14  15
ENDBRANCH  11  14
ENDBRANCH   9  10
BRANCH   1  23
ATOM     23  C   UNL     1      -0.133  11.762  21.547  0.00  0.00    +0.000 C 
ATOM     24  O   UNL     1       0.319  12.860  21.863  0.00  0.00    +0.000 OA
BRANCH  23  26
ATOM     25  C   UNL     1      -0.736  10.226  23.217  0.00  0.00    +0.000 C 
ATOM     26  O   UNL     1       0.181  10.600  22.188  0.00  0.00    +0.000 OA
ENDBRANCH  23  26
ENDBRANCH   1  23
TORSDOF 6
ENDMDL
MODEL 8
REMARK VINA RESULT:      -7.0      1.658      3.786
REMARK  Name = 
REMARK  7 active torsions:
REMARK  status: ('A' for Active; 'I' for Inactive)
REMARK    1  A    between atoms: C_1  and  O_2
REMARK    2  A    between atoms: O_2  and  C_3
REMARK    3  A    between atoms: C_3  and  C_5
REMARK    4  A    between atoms: C_13  and  N_14
REMARK    5  A    between atoms: C_15  and  C_17
REMARK    6  A    between atoms: C_17  and  S_18
REMARK    7  A    between atoms: S_18  and  C_19
REMARK                            x       y       z     vdW  Elec       q    Type
REMARK                         _______ _______ _______ _____ _____    ______ ____
ROOT
ATOM      1  C   UNL     1       2.721   4.356  18.738  0.00  0.00    +0.000 A 
ATOM      2  S   UNL     1       3.743   3.263  17.920  0.00  0.00    +0.000 S 
ATOM      3  C   UNL     1       4.846   4.492  17.462  0.00  0.00    +0.000 A 
ATOM      4  C   UNL     1       6.005   4.319  16.676  0.00  0.00    +0.000 A 
ATOM      5  C   UNL     1       6.777   5.430  16.348  0.00  0.00    +0.000 A 
ATOM      6  C   UNL     1       6.410   6.690  16.794  0.00  0.00    +0.000 A 
ATOM      7  C   UNL     1       5.268   6.856  17.590  0.00  0.00    +0.000 A 
ATOM      8  C   UNL     1       4.462   5.744  17.958  0.00  0.00    +0.000 A 
ATOM      9  C   UNL     1       3.234   5.645  18.723  0.00  0.00    +0.000 A 
ENDROOT
BRANCH   9  10
ATOM     10  N   UNL     1       2.550   6.686  19.362  0.00  0.00    +0.000 N 
ATOM     11  C   UNL     1       2.019   7.772  18.688  0.00  0.00    +0.000 C 
ATOM     12  O   UNL     1       1.978   7.896  17.465  0.00  0.00    +0.000 OA
ATOM     13  H   UNL     1       2.878   6.919  20.303  0.00  0.00    +0.000 HD
BRANCH  11  14
ATOM     14  C   UNL     1       1.439   8.862  19.589  0.00  0.00    +0.000 C 
BRANCH  14  15
ATOM     15  S   UNL     1       1.414  10.511  18.794  0.00  0.00    +0.000 S 
BRANCH  15  16
ATOM     16  C   UNL     1      -0.333  10.721  18.532  0.00  0.00    +0.000 A 
ATOM     17  C   UNL     1      -0.996   9.873  17.638  0.00  0.00    +0.000 A 
ATOM     18  C   UNL     1      -2.367  10.015  17.416  0.00  0.00    +0.000 A 
ATOM     19  C   UNL     1      -3.079  10.998  18.099  0.00  0.00    +0.000 A 
ATOM     20 BR   UNL     1      -4.931  11.207  17.785  0.00  0.00    +0.000 Br
ATOM     21  C   UNL     1      -2.435  11.829  19.014  0.00  0.00    +0.000 A 
ATOM     22  C   UNL     1      -1.063  11.686  19.233  0.00  0.00    +0.000 A 
ENDBRANCH  15  16
ENDBRANCH  14  15
ENDBRANCH  11  14
ENDBRANCH   9  10
BRANCH   1  23
ATOM     23  C   UNL     1       1.503   3.913  19.395  0.00  0.00    +0.000 C 
ATOM     24  O   UNL     1       0.636   3.232  18.853  0.00  0.00    +0.000 OA
BRANCH  23  26
ATOM     25  C   UNL     1       2.126   3.592  21.635  0.00  0.00    +0.000 C 
ATOM     26  O   UNL     1       1.414   4.374  20.675  0.00  0.00    +0.000 OA
ENDBRANCH  23  26
ENDBRANCH   1  23
TORSDOF 6
ENDMDL
MODEL 9
REMARK VINA RESULT:      -7.0      1.680      3.662
REMARK  Name = 
REMARK  7 active torsions:
REMARK  status: ('A' for Active; 'I' for Inactive)
REMARK    1  A    between atoms: C_1  and  O_2
REMARK    2  A    between atoms: O_2  and  C_3
REMARK    3  A    between atoms: C_3  and  C_5
REMARK    4  A    between atoms: C_13  and  N_14
REMARK    5  A    between atoms: C_15  and  C_17
REMARK    6  A    between atoms: C_17  and  S_18
REMARK    7  A    between atoms: S_18  and  C_19
REMARK                            x       y       z     vdW  Elec       q    Type
REMARK                         _______ _______ _______ _____ _____    ______ ____
ROOT
ATOM      1  C   UNL     1       3.293   4.445  19.754  0.00  0.00    +0.000 A 
ATOM      2  S   UNL     1       4.403   3.315  19.124  0.00  0.00    +0.000 S 
ATOM      3  C   UNL     1       5.287   4.515  18.277  0.00  0.00    +0.000 A 
ATOM      4  C   UNL     1       6.404   4.292  17.444  0.00  0.00    +0.000 A 
ATOM      5  C   UNL     1       6.986   5.371  16.784  0.00  0.00    +0.000 A 
ATOM      6  C   UNL     1       6.473   6.648  16.948  0.00  0.00    +0.000 A 
ATOM      7  C   UNL     1       5.374   6.868  17.791  0.00  0.00    +0.000 A 
ATOM      8  C   UNL     1       4.762   5.795  18.493  0.00  0.00    +0.000 A 
ATOM      9  C   UNL     1       3.614   5.742  19.379  0.00  0.00    +0.000 A 
ENDROOT
BRANCH   9  10
ATOM     10  N   UNL     1       2.832   6.819  19.814  0.00  0.00    +0.000 N 
ATOM     11  C   UNL     1       2.115   7.633  18.955  0.00  0.00    +0.000 C 
ATOM     12  O   UNL     1       1.982   7.445  17.747  0.00  0.00    +0.000 OA
ATOM     13  H   UNL     1       3.181   7.314  20.638  0.00  0.00    +0.000 HD
BRANCH  11  14
ATOM     14  C   UNL     1       1.445   8.834  19.623  0.00  0.00    +0.000 C 
BRANCH  14  15
ATOM     15  S   UNL     1       1.457  10.335  18.575  0.00  0.00    +0.000 S 
BRANCH  15  16
ATOM     16  C   UNL     1      -0.290  10.631  18.411  0.00  0.00    +0.000 A 
ATOM     17  C   UNL     1      -1.055   9.777  17.609  0.00  0.00    +0.000 A 
ATOM     18  C   UNL     1      -2.429   9.986  17.465  0.00  0.00    +0.000 A 
ATOM     19  C   UNL     1      -3.040  11.044  18.135  0.00  0.00    +0.000 A 
ATOM     20 BR   UNL     1      -4.894  11.343  17.925  0.00  0.00    +0.000 Br
ATOM     21  C   UNL     1      -2.293  11.883  18.959  0.00  0.00    +0.000 A 
ATOM     22  C   UNL     1      -0.919  11.673  19.100  0.00  0.00    +0.000 A 
ENDBRANCH  15  16
ENDBRANCH  14  15
ENDBRANCH  11  14
ENDBRANCH   9  10
BRANCH   1  23
ATOM     23  C   UNL     1       2.196   4.037  20.616  0.00  0.00    +0.000 C 
ATOM     24  O   UNL     1       2.336   3.659  21.777  0.00  0.00    +0.000 OA
BRANCH  23  26
ATOM     25  C   UNL     1       0.651   2.894  19.269  0.00  0.00    +0.000 C 
ATOM     26  O   UNL     1       0.994   4.086  19.975  0.00  0.00    +0.000 OA
ENDBRANCH  23  26
ENDBRANCH   1  23
TORSDOF 6
ENDMDL
