MODEL 1
REMARK VINA RESULT:      -7.2      0.000      0.000
REMARK  Name = 
REMARK  5 active torsions:
REMARK  status: ('A' for Active; 'I' for Inactive)
REMARK    1  A    between atoms: C_1  and  C_2
REMARK    2  A    between atoms: C_2  and  C_3
REMARK    3  A    between atoms: C_2  and  C_4
REMARK    4  A    between atoms: C_2  and  C_5
REMARK    5  A    between atoms: C_16  and  C_18
REMARK                            x       y       z     vdW  Elec       q    Type
REMARK                         _______ _______ _______ _____ _____    ______ ____
ROOT
ATOM      1  C   UNL     1       3.963   5.858  17.635  0.00  0.00    +0.000 A 
ATOM      2  C   UNL     1       3.526   7.163  17.552  0.00  0.00    +0.000 A 
ATOM      3  C   UNL     1       2.624   7.316  18.635  0.00  0.00    +0.000 A 
ATOM      4  N   UNL     1       2.050   8.529  18.994  0.00  0.00    +0.000 N 
ATOM      5  C   UNL     1       1.438   8.740  20.204  0.00  0.00    +0.000 C 
ATOM      6  O   UNL     1       1.253   7.865  21.048  0.00  0.00    +0.000 OA
ATOM      7  N   UNL     1       1.053  10.049  20.469  0.00  0.00    +0.000 N 
ATOM      8  C   UNL     1       1.031  11.190  19.547  0.00  0.00    +0.000 C 
ATOM      9  C   UNL     1      -0.258  11.296  18.744  0.00  0.00    +0.000 C 
ATOM     10  C   UNL     1      -1.576  11.412  19.523  0.00  0.00    +0.000 C 
ATOM     11  N   UNL     1      -1.479  11.642  20.969  0.00  0.00    +0.000 N 
ATOM     12  C   UNL     1      -1.800  12.903  21.462  0.00  0.00    +0.000 C 
ATOM     13  O   UNL     1      -2.084  13.807  20.668  0.00  0.00    +0.000 OA
ATOM     14  C   UNL     1      -1.061  10.472  21.753  0.00  0.00    +0.000 C 
ATOM     15  C   UNL     1       0.465  10.317  21.791  0.00  0.00    +0.000 C 
ATOM     16  N   UNL     1       2.456   6.148  19.260  0.00  0.00    +0.000 NA
ATOM     17  O   UNL     1       3.299   5.247  18.652  0.00  0.00    +0.000 OA
ATOM     18  H   UNL     1       2.298   9.309  18.416  0.00  0.00    +0.000 HD
ENDROOT
BRANCH  12  19
ATOM     19  C   UNL     1      -1.924  13.170  22.986  0.00  0.00    +0.000 C 
ATOM     20  C   UNL     1      -3.149  12.424  23.565  0.00  0.00    +0.000 C 
ATOM     21  C   UNL     1      -4.470  13.089  23.157  0.00  0.00    +0.000 C 
ATOM     22  N   UNL     1      -4.535  14.505  23.522  0.00  0.00    +0.000 NA
ATOM     23  C   UNL     1      -3.375  15.259  23.055  0.00  0.00    +0.000 C 
ATOM     24  C   UNL     1      -2.046  14.622  23.456  0.00  0.00    +0.000 C 
ATOM     25  H   UNL     1      -4.625  14.591  24.532  0.00  0.00    +0.000 HD
ENDBRANCH  12  19
BRANCH   1  27
ATOM     26  C   UNL     1       4.486   3.637  16.683  0.00  0.00    +0.000 C 
ATOM     27  C   UNL     1       5.028   5.056  16.937  0.00  0.00    +0.000 C 
ATOM     28  C   UNL     1       6.290   4.963  17.814  0.00  0.00    +0.000 C 
ATOM     29  C   UNL     1       5.418   5.693  15.591  0.00  0.00    +0.000 C 
ENDBRANCH   1  27
TORSDOF 2
ENDMDL
MODEL 2
REMARK VINA RESULT:      -7.1      3.277      9.466
REMARK  Name = 
REMARK  5 active torsions:
REMARK  status: ('A' for Active; 'I' for Inactive)
REMARK    1  A    between atoms: C_1  and  C_2
REMARK    2  A    between atoms: C_2  and  C_3
REMARK    3  A    between atoms: C_2  and  C_4
REMARK    4  A    between atoms: C_2  and  C_5
REMARK    5  A    between atoms: C_16  and  C_18
REMARK                            x       y       z     vdW  Elec       q    Type
REMARK                         _______ _______ _______ _____ _____    ______ ____
ROOT
ATOM      1  C   UNL     1       0.728  15.197  20.060  0.00  0.00    +0.000 A 
ATOM      2  C   UNL     1       0.689  14.113  19.209  0.00  0.00    +0.000 A 
ATOM      3  C   UNL     1       1.056  13.004  20.011  0.00  0.00    +0.000 A 
ATOM      4  N   UNL     1       1.018  11.688  19.570  0.00  0.00    +0.000 N 
ATOM      5  C   UNL     1       1.068  10.611  20.420  0.00  0.00    +0.000 C 
ATOM      6  O   UNL     1       1.243  10.694  21.634  0.00  0.00    +0.000 OA
ATOM      7  N   UNL     1       0.863   9.366  19.834  0.00  0.00    +0.000 N 
ATOM      8  C   UNL     1       0.804   9.038  18.405  0.00  0.00    +0.000 C 
ATOM      9  C   UNL     1       2.169   8.764  17.789  0.00  0.00    +0.000 C 
ATOM     10  C   UNL     1       3.016   7.640  18.403  0.00  0.00    +0.000 C 
ATOM     11  N   UNL     1       2.359   6.767  19.382  0.00  0.00    +0.000 N 
ATOM     12  C   UNL     1       2.037   5.468  19.000  0.00  0.00    +0.000 C 
ATOM     13  O   UNL     1       2.245   5.112  17.835  0.00  0.00    +0.000 OA
ATOM     14  C   UNL     1       2.129   7.379  20.697  0.00  0.00    +0.000 C 
ATOM     15  C   UNL     1       0.834   8.202  20.733  0.00  0.00    +0.000 C 
ATOM     16  N   UNL     1       1.392  13.417  21.237  0.00  0.00    +0.000 NA
ATOM     17  O   UNL     1       1.172  14.774  21.273  0.00  0.00    +0.000 OA
ATOM     18  H   UNL     1       0.729  11.562  18.619  0.00  0.00    +0.000 HD
ENDROOT
BRANCH  12  19
ATOM     19  C   UNL     1       1.534   4.422  20.031  0.00  0.00    +0.000 C 
ATOM     20  C   UNL     1       2.725   3.626  20.614  0.00  0.00    +0.000 C 
ATOM     21  C   UNL     1       3.295   2.623  19.603  0.00  0.00    +0.000 C 
ATOM     22  N   UNL     1       2.287   1.698  19.085  0.00  0.00    +0.000 NA
ATOM     23  C   UNL     1       1.106   2.383  18.570  0.00  0.00    +0.000 C 
ATOM     24  C   UNL     1       0.513   3.381  19.562  0.00  0.00    +0.000 C 
ATOM     25  H   UNL     1       2.020   1.042  19.817  0.00  0.00    +0.000 HD
ENDBRANCH  12  19
BRANCH   1  27
ATOM     26  C   UNL     1      -0.662  16.781  18.767  0.00  0.00    +0.000 C 
ATOM     27  C   UNL     1       0.311  16.639  19.952  0.00  0.00    +0.000 C 
ATOM     28  C   UNL     1       1.538  17.535  19.706  0.00  0.00    +0.000 C 
ATOM     29  C   UNL     1      -0.390  17.117  21.237  0.00  0.00    +0.000 C 
ENDBRANCH   1  27
TORSDOF 2
ENDMDL
MODEL 3
REMARK VINA RESULT:      -7.0      3.095      9.514
REMARK  Name = 
REMARK  5 active torsions:
REMARK  status: ('A' for Active; 'I' for Inactive)
REMARK    1  A    between atoms: C_1  and  C_2
REMARK    2  A    between atoms: C_2  and  C_3
REMARK    3  A    between atoms: C_2  and  C_4
REMARK    4  A    between atoms: C_2  and  C_5
REMARK    5  A    between atoms: C_16  and  C_18
REMARK                            x       y       z     vdW  Elec       q    Type
REMARK                         _______ _______ _______ _____ _____    ______ ____
ROOT
ATOM      1  C   UNL     1       0.240  15.136  20.013  0.00  0.00    +0.000 A 
ATOM      2  C   UNL     1       0.219  14.036  19.183  0.00  0.00    +0.000 A 
ATOM      3  C   UNL     1       0.708  12.968  19.978  0.00  0.00    +0.000 A 
ATOM      4  N   UNL     1       0.729  11.644  19.560  0.00  0.00    +0.000 N 
ATOM      5  C   UNL     1       0.901  10.589  20.422  0.00  0.00    +0.000 C 
ATOM      6  O   UNL     1       1.146  10.707  21.621  0.00  0.00    +0.000 OA
ATOM      7  N   UNL     1       0.743   9.323  19.870  0.00  0.00    +0.000 N 
ATOM      8  C   UNL     1       0.617   8.964  18.453  0.00  0.00    +0.000 C 
ATOM      9  C   UNL     1       1.955   8.766  17.755  0.00  0.00    +0.000 C 
ATOM     10  C   UNL     1       2.911   7.712  18.331  0.00  0.00    +0.000 C 
ATOM     11  N   UNL     1       2.374   6.817  19.364  0.00  0.00    +0.000 N 
ATOM     12  C   UNL     1       2.116   5.493  19.024  0.00  0.00    +0.000 C 
ATOM     13  O   UNL     1       2.273   5.128  17.853  0.00  0.00    +0.000 OA
ATOM     14  C   UNL     1       2.187   7.439  20.681  0.00  0.00    +0.000 C 
ATOM     15  C   UNL     1       0.847   8.177  20.787  0.00  0.00    +0.000 C 
ATOM     16  N   UNL     1       1.091  13.425  21.173  0.00  0.00    +0.000 NA
ATOM     17  O   UNL     1       0.785  14.766  21.202  0.00  0.00    +0.000 OA
ATOM     18  H   UNL     1       0.390  11.481  18.632  0.00  0.00    +0.000 HD
ENDROOT
BRANCH  12  19
ATOM     19  C   UNL     1       1.747   4.437  20.100  0.00  0.00    +0.000 C 
ATOM     20  C   UNL     1       2.979   3.567  20.443  0.00  0.00    +0.000 C 
ATOM     21  C   UNL     1       3.311   2.574  19.322  0.00  0.00    +0.000 C 
ATOM     22  N   UNL     1       2.181   1.714  18.967  0.00  0.00    +0.000 NA
ATOM     23  C   UNL     1       0.965   2.471  18.687  0.00  0.00    +0.000 C 
ATOM     24  C   UNL     1       0.608   3.461  19.793  0.00  0.00    +0.000 C 
ATOM     25  H   UNL     1       2.013   1.047  19.718  0.00  0.00    +0.000 HD
ENDBRANCH  12  19
BRANCH   1  27
ATOM     26  C   UNL     1       0.732  17.490  20.589  0.00  0.00    +0.000 C 
ATOM     27  C   UNL     1      -0.277  16.546  19.910  0.00  0.00    +0.000 C 
ATOM     28  C   UNL     1      -1.638  16.670  20.618  0.00  0.00    +0.000 C 
ATOM     29  C   UNL     1      -0.454  16.971  18.440  0.00  0.00    +0.000 C 
ENDBRANCH   1  27
TORSDOF 2
ENDMDL
MODEL 4
REMARK VINA RESULT:      -7.0      0.557      1.003
REMARK  Name = 
REMARK  5 active torsions:
REMARK  status: ('A' for Active; 'I' for Inactive)
REMARK    1  A    between atoms: C_1  and  C_2
REMARK    2  A    between atoms: C_2  and  C_3
REMARK    3  A    between atoms: C_2  and  C_4
REMARK    4  A    between atoms: C_2  and  C_5
REMARK    5  A    between atoms: C_16  and  C_18
REMARK                            x       y       z     vdW  Elec       q    Type
REMARK                         _______ _______ _______ _____ _____    ______ ____
ROOT
ATOM      1  C   UNL     1       3.647   5.721  18.143  0.00  0.00    +0.000 A 
ATOM      2  C   UNL     1       3.270   7.040  18.002  0.00  0.00    +0.000 A 
ATOM      3  C   UNL     1       2.377   7.283  19.076  0.00  0.00    +0.000 A 
ATOM      4  N   UNL     1       1.860   8.536  19.380  0.00  0.00    +0.000 N 
ATOM      5  C   UNL     1       1.261   8.828  20.579  0.00  0.00    +0.000 C 
ATOM      6  O   UNL     1       1.038   8.002  21.461  0.00  0.00    +0.000 OA
ATOM      7  N   UNL     1       0.937  10.165  20.785  0.00  0.00    +0.000 N 
ATOM      8  C   UNL     1       0.966  11.262  19.812  0.00  0.00    +0.000 C 
ATOM      9  C   UNL     1      -0.318  11.392  19.005  0.00  0.00    +0.000 C 
ATOM     10  C   UNL     1      -1.628  11.603  19.777  0.00  0.00    +0.000 C 
ATOM     11  N   UNL     1      -1.518  11.893  21.212  0.00  0.00    +0.000 N 
ATOM     12  C   UNL     1      -1.780  13.189  21.647  0.00  0.00    +0.000 C 
ATOM     13  O   UNL     1      -2.024  14.068  20.813  0.00  0.00    +0.000 OA
ATOM     14  C   UNL     1      -1.153  10.742  22.047  0.00  0.00    +0.000 C 
ATOM     15  C   UNL     1       0.364  10.519  22.093  0.00  0.00    +0.000 C 
ATOM     16  N   UNL     1       2.157   6.153  19.753  0.00  0.00    +0.000 NA
ATOM     17  O   UNL     1       2.957   5.188  19.187  0.00  0.00    +0.000 OA
ATOM     18  H   UNL     1       2.143   9.277  18.768  0.00  0.00    +0.000 HD
ENDROOT
BRANCH  12  19
ATOM     19  C   UNL     1      -1.889  13.530  23.157  0.00  0.00    +0.000 C 
ATOM     20  C   UNL     1      -3.256  13.068  23.715  0.00  0.00    +0.000 C 
ATOM     21  C   UNL     1      -4.402  13.971  23.243  0.00  0.00    +0.000 C 
ATOM     22  N   UNL     1      -4.188  15.383  23.564  0.00  0.00    +0.000 NA
ATOM     23  C   UNL     1      -2.887  15.870  23.115  0.00  0.00    +0.000 C 
ATOM     24  C   UNL     1      -1.727  14.992  23.580  0.00  0.00    +0.000 C 
ATOM     25  H   UNL     1      -4.286  15.522  24.568  0.00  0.00    +0.000 HD
ENDBRANCH  12  19
BRANCH   1  27
ATOM     26  C   UNL     1       5.049   5.458  16.124  0.00  0.00    +0.000 C 
ATOM     27  C   UNL     1       4.672   4.840  17.483  0.00  0.00    +0.000 C 
ATOM     28  C   UNL     1       4.099   3.430  17.253  0.00  0.00    +0.000 C 
ATOM     29  C   UNL     1       5.941   4.713  18.347  0.00  0.00    +0.000 C 
ENDBRANCH   1  27
TORSDOF 2
ENDMDL
MODEL 5
REMARK VINA RESULT:      -6.9      1.537      2.408
REMARK  Name = 
REMARK  5 active torsions:
REMARK  status: ('A' for Active; 'I' for Inactive)
REMARK    1  A    between atoms: C_1  and  C_2
REMARK    2  A    between atoms: C_2  and  C_3
REMARK    3  A    between atoms: C_2  and  C_4
REMARK    4  A    between atoms: C_2  and  C_5
REMARK    5  A    between atoms: C_16  and  C_18
REMARK                            x       y       z     vdW  Elec       q    Type
REMARK                         _______ _______ _______ _____ _____    ______ ____
ROOT
ATOM      1  C   UNL     1       3.957   6.125  17.862  0.00  0.00    +0.000 A 
ATOM      2  C   UNL     1       3.055   6.290  18.892  0.00  0.00    +0.000 A 
ATOM      3  C   UNL     1       2.558   7.609  18.737  0.00  0.00    +0.000 A 
ATOM      4  N   UNL     1       1.524   8.137  19.498  0.00  0.00    +0.000 N 
ATOM      5  C   UNL     1       0.842   9.275  19.149  0.00  0.00    +0.000 C 
ATOM      6  O   UNL     1       1.131   9.989  18.190  0.00  0.00    +0.000 OA
ATOM      7  N   UNL     1      -0.264   9.584  19.932  0.00  0.00    +0.000 N 
ATOM      8  C   UNL     1      -0.675   8.969  21.199  0.00  0.00    +0.000 C 
ATOM      9  C   UNL     1      -0.017   9.597  22.420  0.00  0.00    +0.000 C 
ATOM     10  C   UNL     1      -0.220  11.102  22.645  0.00  0.00    +0.000 C 
ATOM     11  N   UNL     1      -1.215  11.775  21.802  0.00  0.00    +0.000 N 
ATOM     12  C   UNL     1      -2.421  12.159  22.379  0.00  0.00    +0.000 C 
ATOM     13  O   UNL     1      -2.649  11.860  23.557  0.00  0.00    +0.000 OA
ATOM     14  C   UNL     1      -0.799  11.989  20.410  0.00  0.00    +0.000 C 
ATOM     15  C   UNL     1      -1.059  10.757  19.533  0.00  0.00    +0.000 C 
ATOM     16  N   UNL     1       3.198   8.225  17.739  0.00  0.00    +0.000 NA
ATOM     17  O   UNL     1       4.053   7.301  17.184  0.00  0.00    +0.000 OA
ATOM     18  H   UNL     1       1.151   7.526  20.199  0.00  0.00    +0.000 HD
ENDROOT
BRANCH  12  19
ATOM     19  C   UNL     1      -3.435  13.054  21.618  0.00  0.00    +0.000 C 
ATOM     20  C   UNL     1      -3.123  14.549  21.863  0.00  0.00    +0.000 C 
ATOM     21  C   UNL     1      -3.516  14.993  23.277  0.00  0.00    +0.000 C 
ATOM     22  N   UNL     1      -4.919  14.723  23.592  0.00  0.00    +0.000 NA
ATOM     23  C   UNL     1      -5.299  13.338  23.327  0.00  0.00    +0.000 C 
ATOM     24  C   UNL     1      -4.925  12.874  21.921  0.00  0.00    +0.000 C 
ATOM     25  H   UNL     1      -5.514  15.356  23.061  0.00  0.00    +0.000 HD
ENDBRANCH  12  19
BRANCH   1  27
ATOM     26  C   UNL     1       5.864   4.612  18.292  0.00  0.00    +0.000 C 
ATOM     27  C   UNL     1       4.728   4.956  17.311  0.00  0.00    +0.000 C 
ATOM     28  C   UNL     1       5.335   5.312  15.942  0.00  0.00    +0.000 C 
ATOM     29  C   UNL     1       3.824   3.722  17.135  0.00  0.00    +0.000 C 
ENDBRANCH   1  27
TORSDOF 2
ENDMDL
MODEL 6
REMARK VINA RESULT:      -6.9      1.295      1.720
REMARK  Name = 
REMARK  5 active torsions:
REMARK  status: ('A' for Active; 'I' for Inactive)
REMARK    1  A    between atoms: C_1  and  C_2
REMARK    2  A    between atoms: C_2  and  C_3
REMARK    3  A    between atoms: C_2  and  C_4
REMARK    4  A    between atoms: C_2  and  C_5
REMARK    5  A    between atoms: C_16  and  C_18
REMARK                            x       y       z     vdW  Elec       q    Type
REMARK                         _______ _______ _______ _____ _____    ______ ____
ROOT
ATOM      1  C   UNL     1       3.084   6.650  18.547  0.00  0.00    +0.000 A 
ATOM      2  C   UNL     1       2.544   7.891  18.288  0.00  0.00    +0.000 A 
ATOM      3  C   UNL     1       1.763   8.197  19.431  0.00  0.00    +0.000 A 
ATOM      4  N   UNL     1       1.145   9.424  19.636  0.00  0.00    +0.000 N 
ATOM      5  C   UNL     1       0.663   9.825  20.857  0.00  0.00    +0.000 C 
ATOM      6  O   UNL     1       0.642   9.115  21.861  0.00  0.00    +0.000 OA
ATOM      7  N   UNL     1       0.214  11.139  20.930  0.00  0.00    +0.000 N 
ATOM      8  C   UNL     1      -0.000  12.083  19.827  0.00  0.00    +0.000 C 
ATOM      9  C   UNL     1      -1.377  11.970  19.189  0.00  0.00    +0.000 C 
ATOM     10  C   UNL     1      -2.602  12.160  20.095  0.00  0.00    +0.000 C 
ATOM     11  N   UNL     1      -2.356  12.662  21.453  0.00  0.00    +0.000 N 
ATOM     12  C   UNL     1      -2.712  13.974  21.748  0.00  0.00    +0.000 C 
ATOM     13  O   UNL     1      -3.153  14.698  20.847  0.00  0.00    +0.000 OA
ATOM     14  C   UNL     1      -1.765  11.683  22.374  0.00  0.00    +0.000 C 
ATOM     15  C   UNL     1      -0.237  11.619  22.245  0.00  0.00    +0.000 C 
ATOM     16  N   UNL     1       1.757   7.159  20.272  0.00  0.00    +0.000 NA
ATOM     17  O   UNL     1       2.589   6.206  19.734  0.00  0.00    +0.000 OA
ATOM     18  H   UNL     1       1.266  10.094  18.901  0.00  0.00    +0.000 HD
ENDROOT
BRANCH  12  19
ATOM     19  C   UNL     1      -2.680  14.515  23.202  0.00  0.00    +0.000 C 
ATOM     20  C   UNL     1      -3.525  13.612  24.131  0.00  0.00    +0.000 C 
ATOM     21  C   UNL     1      -5.030  13.802  23.901  0.00  0.00    +0.000 C 
ATOM     22  N   UNL     1      -5.459  15.194  24.041  0.00  0.00    +0.000 NA
ATOM     23  C   UNL     1      -4.660  16.112  23.233  0.00  0.00    +0.000 C 
ATOM     24  C   UNL     1      -3.158  15.949  23.450  0.00  0.00    +0.000 C 
ATOM     25  H   UNL     1      -5.417  15.465  25.021  0.00  0.00    +0.000 HD
ENDBRANCH  12  19
BRANCH   1  27
ATOM     26  C   UNL     1       4.729   6.577  16.702  0.00  0.00    +0.000 C 
ATOM     27  C   UNL     1       4.119   5.788  17.876  0.00  0.00    +0.000 C 
ATOM     28  C   UNL     1       3.474   4.500  17.334  0.00  0.00    +0.000 C 
ATOM     29  C   UNL     1       5.241   5.395  18.854  0.00  0.00    +0.000 C 
ENDBRANCH   1  27
TORSDOF 2
ENDMDL
MODEL 7
REMARK VINA RESULT:      -6.8      1.709      2.484
REMARK  Name = 
REMARK  5 active torsions:
REMARK  status: ('A' for Active; 'I' for Inactive)
REMARK    1  A    between atoms: C_1  and  C_2
REMARK    2  A    between atoms: C_2  and  C_3
REMARK    3  A    between atoms: C_2  and  C_4
REMARK    4  A    between atoms: C_2  and  C_5
REMARK    5  A    between atoms: C_16  and  C_18
REMARK                            x       y       z     vdW  Elec       q    Type
REMARK                         _______ _______ _______ _____ _____    ______ ____
ROOT
ATOM      1  C   UNL     1       4.068   5.793  18.331  0.00  0.00    +0.000 A 
ATOM      2  C   UNL     1       3.187   6.205  19.307  0.00  0.00    +0.000 A 
ATOM      3  C   UNL     1       2.700   7.458  18.856  0.00  0.00    +0.000 A 
ATOM      4  N   UNL     1       1.684   8.163  19.489  0.00  0.00    +0.000 N 
ATOM      5  C   UNL     1       1.007   9.197  18.893  0.00  0.00    +0.000 C 
ATOM      6  O   UNL     1       1.286   9.664  17.791  0.00  0.00    +0.000 OA
ATOM      7  N   UNL     1      -0.083   9.695  19.600  0.00  0.00    +0.000 N 
ATOM      8  C   UNL     1      -0.476   9.398  20.981  0.00  0.00    +0.000 C 
ATOM      9  C   UNL     1       0.208  10.284  22.012  0.00  0.00    +0.000 C 
ATOM     10  C   UNL     1       0.024  11.802  21.883  0.00  0.00    +0.000 C 
ATOM     11  N   UNL     1      -0.979  12.274  20.921  0.00  0.00    +0.000 N 
ATOM     12  C   UNL     1      -2.171  12.798  21.410  0.00  0.00    +0.000 C 
ATOM     13  O   UNL     1      -2.382  12.784  22.629  0.00  0.00    +0.000 OA
ATOM     14  C   UNL     1      -0.586  12.152  19.511  0.00  0.00    +0.000 C 
ATOM     15  C   UNL     1      -0.872  10.753  18.950  0.00  0.00    +0.000 C 
ATOM     16  N   UNL     1       3.328   7.816  17.733  0.00  0.00    +0.000 NA
ATOM     17  O   UNL     1       4.164   6.776  17.396  0.00  0.00    +0.000 OA
ATOM     18  H   UNL     1       1.318   7.737  20.318  0.00  0.00    +0.000 HD
ENDROOT
BRANCH  12  19
ATOM     19  C   UNL     1      -3.190  13.504  20.476  0.00  0.00    +0.000 C 
ATOM     20  C   UNL     1      -3.694  14.815  21.125  0.00  0.00    +0.000 C 
ATOM     21  C   UNL     1      -4.665  14.547  22.281  0.00  0.00    +0.000 C 
ATOM     22  N   UNL     1      -5.806  13.718  21.890  0.00  0.00    +0.000 NA
ATOM     23  C   UNL     1      -5.401  12.487  21.217  0.00  0.00    +0.000 C 
ATOM     24  C   UNL     1      -4.441  12.728  20.055  0.00  0.00    +0.000 C 
ATOM     25  H   UNL     1      -6.427  14.257  21.289  0.00  0.00    +0.000 HD
ENDBRANCH  12  19
BRANCH   1  27
ATOM     26  C   UNL     1       4.432   4.012  16.654  0.00  0.00    +0.000 C 
ATOM     27  C   UNL     1       4.819   4.517  18.056  0.00  0.00    +0.000 C 
ATOM     28  C   UNL     1       4.450   3.445  19.097  0.00  0.00    +0.000 C 
ATOM     29  C   UNL     1       6.341   4.741  18.108  0.00  0.00    +0.000 C 
ENDBRANCH   1  27
TORSDOF 2
ENDMDL
MODEL 8
REMARK VINA RESULT:      -6.7      1.015      1.580
REMARK  Name = 
REMARK  5 active torsions:
REMARK  status: ('A' for Active; 'I' for Inactive)
REMARK    1  A    between atoms: C_1  and  C_2
REMARK    2  A    between atoms: C_2  and  C_3
REMARK    3  A    between atoms: C_2  and  C_4
REMARK    4  A    between atoms: C_2  and  C_5
REMARK    5  A    between atoms: C_16  and  C_18
REMARK                            x       y       z     vdW  Elec       q    Type
REMARK                         _______ _______ _______ _____ _____    ______ ____
ROOT
ATOM      1  C   UNL     1       3.743   5.965  17.964  0.00  0.00    +0.000 A 
ATOM      2  C   UNL     1       3.285   7.250  17.766  0.00  0.00    +0.000 A 
ATOM      3  C   UNL     1       2.408   7.498  18.852  0.00  0.00    +0.000 A 
ATOM      4  N   UNL     1       1.825   8.733  19.106  0.00  0.00    +0.000 N 
ATOM      5  C   UNL     1       1.242   9.054  20.306  0.00  0.00    +0.000 C 
ATOM      6  O   UNL     1       1.092   8.264  21.236  0.00  0.00    +0.000 OA
ATOM      7  N   UNL     1       0.844  10.378  20.452  0.00  0.00    +0.000 N 
ATOM      8  C   UNL     1       0.780  11.421  19.423  0.00  0.00    +0.000 C 
ATOM      9  C   UNL     1      -0.530  11.432  18.649  0.00  0.00    +0.000 C 
ATOM     10  C   UNL     1      -1.829  11.607  19.448  0.00  0.00    +0.000 C 
ATOM     11  N   UNL     1      -1.698  11.980  20.862  0.00  0.00    +0.000 N 
ATOM     12  C   UNL     1      -2.025  13.279  21.237  0.00  0.00    +0.000 C 
ATOM     13  O   UNL     1      -2.344  14.097  20.366  0.00  0.00    +0.000 OA
ATOM     14  C   UNL     1      -1.242  10.899  21.745  0.00  0.00    +0.000 C 
ATOM     15  C   UNL     1       0.286  10.767  21.756  0.00  0.00    +0.000 C 
ATOM     16  N   UNL     1       2.275   6.395  19.594  0.00  0.00    +0.000 NA
ATOM     17  O   UNL     1       3.115   5.449  19.054  0.00  0.00    +0.000 OA
ATOM     18  H   UNL     1       2.046   9.455  18.448  0.00  0.00    +0.000 HD
ENDROOT
BRANCH  12  19
ATOM     19  C   UNL     1      -2.114  13.694  22.730  0.00  0.00    +0.000 C 
ATOM     20  C   UNL     1      -3.195  14.783  22.923  0.00  0.00    +0.000 C 
ATOM     21  C   UNL     1      -2.740  16.145  22.384  0.00  0.00    +0.000 C 
ATOM     22  N   UNL     1      -1.475  16.596  22.965  0.00  0.00    +0.000 NA
ATOM     23  C   UNL     1      -0.422  15.589  22.869  0.00  0.00    +0.000 C 
ATOM     24  C   UNL     1      -0.847  14.225  23.408  0.00  0.00    +0.000 C 
ATOM     25  H   UNL     1      -1.622  16.857  23.938  0.00  0.00    +0.000 HD
ENDBRANCH  12  19
BRANCH   1  27
ATOM     26  C   UNL     1       5.289   5.816  16.040  0.00  0.00    +0.000 C 
ATOM     27  C   UNL     1       4.802   5.112  17.320  0.00  0.00    +0.000 C 
ATOM     28  C   UNL     1       4.226   3.733  16.948  0.00  0.00    +0.000 C 
ATOM     29  C   UNL     1       6.000   4.898  18.264  0.00  0.00    +0.000 C 
ENDBRANCH   1  27
TORSDOF 2
ENDMDL
