MODEL 1
REMARK VINA RESULT:      -7.6      0.000      0.000
REMARK  Name = 
REMARK  14 active torsions:
REMARK  status: ('A' for Active; 'I' for Inactive)
REMARK    1  A    between atoms: C_1  and  C_2
REMARK    2  A    between atoms: C_2  and  C_3
REMARK    3  A    between atoms: C_2  and  C_14
REMARK    4  A    between atoms: C_3  and  C_4
REMARK    5  A    between atoms: C_7  and  C_8
REMARK    6  A    between atoms: C_8  and  C_9
REMARK    7  A    between atoms: C_8  and  C_10
REMARK    8  A    between atoms: C_8  and  C_11
REMARK    9  A    between atoms: N_16  and  C_17
REMARK   10  A    between atoms: C_17  and  C_18
REMARK   11  A    between atoms: C_17  and  C_19
REMARK   12  A    between atoms: C_22  and  N_23
REMARK   13  A    between atoms: N_23  and  S_24
REMARK   14  A    between atoms: S_24  and  C_25
REMARK                            x       y       z     vdW  Elec       q    Type
REMARK                         _______ _______ _______ _____ _____    ______ ____
ROOT
ATOM      1  C   UNL     1       0.299  10.651  21.285  0.00  0.00    +0.000 C 
ATOM      2  O   UNL     1       1.298  11.357  21.427  0.00  0.00    +0.000 OA
ATOM      3  N   UNL     1       0.222   9.711  20.280  0.00  0.00    +0.000 N 
ATOM      4  H   UNL     1      -0.560   9.077  20.244  0.00  0.00    +0.000 HD
ENDROOT
BRANCH   1   6
ATOM      5  C   UNL     1      -0.642   9.657  23.389  0.00  0.00    +0.000 C 
ATOM      6  C   UNL     1      -0.870  10.701  22.286  0.00  0.00    +0.000 C 
BRANCH   6   7
ATOM      7  C   UNL     1      -1.201  12.077  22.900  0.00  0.00    +0.000 C 
BRANCH   7   8
ATOM      8  C   UNL     1      -2.659  12.462  22.871  0.00  0.00    +0.000 A 
ATOM      9  C   UNL     1      -3.395  12.471  24.056  0.00  0.00    +0.000 A 
ATOM     10  C   UNL     1      -4.767  12.708  24.041  0.00  0.00    +0.000 A 
ATOM     11  C   UNL     1      -5.458  12.947  22.843  0.00  0.00    +0.000 A 
ATOM     12  C   UNL     1      -4.696  13.005  21.662  0.00  0.00    +0.000 A 
ATOM     13  C   UNL     1      -3.319  12.774  21.675  0.00  0.00    +0.000 A 
BRANCH  11  14
ATOM     14  C   UNL     1      -6.984  13.133  22.807  0.00  0.00    +0.000 C 
ATOM     15  C   UNL     1      -7.749  11.822  22.515  0.00  0.00    +0.000 C 
ATOM     16  C   UNL     1      -7.486  13.677  24.159  0.00  0.00    +0.000 C 
ATOM     17  C   UNL     1      -7.366  14.134  21.690  0.00  0.00    +0.000 C 
ENDBRANCH  11  14
ENDBRANCH   7   8
ENDBRANCH   6   7
ENDBRANCH   1   6
BRANCH   3  18
ATOM     18  C   UNL     1       1.298   9.544  19.300  0.00  0.00    +0.000 C 
ATOM     19  C   UNL     1       0.826   9.946  17.901  0.00  0.00    +0.000 C 
BRANCH  18  20
ATOM     20  C   UNL     1       1.856   8.126  19.277  0.00  0.00    +0.000 A 
ATOM     21  C   UNL     1       2.553   7.674  18.141  0.00  0.00    +0.000 A 
ATOM     22  C   UNL     1       3.062   6.372  18.081  0.00  0.00    +0.000 A 
ATOM     23  C   UNL     1       2.869   5.502  19.149  0.00  0.00    +0.000 A 
ATOM     24  C   UNL     1       2.170   5.925  20.277  0.00  0.00    +0.000 A 
ATOM     25  C   UNL     1       1.660   7.227  20.337  0.00  0.00    +0.000 A 
BRANCH  23  26
ATOM     26  N   UNL     1       3.430   4.193  19.089  0.00  0.00    +0.000 N 
ATOM     27  H   UNL     1       4.365   4.139  18.680  0.00  0.00    +0.000 HD
BRANCH  26  28
ATOM     28  S   UNL     1       2.471   2.970  18.415  0.00  0.00    +0.000 S 
ATOM     29  C   UNL     1       1.490   2.478  19.816  0.00  0.00    +0.000 C 
ATOM     30  O   UNL     1       1.607   3.514  17.392  0.00  0.00    +0.000 OA
ATOM     31  O   UNL     1       3.387   1.887  18.121  0.00  0.00    +0.000 OA
ENDBRANCH  26  28
ENDBRANCH  23  26
ENDBRANCH  18  20
ENDBRANCH   3  18
TORSDOF 8
ENDMDL
MODEL 2
REMARK VINA RESULT:      -7.5      3.611     10.801
REMARK  Name = 
REMARK  14 active torsions:
REMARK  status: ('A' for Active; 'I' for Inactive)
REMARK    1  A    between atoms: C_1  and  C_2
REMARK    2  A    between atoms: C_2  and  C_3
REMARK    3  A    between atoms: C_2  and  C_14
REMARK    4  A    between atoms: C_3  and  C_4
REMARK    5  A    between atoms: C_7  and  C_8
REMARK    6  A    between atoms: C_8  and  C_9
REMARK    7  A    between atoms: C_8  and  C_10
REMARK    8  A    between atoms: C_8  and  C_11
REMARK    9  A    between atoms: N_16  and  C_17
REMARK   10  A    between atoms: C_17  and  C_18
REMARK   11  A    between atoms: C_17  and  C_19
REMARK   12  A    between atoms: C_22  and  N_23
REMARK   13  A    between atoms: N_23  and  S_24
REMARK   14  A    between atoms: S_24  and  C_25
REMARK                            x       y       z     vdW  Elec       q    Type
REMARK                         _______ _______ _______ _____ _____    ______ ____
ROOT
ATOM      1  C   UNL     1       1.969   4.788  19.961  0.00  0.00    +0.000 C 
ATOM      2  O   UNL     1       1.091   4.467  19.159  0.00  0.00    +0.000 OA
ATOM      3  N   UNL     1       2.408   6.090  20.061  0.00  0.00    +0.000 N 
ATOM      4  H   UNL     1       3.053   6.348  20.790  0.00  0.00    +0.000 HD
ENDROOT
BRANCH   1   6
ATOM      5  C   UNL     1       1.404   2.904  21.522  0.00  0.00    +0.000 C 
ATOM      6  C   UNL     1       2.542   3.777  20.971  0.00  0.00    +0.000 C 
BRANCH   6   7
ATOM      7  C   UNL     1       3.715   2.900  20.487  0.00  0.00    +0.000 C 
BRANCH   7   8
ATOM      8  C   UNL     1       4.335   3.316  19.177  0.00  0.00    +0.000 A 
ATOM      9  C   UNL     1       5.379   4.240  19.168  0.00  0.00    +0.000 A 
ATOM     10  C   UNL     1       5.888   4.729  17.968  0.00  0.00    +0.000 A 
ATOM     11  C   UNL     1       5.377   4.313  16.729  0.00  0.00    +0.000 A 
ATOM     12  C   UNL     1       4.372   3.328  16.747  0.00  0.00    +0.000 A 
ATOM     13  C   UNL     1       3.864   2.832  17.949  0.00  0.00    +0.000 A 
BRANCH  11  14
ATOM     14  C   UNL     1       5.880   4.902  15.401  0.00  0.00    +0.000 C 
ATOM     15  C   UNL     1       7.421   4.976  15.315  0.00  0.00    +0.000 C 
ATOM     16  C   UNL     1       5.385   4.047  14.219  0.00  0.00    +0.000 C 
ATOM     17  C   UNL     1       5.351   6.346  15.232  0.00  0.00    +0.000 C 
ENDBRANCH  11  14
ENDBRANCH   7   8
ENDBRANCH   6   7
ENDBRANCH   1   6
BRANCH   3  18
ATOM     18  C   UNL     1       1.896   7.144  19.182  0.00  0.00    +0.000 C 
ATOM     19  C   UNL     1       2.942   7.536  18.136  0.00  0.00    +0.000 C 
BRANCH  18  20
ATOM     20  C   UNL     1       1.436   8.377  19.950  0.00  0.00    +0.000 A 
ATOM     21  C   UNL     1       1.222   9.584  19.260  0.00  0.00    +0.000 A 
ATOM     22  C   UNL     1       0.817  10.738  19.938  0.00  0.00    +0.000 A 
ATOM     23  C   UNL     1       0.634  10.704  21.317  0.00  0.00    +0.000 A 
ATOM     24  C   UNL     1       0.854   9.523  22.021  0.00  0.00    +0.000 A 
ATOM     25  C   UNL     1       1.259   8.368  21.343  0.00  0.00    +0.000 A 
BRANCH  23  26
ATOM     26  N   UNL     1       0.181  11.878  21.987  0.00  0.00    +0.000 N 
ATOM     27  H   UNL     1       0.586  12.033  22.913  0.00  0.00    +0.000 HD
BRANCH  26  28
ATOM     28  S   UNL     1      -1.492  12.121  22.077  0.00  0.00    +0.000 S 
ATOM     29  C   UNL     1      -1.576  13.812  22.624  0.00  0.00    +0.000 C 
ATOM     30  O   UNL     1      -2.089  12.010  20.765  0.00  0.00    +0.000 OA
ATOM     31  O   UNL     1      -1.939  11.285  23.174  0.00  0.00    +0.000 OA
ENDBRANCH  26  28
ENDBRANCH  23  26
ENDBRANCH  18  20
ENDBRANCH   3  18
TORSDOF 8
ENDMDL
MODEL 3
REMARK VINA RESULT:      -7.3      3.933     10.856
REMARK  Name = 
REMARK  14 active torsions:
REMARK  status: ('A' for Active; 'I' for Inactive)
REMARK    1  A    between atoms: C_1  and  C_2
REMARK    2  A    between atoms: C_2  and  C_3
REMARK    3  A    between atoms: C_2  and  C_14
REMARK    4  A    between atoms: C_3  and  C_4
REMARK    5  A    between atoms: C_7  and  C_8
REMARK    6  A    between atoms: C_8  and  C_9
REMARK    7  A    between atoms: C_8  and  C_10
REMARK    8  A    between atoms: C_8  and  C_11
REMARK    9  A    between atoms: N_16  and  C_17
REMARK   10  A    between atoms: C_17  and  C_18
REMARK   11  A    between atoms: C_17  and  C_19
REMARK   12  A    between atoms: C_22  and  N_23
REMARK   13  A    between atoms: N_23  and  S_24
REMARK   14  A    between atoms: S_24  and  C_25
REMARK                            x       y       z     vdW  Elec       q    Type
REMARK                         _______ _______ _______ _____ _____    ______ ____
ROOT
ATOM      1  C   UNL     1       1.946   4.833  20.041  0.00  0.00    +0.000 C 
ATOM      2  O   UNL     1       1.051   4.532  19.252  0.00  0.00    +0.000 OA
ATOM      3  N   UNL     1       2.423   6.124  20.128  0.00  0.00    +0.000 N 
ATOM      4  H   UNL     1       3.083   6.369  20.849  0.00  0.00    +0.000 HD
ENDROOT
BRANCH   1   6
ATOM      5  C   UNL     1       1.359   2.933  21.574  0.00  0.00    +0.000 C 
ATOM      6  C   UNL     1       2.504   3.813  21.052  0.00  0.00    +0.000 C 
BRANCH   6   7
ATOM      7  C   UNL     1       3.688   2.944  20.580  0.00  0.00    +0.000 C 
BRANCH   7   8
ATOM      8  C   UNL     1       4.309   3.355  19.269  0.00  0.00    +0.000 A 
ATOM      9  C   UNL     1       5.364   4.268  19.260  0.00  0.00    +0.000 A 
ATOM     10  C   UNL     1       5.877   4.753  18.061  0.00  0.00    +0.000 A 
ATOM     11  C   UNL     1       5.358   4.346  16.822  0.00  0.00    +0.000 A 
ATOM     12  C   UNL     1       4.342   3.373  16.839  0.00  0.00    +0.000 A 
ATOM     13  C   UNL     1       3.830   2.880  18.042  0.00  0.00    +0.000 A 
BRANCH  11  14
ATOM     14  C   UNL     1       5.865   4.933  15.494  0.00  0.00    +0.000 C 
ATOM     15  C   UNL     1       7.405   5.037  15.426  0.00  0.00    +0.000 C 
ATOM     16  C   UNL     1       5.401   4.057  14.314  0.00  0.00    +0.000 C 
ATOM     17  C   UNL     1       5.309   6.364  15.305  0.00  0.00    +0.000 C 
ENDBRANCH  11  14
ENDBRANCH   7   8
ENDBRANCH   6   7
ENDBRANCH   1   6
BRANCH   3  18
ATOM     18  C   UNL     1       1.929   7.186  19.249  0.00  0.00    +0.000 C 
ATOM     19  C   UNL     1       3.048   7.707  18.345  0.00  0.00    +0.000 C 
BRANCH  18  20
ATOM     20  C   UNL     1       1.297   8.339  20.018  0.00  0.00    +0.000 A 
ATOM     21  C   UNL     1       1.301   8.320  21.424  0.00  0.00    +0.000 A 
ATOM     22  C   UNL     1       0.713   9.355  22.160  0.00  0.00    +0.000 A 
ATOM     23  C   UNL     1       0.100  10.414  21.498  0.00  0.00    +0.000 A 
ATOM     24  C   UNL     1       0.072  10.445  20.106  0.00  0.00    +0.000 A 
ATOM     25  C   UNL     1       0.660   9.410  19.370  0.00  0.00    +0.000 A 
BRANCH  23  26
ATOM     26  N   UNL     1      -0.459  11.480  22.262  0.00  0.00    +0.000 N 
ATOM     27  H   UNL     1      -1.452  11.382  22.483  0.00  0.00    +0.000 HD
BRANCH  26  28
ATOM     28  S   UNL     1      -0.176  13.057  21.712  0.00  0.00    +0.000 S 
ATOM     29  C   UNL     1      -0.786  14.022  23.077  0.00  0.00    +0.000 C 
ATOM     30  O   UNL     1       1.242  13.289  21.556  0.00  0.00    +0.000 OA
ATOM     31  O   UNL     1      -1.090  13.242  20.603  0.00  0.00    +0.000 OA
ENDBRANCH  26  28
ENDBRANCH  23  26
ENDBRANCH  18  20
ENDBRANCH   3  18
TORSDOF 8
ENDMDL
MODEL 4
REMARK VINA RESULT:      -7.3      0.871      1.306
REMARK  Name = 
REMARK  14 active torsions:
REMARK  status: ('A' for Active; 'I' for Inactive)
REMARK    1  A    between atoms: C_1  and  C_2
REMARK    2  A    between atoms: C_2  and  C_3
REMARK    3  A    between atoms: C_2  and  C_14
REMARK    4  A    between atoms: C_3  and  C_4
REMARK    5  A    between atoms: C_7  and  C_8
REMARK    6  A    between atoms: C_8  and  C_9
REMARK    7  A    between atoms: C_8  and  C_10
REMARK    8  A    between atoms: C_8  and  C_11
REMARK    9  A    between atoms: N_16  and  C_17
REMARK   10  A    between atoms: C_17  and  C_18
REMARK   11  A    between atoms: C_17  and  C_19
REMARK   12  A    between atoms: C_22  and  N_23
REMARK   13  A    between atoms: N_23  and  S_24
REMARK   14  A    between atoms: S_24  and  C_25
REMARK                            x       y       z     vdW  Elec       q    Type
REMARK                         _______ _______ _______ _____ _____    ______ ____
ROOT
ATOM      1  C   UNL     1       0.478  10.451  21.267  0.00  0.00    +0.000 C 
ATOM      2  O   UNL     1       1.390  11.276  21.221  0.00  0.00    +0.000 OA
ATOM      3  N   UNL     1       0.445   9.368  20.415  0.00  0.00    +0.000 N 
ATOM      4  H   UNL     1      -0.255   8.654  20.536  0.00  0.00    +0.000 HD
ENDROOT
BRANCH   1   6
ATOM      5  C   UNL     1      -0.244   9.582  23.510  0.00  0.00    +0.000 C 
ATOM      6  C   UNL     1      -0.614  10.520  22.351  0.00  0.00    +0.000 C 
BRANCH   6   7
ATOM      7  C   UNL     1      -0.980  11.922  22.881  0.00  0.00    +0.000 C 
BRANCH   7   8
ATOM      8  C   UNL     1      -2.418  12.330  22.689  0.00  0.00    +0.000 A 
ATOM      9  C   UNL     1      -3.270  12.403  23.791  0.00  0.00    +0.000 A 
ATOM     10  C   UNL     1      -4.628  12.663  23.626  0.00  0.00    +0.000 A 
ATOM     11  C   UNL     1      -5.190  12.860  22.356  0.00  0.00    +0.000 A 
ATOM     12  C   UNL     1      -4.311  12.854  21.257  0.00  0.00    +0.000 A 
ATOM     13  C   UNL     1      -2.947  12.600  21.420  0.00  0.00    +0.000 A 
BRANCH  11  14
ATOM     14  C   UNL     1      -6.700  13.071  22.156  0.00  0.00    +0.000 C 
ATOM     15  C   UNL     1      -7.041  14.425  21.494  0.00  0.00    +0.000 C 
ATOM     16  C   UNL     1      -7.279  11.955  21.266  0.00  0.00    +0.000 C 
ATOM     17  C   UNL     1      -7.420  13.046  23.525  0.00  0.00    +0.000 C 
ENDBRANCH  11  14
ENDBRANCH   7   8
ENDBRANCH   6   7
ENDBRANCH   1   6
BRANCH   3  18
ATOM     18  C   UNL     1       1.459   9.177  19.377  0.00  0.00    +0.000 C 
ATOM     19  C   UNL     1       0.883   9.473  17.991  0.00  0.00    +0.000 C 
BRANCH  18  20
ATOM     20  C   UNL     1       2.070   7.781  19.402  0.00  0.00    +0.000 A 
ATOM     21  C   UNL     1       2.867   7.352  18.326  0.00  0.00    +0.000 A 
ATOM     22  C   UNL     1       3.427   6.070  18.310  0.00  0.00    +0.000 A 
ATOM     23  C   UNL     1       3.185   5.195  19.364  0.00  0.00    +0.000 A 
ATOM     24  C   UNL     1       2.386   5.595  20.434  0.00  0.00    +0.000 A 
ATOM     25  C   UNL     1       1.826   6.877  20.449  0.00  0.00    +0.000 A 
BRANCH  23  26
ATOM     26  N   UNL     1       3.796   3.908  19.353  0.00  0.00    +0.000 N 
ATOM     27  H   UNL     1       4.657   3.841  18.805  0.00  0.00    +0.000 HD
BRANCH  26  28
ATOM     28  S   UNL     1       2.808   2.585  18.977  0.00  0.00    +0.000 S 
ATOM     29  C   UNL     1       1.736   3.284  17.741  0.00  0.00    +0.000 C 
ATOM     30  O   UNL     1       3.591   1.522  18.388  0.00  0.00    +0.000 OA
ATOM     31  O   UNL     1       2.012   2.354  20.165  0.00  0.00    +0.000 OA
ENDBRANCH  26  28
ENDBRANCH  23  26
ENDBRANCH  18  20
ENDBRANCH   3  18
TORSDOF 8
ENDMDL
MODEL 5
REMARK VINA RESULT:      -7.3      7.597     11.172
REMARK  Name = 
REMARK  14 active torsions:
REMARK  status: ('A' for Active; 'I' for Inactive)
REMARK    1  A    between atoms: C_1  and  C_2
REMARK    2  A    between atoms: C_2  and  C_3
REMARK    3  A    between atoms: C_2  and  C_14
REMARK    4  A    between atoms: C_3  and  C_4
REMARK    5  A    between atoms: C_7  and  C_8
REMARK    6  A    between atoms: C_8  and  C_9
REMARK    7  A    between atoms: C_8  and  C_10
REMARK    8  A    between atoms: C_8  and  C_11
REMARK    9  A    between atoms: N_16  and  C_17
REMARK   10  A    between atoms: C_17  and  C_18
REMARK   11  A    between atoms: C_17  and  C_19
REMARK   12  A    between atoms: C_22  and  N_23
REMARK   13  A    between atoms: N_23  and  S_24
REMARK   14  A    between atoms: S_24  and  C_25
REMARK                            x       y       z     vdW  Elec       q    Type
REMARK                         _______ _______ _______ _____ _____    ______ ____
ROOT
ATOM      1  C   UNL     1       7.982   7.284  17.798  0.00  0.00    +0.000 C 
ATOM      2  O   UNL     1       8.180   6.585  18.792  0.00  0.00    +0.000 OA
ATOM      3  N   UNL     1       7.408   6.765  16.658  0.00  0.00    +0.000 N 
ATOM      4  H   UNL     1       7.164   7.376  15.895  0.00  0.00    +0.000 HD
ENDROOT
BRANCH   1   6
ATOM      5  C   UNL     1       6.960   9.561  17.520  0.00  0.00    +0.000 C 
ATOM      6  C   UNL     1       8.261   8.799  17.813  0.00  0.00    +0.000 C 
BRANCH   6   7
ATOM      7  C   UNL     1       8.953   9.366  19.070  0.00  0.00    +0.000 C 
BRANCH   7   8
ATOM      8  C   UNL     1       9.439  10.788  18.952  0.00  0.00    +0.000 A 
ATOM      9  C   UNL     1       8.906  11.623  17.971  0.00  0.00    +0.000 A 
ATOM     10  C   UNL     1       9.419  12.901  17.765  0.00  0.00    +0.000 A 
ATOM     11  C   UNL     1      10.485  13.397  18.531  0.00  0.00    +0.000 A 
ATOM     12  C   UNL     1      10.970  12.574  19.565  0.00  0.00    +0.000 A 
ATOM     13  C   UNL     1      10.452  11.295  19.777  0.00  0.00    +0.000 A 
BRANCH  11  14
ATOM     14  C   UNL     1      11.109  14.776  18.262  0.00  0.00    +0.000 C 
ATOM     15  C   UNL     1      10.131  15.763  17.586  0.00  0.00    +0.000 C 
ATOM     16  C   UNL     1      11.580  15.413  19.584  0.00  0.00    +0.000 C 
ATOM     17  C   UNL     1      12.324  14.627  17.315  0.00  0.00    +0.000 C 
ENDBRANCH  11  14
ENDBRANCH   7   8
ENDBRANCH   6   7
ENDBRANCH   1   6
BRANCH   3  18
ATOM     18  C   UNL     1       7.057   5.347  16.552  0.00  0.00    +0.000 C 
ATOM     19  C   UNL     1       7.337   4.822  15.142  0.00  0.00    +0.000 C 
BRANCH  18  20
ATOM     20  C   UNL     1       5.609   5.070  16.936  0.00  0.00    +0.000 A 
ATOM     21  C   UNL     1       5.002   3.868  16.530  0.00  0.00    +0.000 A 
ATOM     22  C   UNL     1       3.669   3.591  16.851  0.00  0.00    +0.000 A 
ATOM     23  C   UNL     1       2.921   4.519  17.569  0.00  0.00    +0.000 A 
ATOM     24  C   UNL     1       3.499   5.722  17.968  0.00  0.00    +0.000 A 
ATOM     25  C   UNL     1       4.832   5.999  17.647  0.00  0.00    +0.000 A 
BRANCH  23  26
ATOM     26  N   UNL     1       1.577   4.204  17.923  0.00  0.00    +0.000 N 
ATOM     27  H   UNL     1       0.964   5.010  18.064  0.00  0.00    +0.000 HD
BRANCH  26  28
ATOM     28  S   UNL     1       1.348   3.117  19.201  0.00  0.00    +0.000 S 
ATOM     29  C   UNL     1       0.984   4.223  20.546  0.00  0.00    +0.000 C 
ATOM     30  O   UNL     1       0.199   2.276  18.947  0.00  0.00    +0.000 OA
ATOM     31  O   UNL     1       2.654   2.541  19.450  0.00  0.00    +0.000 OA
ENDBRANCH  26  28
ENDBRANCH  23  26
ENDBRANCH  18  20
ENDBRANCH   3  18
TORSDOF 8
ENDMDL
MODEL 6
REMARK VINA RESULT:      -7.2      3.296     10.738
REMARK  Name = 
REMARK  14 active torsions:
REMARK  status: ('A' for Active; 'I' for Inactive)
REMARK    1  A    between atoms: C_1  and  C_2
REMARK    2  A    between atoms: C_2  and  C_3
REMARK    3  A    between atoms: C_2  and  C_14
REMARK    4  A    between atoms: C_3  and  C_4
REMARK    5  A    between atoms: C_7  and  C_8
REMARK    6  A    between atoms: C_8  and  C_9
REMARK    7  A    between atoms: C_8  and  C_10
REMARK    8  A    between atoms: C_8  and  C_11
REMARK    9  A    between atoms: N_16  and  C_17
REMARK   10  A    between atoms: C_17  and  C_18
REMARK   11  A    between atoms: C_17  and  C_19
REMARK   12  A    between atoms: C_22  and  N_23
REMARK   13  A    between atoms: N_23  and  S_24
REMARK   14  A    between atoms: S_24  and  C_25
REMARK                            x       y       z     vdW  Elec       q    Type
REMARK                         _______ _______ _______ _____ _____    ______ ____
ROOT
ATOM      1  C   UNL     1       1.936   4.751  20.000  0.00  0.00    +0.000 C 
ATOM      2  O   UNL     1       0.941   4.495  19.322  0.00  0.00    +0.000 OA
ATOM      3  N   UNL     1       2.531   5.994  19.961  0.00  0.00    +0.000 N 
ATOM      4  H   UNL     1       3.282   6.212  20.596  0.00  0.00    +0.000 HD
ENDROOT
BRANCH   1   6
ATOM      5  C   UNL     1       1.368   2.840  21.527  0.00  0.00    +0.000 C 
ATOM      6  C   UNL     1       2.504   3.736  21.011  0.00  0.00    +0.000 C 
BRANCH   6   7
ATOM      7  C   UNL     1       3.700   2.883  20.542  0.00  0.00    +0.000 C 
BRANCH   7   8
ATOM      8  C   UNL     1       4.314   3.298  19.228  0.00  0.00    +0.000 A 
ATOM      9  C   UNL     1       5.435   4.128  19.220  0.00  0.00    +0.000 A 
ATOM     10  C   UNL     1       5.948   4.620  18.023  0.00  0.00    +0.000 A 
ATOM     11  C   UNL     1       5.364   4.303  16.787  0.00  0.00    +0.000 A 
ATOM     12  C   UNL     1       4.278   3.409  16.801  0.00  0.00    +0.000 A 
ATOM     13  C   UNL     1       3.764   2.909  18.000  0.00  0.00    +0.000 A 
BRANCH  11  14
ATOM     14  C   UNL     1       5.876   4.901  15.467  0.00  0.00    +0.000 C 
ATOM     15  C   UNL     1       5.482   4.065  14.229  0.00  0.00    +0.000 C 
ATOM     16  C   UNL     1       5.310   6.321  15.272  0.00  0.00    +0.000 C 
ATOM     17  C   UNL     1       7.421   4.975  15.486  0.00  0.00    +0.000 C 
ENDBRANCH  11  14
ENDBRANCH   7   8
ENDBRANCH   6   7
ENDBRANCH   1   6
BRANCH   3  18
ATOM     18  C   UNL     1       2.045   7.050  19.072  0.00  0.00    +0.000 C 
ATOM     19  C   UNL     1       3.140   7.488  18.097  0.00  0.00    +0.000 C 
BRANCH  18  20
ATOM     20  C   UNL     1       1.508   8.257  19.832  0.00  0.00    +0.000 A 
ATOM     21  C   UNL     1       1.391   9.495  19.174  0.00  0.00    +0.000 A 
ATOM     22  C   UNL     1       0.918  10.626  19.849  0.00  0.00    +0.000 A 
ATOM     23  C   UNL     1       0.571  10.537  21.193  0.00  0.00    +0.000 A 
ATOM     24  C   UNL     1       0.693   9.323  21.867  0.00  0.00    +0.000 A 
ATOM     25  C   UNL     1       1.165   8.192  21.192  0.00  0.00    +0.000 A 
BRANCH  23  26
ATOM     26  N   UNL     1       0.053  11.688  21.855  0.00  0.00    +0.000 N 
ATOM     27  H   UNL     1      -0.042  11.601  22.869  0.00  0.00    +0.000 HD
BRANCH  26  28
ATOM     28  S   UNL     1      -1.370  12.364  21.232  0.00  0.00    +0.000 S 
ATOM     29  C   UNL     1      -2.442  12.300  22.649  0.00  0.00    +0.000 C 
ATOM     30  O   UNL     1      -1.150  13.743  20.857  0.00  0.00    +0.000 OA
ATOM     31  O   UNL     1      -1.860  11.398  20.269  0.00  0.00    +0.000 OA
ENDBRANCH  26  28
ENDBRANCH  23  26
ENDBRANCH  18  20
ENDBRANCH   3  18
TORSDOF 8
ENDMDL
MODEL 7
REMARK VINA RESULT:      -7.2      0.848      1.363
REMARK  Name = 
REMARK  14 active torsions:
REMARK  status: ('A' for Active; 'I' for Inactive)
REMARK    1  A    between atoms: C_1  and  C_2
REMARK    2  A    between atoms: C_2  and  C_3
REMARK    3  A    between atoms: C_2  and  C_14
REMARK    4  A    between atoms: C_3  and  C_4
REMARK    5  A    between atoms: C_7  and  C_8
REMARK    6  A    between atoms: C_8  and  C_9
REMARK    7  A    between atoms: C_8  and  C_10
REMARK    8  A    between atoms: C_8  and  C_11
REMARK    9  A    between atoms: N_16  and  C_17
REMARK   10  A    between atoms: C_17  and  C_18
REMARK   11  A    between atoms: C_17  and  C_19
REMARK   12  A    between atoms: C_22  and  N_23
REMARK   13  A    between atoms: N_23  and  S_24
REMARK   14  A    between atoms: S_24  and  C_25
REMARK                            x       y       z     vdW  Elec       q    Type
REMARK                         _______ _______ _______ _____ _____    ______ ____
ROOT
ATOM      1  C   UNL     1       0.263  10.598  20.962  0.00  0.00    +0.000 C 
ATOM      2  O   UNL     1       0.903  11.598  20.638  0.00  0.00    +0.000 OA
ATOM      3  N   UNL     1       0.481   9.379  20.356  0.00  0.00    +0.000 N 
ATOM      4  H   UNL     1       0.018   8.555  20.705  0.00  0.00    +0.000 HD
ENDROOT
BRANCH   1   6
ATOM      5  C   UNL     1      -0.274   9.638  23.219  0.00  0.00    +0.000 C 
ATOM      6  C   UNL     1      -0.733  10.627  22.137  0.00  0.00    +0.000 C 
BRANCH   6   7
ATOM      7  C   UNL     1      -1.040  12.006  22.754  0.00  0.00    +0.000 C 
BRANCH   7   8
ATOM      8  C   UNL     1      -2.485  12.432  22.697  0.00  0.00    +0.000 A 
ATOM      9  C   UNL     1      -3.218  12.555  23.877  0.00  0.00    +0.000 A 
ATOM     10  C   UNL     1      -4.581  12.832  23.845  0.00  0.00    +0.000 A 
ATOM     11  C   UNL     1      -5.269  12.998  22.633  0.00  0.00    +0.000 A 
ATOM     12  C   UNL     1      -4.508  12.941  21.450  0.00  0.00    +0.000 A 
ATOM     13  C   UNL     1      -3.139  12.670  21.481  0.00  0.00    +0.000 A 
BRANCH  11  14
ATOM     14  C   UNL     1      -6.788  13.227  22.583  0.00  0.00    +0.000 C 
ATOM     15  C   UNL     1      -7.386  13.024  21.172  0.00  0.00    +0.000 C 
ATOM     16  C   UNL     1      -7.505  12.255  23.539  0.00  0.00    +0.000 C 
ATOM     17  C   UNL     1      -7.115  14.679  23.005  0.00  0.00    +0.000 C 
ENDBRANCH  11  14
ENDBRANCH   7   8
ENDBRANCH   6   7
ENDBRANCH   1   6
BRANCH   3  18
ATOM     18  C   UNL     1       1.440   9.226  19.260  0.00  0.00    +0.000 C 
ATOM     19  C   UNL     1       0.783   9.540  17.915  0.00  0.00    +0.000 C 
BRANCH  18  20
ATOM     20  C   UNL     1       2.074   7.841  19.223  0.00  0.00    +0.000 A 
ATOM     21  C   UNL     1       1.926   6.981  20.326  0.00  0.00    +0.000 A 
ATOM     22  C   UNL     1       2.510   5.710  20.331  0.00  0.00    +0.000 A 
ATOM     23  C   UNL     1       3.263   5.289  19.239  0.00  0.00    +0.000 A 
ATOM     24  C   UNL     1       3.434   6.130  18.143  0.00  0.00    +0.000 A 
ATOM     25  C   UNL     1       2.849   7.402  18.138  0.00  0.00    +0.000 A 
BRANCH  23  26
ATOM     26  N   UNL     1       3.817   3.975  19.243  0.00  0.00    +0.000 N 
ATOM     27  H   UNL     1       4.584   3.826  18.583  0.00  0.00    +0.000 HD
BRANCH  26  28
ATOM     28  S   UNL     1       2.735   2.678  19.123  0.00  0.00    +0.000 S 
ATOM     29  C   UNL     1       1.434   3.392  18.142  0.00  0.00    +0.000 C 
ATOM     30  O   UNL     1       3.340   1.584  18.396  0.00  0.00    +0.000 OA
ATOM     31  O   UNL     1       2.218   2.488  20.463  0.00  0.00    +0.000 OA
ENDBRANCH  26  28
ENDBRANCH  23  26
ENDBRANCH  18  20
ENDBRANCH   3  18
TORSDOF 8
ENDMDL
MODEL 8
REMARK VINA RESULT:      -7.2      0.385      1.189
REMARK  Name = 
REMARK  14 active torsions:
REMARK  status: ('A' for Active; 'I' for Inactive)
REMARK    1  A    between atoms: C_1  and  C_2
REMARK    2  A    between atoms: C_2  and  C_3
REMARK    3  A    between atoms: C_2  and  C_14
REMARK    4  A    between atoms: C_3  and  C_4
REMARK    5  A    between atoms: C_7  and  C_8
REMARK    6  A    between atoms: C_8  and  C_9
REMARK    7  A    between atoms: C_8  and  C_10
REMARK    8  A    between atoms: C_8  and  C_11
REMARK    9  A    between atoms: N_16  and  C_17
REMARK   10  A    between atoms: C_17  and  C_18
REMARK   11  A    between atoms: C_17  and  C_19
REMARK   12  A    between atoms: C_22  and  N_23
REMARK   13  A    between atoms: N_23  and  S_24
REMARK   14  A    between atoms: S_24  and  C_25
REMARK                            x       y       z     vdW  Elec       q    Type
REMARK                         _______ _______ _______ _____ _____    ______ ____
ROOT
ATOM      1  C   UNL     1       0.542  10.598  21.187  0.00  0.00    +0.000 C 
ATOM      2  O   UNL     1       1.630  11.064  21.528  0.00  0.00    +0.000 OA
ATOM      3  N   UNL     1       0.413   9.835  20.047  0.00  0.00    +0.000 N 
ATOM      4  H   UNL     1      -0.463   9.382  19.841  0.00  0.00    +0.000 HD
ENDROOT
BRANCH   1   6
ATOM      5  C   UNL     1      -0.611   9.781  23.263  0.00  0.00    +0.000 C 
ATOM      6  C   UNL     1      -0.709  10.748  22.073  0.00  0.00    +0.000 C 
BRANCH   6   7
ATOM      7  C   UNL     1      -1.053  12.172  22.556  0.00  0.00    +0.000 C 
BRANCH   7   8
ATOM      8  C   UNL     1      -2.519  12.523  22.540  0.00  0.00    +0.000 A 
ATOM      9  C   UNL     1      -3.215  12.644  23.742  0.00  0.00    +0.000 A 
ATOM     10  C   UNL     1      -4.591  12.851  23.752  0.00  0.00    +0.000 A 
ATOM     11  C   UNL     1      -5.328  12.946  22.562  0.00  0.00    +0.000 A 
ATOM     12  C   UNL     1      -4.608  12.893  21.354  0.00  0.00    +0.000 A 
ATOM     13  C   UNL     1      -3.226  12.692  21.342  0.00  0.00    +0.000 A 
BRANCH  11  14
ATOM     14  C   UNL     1      -6.858  13.098  22.561  0.00  0.00    +0.000 C 
ATOM     15  C   UNL     1      -7.468  13.102  23.981  0.00  0.00    +0.000 C 
ATOM     16  C   UNL     1      -7.262  14.417  21.874  0.00  0.00    +0.000 C 
ATOM     17  C   UNL     1      -7.504  11.917  21.798  0.00  0.00    +0.000 C 
ENDBRANCH  11  14
ENDBRANCH   7   8
ENDBRANCH   6   7
ENDBRANCH   1   6
BRANCH   3  18
ATOM     18  C   UNL     1       1.548   9.588  19.155  0.00  0.00    +0.000 C 
ATOM     19  C   UNL     1       1.233  10.052  17.732  0.00  0.00    +0.000 C 
BRANCH  18  20
ATOM     20  C   UNL     1       1.981   8.127  19.146  0.00  0.00    +0.000 A 
ATOM     21  C   UNL     1       1.782   7.337  20.293  0.00  0.00    +0.000 A 
ATOM     22  C   UNL     1       2.185   5.998  20.323  0.00  0.00    +0.000 A 
ATOM     23  C   UNL     1       2.804   5.435  19.212  0.00  0.00    +0.000 A 
ATOM     24  C   UNL     1       3.023   6.203  18.071  0.00  0.00    +0.000 A 
ATOM     25  C   UNL     1       2.620   7.543  18.041  0.00  0.00    +0.000 A 
BRANCH  23  26
ATOM     26  N   UNL     1       3.171   4.058  19.245  0.00  0.00    +0.000 N 
ATOM     27  H   UNL     1       4.148   3.863  19.015  0.00  0.00    +0.000 HD
BRANCH  26  28
ATOM     28  S   UNL     1       2.185   2.974  18.395  0.00  0.00    +0.000 S 
ATOM     29  C   UNL     1       0.800   2.813  19.501  0.00  0.00    +0.000 C 
ATOM     30  O   UNL     1       1.741   3.565  17.152  0.00  0.00    +0.000 OA
ATOM     31  O   UNL     1       2.903   1.715  18.408  0.00  0.00    +0.000 OA
ENDBRANCH  26  28
ENDBRANCH  23  26
ENDBRANCH  18  20
ENDBRANCH   3  18
TORSDOF 8
ENDMDL
MODEL 9
REMARK VINA RESULT:      -7.2      3.862     10.312
REMARK  Name = 
REMARK  14 active torsions:
REMARK  status: ('A' for Active; 'I' for Inactive)
REMARK    1  A    between atoms: C_1  and  C_2
REMARK    2  A    between atoms: C_2  and  C_3
REMARK    3  A    between atoms: C_2  and  C_14
REMARK    4  A    between atoms: C_3  and  C_4
REMARK    5  A    between atoms: C_7  and  C_8
REMARK    6  A    between atoms: C_8  and  C_9
REMARK    7  A    between atoms: C_8  and  C_10
REMARK    8  A    between atoms: C_8  and  C_11
REMARK    9  A    between atoms: N_16  and  C_17
REMARK   10  A    between atoms: C_17  and  C_18
REMARK   11  A    between atoms: C_17  and  C_19
REMARK   12  A    between atoms: C_22  and  N_23
REMARK   13  A    between atoms: N_23  and  S_24
REMARK   14  A    between atoms: S_24  and  C_25
REMARK                            x       y       z     vdW  Elec       q    Type
REMARK                         _______ _______ _______ _____ _____    ______ ____
ROOT
ATOM      1  C   UNL     1       0.706  10.159  20.045  0.00  0.00    +0.000 C 
ATOM      2  O   UNL     1       1.429  11.153  20.105  0.00  0.00    +0.000 OA
ATOM      3  N   UNL     1      -0.222   9.886  21.027  0.00  0.00    +0.000 N 
ATOM      4  H   UNL     1      -0.870   9.124  20.908  0.00  0.00    +0.000 HD
ENDROOT
BRANCH   1   6
ATOM      5  C   UNL     1       0.086   9.953  17.621  0.00  0.00    +0.000 C 
ATOM      6  C   UNL     1       0.719   9.228  18.818  0.00  0.00    +0.000 C 
BRANCH   6   7
ATOM      7  C   UNL     1       2.079   8.615  18.425  0.00  0.00    +0.000 C 
BRANCH   7   8
ATOM      8  C   UNL     1       2.311   7.203  18.899  0.00  0.00    +0.000 A 
ATOM      9  C   UNL     1       2.864   6.263  18.029  0.00  0.00    +0.000 A 
ATOM     10  C   UNL     1       2.980   4.927  18.402  0.00  0.00    +0.000 A 
ATOM     11  C   UNL     1       2.549   4.475  19.659  0.00  0.00    +0.000 A 
ATOM     12  C   UNL     1       2.057   5.442  20.556  0.00  0.00    +0.000 A 
ATOM     13  C   UNL     1       1.946   6.784  20.185  0.00  0.00    +0.000 A 
BRANCH  11  14
ATOM     14  C   UNL     1       2.601   2.990  20.053  0.00  0.00    +0.000 C 
ATOM     15  C   UNL     1       1.677   2.101  19.190  0.00  0.00    +0.000 C 
ATOM     16  C   UNL     1       4.037   2.451  19.907  0.00  0.00    +0.000 C 
ATOM     17  C   UNL     1       2.147   2.818  21.521  0.00  0.00    +0.000 C 
ENDBRANCH  11  14
ENDBRANCH   7   8
ENDBRANCH   6   7
ENDBRANCH   1   6
BRANCH   3  18
ATOM     18  C   UNL     1      -0.354  10.731  22.216  0.00  0.00    +0.000 C 
ATOM     19  C   UNL     1      -0.294   9.889  23.492  0.00  0.00    +0.000 C 
BRANCH  18  20
ATOM     20  C   UNL     1      -1.626  11.569  22.202  0.00  0.00    +0.000 A 
ATOM     21  C   UNL     1      -2.040  12.183  21.005  0.00  0.00    +0.000 A 
ATOM     22  C   UNL     1      -3.193  12.974  20.963  0.00  0.00    +0.000 A 
ATOM     23  C   UNL     1      -3.940  13.173  22.120  0.00  0.00    +0.000 A 
ATOM     24  C   UNL     1      -3.540  12.586  23.319  0.00  0.00    +0.000 A 
ATOM     25  C   UNL     1      -2.387  11.795  23.361  0.00  0.00    +0.000 A 
BRANCH  23  26
ATOM     26  N   UNL     1      -5.134  13.948  22.051  0.00  0.00    +0.000 N 
ATOM     27  H   UNL     1      -5.454  14.333  22.943  0.00  0.00    +0.000 HD
BRANCH  26  28
ATOM     28  S   UNL     1      -6.458  13.259  21.250  0.00  0.00    +0.000 S 
ATOM     29  C   UNL     1      -7.822  14.016  22.106  0.00  0.00    +0.000 C 
ATOM     30  O   UNL     1      -6.475  13.666  19.864  0.00  0.00    +0.000 OA
ATOM     31  O   UNL     1      -6.437  11.857  21.616  0.00  0.00    +0.000 OA
ENDBRANCH  26  28
ENDBRANCH  23  26
ENDBRANCH  18  20
ENDBRANCH   3  18
TORSDOF 8
ENDMDL
