MODEL 1
REMARK VINA RESULT:      -7.2      0.000      0.000
REMARK  Name = 
REMARK  11 active torsions:
REMARK  status: ('A' for Active; 'I' for Inactive)
REMARK    1  A    between atoms: C_1  and  C_2
REMARK    2  A    between atoms: C_2  and  N_3
REMARK    3  A    between atoms: N_3  and  C_4
REMARK    4  A    between atoms: N_3  and  C_6
REMARK    5  A    between atoms: C_4  and  C_5
REMARK    6  A    between atoms: C_6  and  C_7
REMARK    7  A    between atoms: C_7  and  C_8
REMARK    8  A    between atoms: C_8  and  N_9
REMARK    9  A    between atoms: C_10  and  C_12
REMARK   10  A    between atoms: C_19  and  C_20
REMARK   11  A    between atoms: C_22  and  C_23
REMARK                            x       y       z     vdW  Elec       q    Type
REMARK                         _______ _______ _______ _____ _____    ______ ____
ROOT
ATOM      1  C   UNL     1       2.159   4.236  18.649  0.00  0.00    +0.000 C 
ATOM      2  C   UNL     1       1.708   5.361  17.713  0.00  0.00    +0.000 C 
ATOM      3  C   UNL     1       2.577   6.603  17.901  0.00  0.00    +0.000 C 
ATOM      4  N   UNL     1       2.465   7.043  19.285  0.00  0.00    +0.000 N 
ATOM      5  C   UNL     1       1.718   8.130  19.654  0.00  0.00    +0.000 A 
ATOM      6  N   UNL     1       1.234   8.341  20.862  0.00  0.00    +0.000 NA
ATOM      7  C   UNL     1       0.531   9.546  20.930  0.00  0.00    +0.000 A 
ATOM      8  C   UNL     1      -0.120  10.099  22.065  0.00  0.00    +0.000 A 
ATOM      9  C   UNL     1      -0.132   9.449  23.420  0.00  0.00    +0.000 C 
ATOM     10  C   UNL     1      -0.785  11.341  21.920  0.00  0.00    +0.000 A 
ATOM     11  C   UNL     1      -0.812  12.028  20.705  0.00  0.00    +0.000 A 
ATOM     12  C   UNL     1      -1.521  13.342  20.557  0.00  0.00    +0.000 C 
ATOM     13  C   UNL     1      -0.161  11.487  19.596  0.00  0.00    +0.000 A 
ATOM     14  C   UNL     1       0.496  10.256  19.734  0.00  0.00    +0.000 A 
ATOM     15  S   UNL     1       1.361   9.404  18.539  0.00  0.00    +0.000 S 
ATOM     16  C   UNL     1       2.932   6.085  20.286  0.00  0.00    +0.000 C 
ATOM     17  C   UNL     1       2.223   4.737  20.108  0.00  0.00    +0.000 C 
ENDROOT
BRANCH   1  19
ATOM     18  N   UNL     1       3.896   4.099  16.938  0.00  0.00    +0.000 N 
ATOM     19  C   UNL     1       3.467   3.624  18.159  0.00  0.00    +0.000 C 
ATOM     20  O   UNL     1       4.082   2.777  18.802  0.00  0.00    +0.000 OA
ATOM     21  H   UNL     1       3.288   4.698  16.394  0.00  0.00    +0.000 HD
BRANCH  18  22
ATOM     22  C   UNL     1       5.094   3.611  16.281  0.00  0.00    +0.000 C 
BRANCH  22  23
ATOM     23  C   UNL     1       6.116   4.718  16.033  0.00  0.00    +0.000 C 
BRANCH  23  24
ATOM     24  C   UNL     1       7.424   4.563  16.833  0.00  0.00    +0.000 C 
BRANCH  24  25
ATOM     25  N   UNL     1       7.847   5.772  17.572  0.00  0.00    +0.000 NA
BRANCH  25  27
ATOM     26  C   UNL     1       7.710   8.307  17.523  0.00  0.00    +0.000 C 
ATOM     27  C   UNL     1       7.145   6.968  17.067  0.00  0.00    +0.000 C 
ENDBRANCH  25  27
BRANCH  25  28
ATOM     28  C   UNL     1       7.720   5.586  19.031  0.00  0.00    +0.000 C 
ATOM     29  C   UNL     1       6.312   5.338  19.568  0.00  0.00    +0.000 C 
ENDBRANCH  25  28
ENDBRANCH  24  25
ENDBRANCH  23  24
ENDBRANCH  22  23
ENDBRANCH  18  22
ENDBRANCH   1  19
TORSDOF 7
ENDMDL
MODEL 2
REMARK VINA RESULT:      -6.8      0.509      1.336
REMARK  Name = 
REMARK  11 active torsions:
REMARK  status: ('A' for Active; 'I' for Inactive)
REMARK    1  A    between atoms: C_1  and  C_2
REMARK    2  A    between atoms: C_2  and  N_3
REMARK    3  A    between atoms: N_3  and  C_4
REMARK    4  A    between atoms: N_3  and  C_6
REMARK    5  A    between atoms: C_4  and  C_5
REMARK    6  A    between atoms: C_6  and  C_7
REMARK    7  A    between atoms: C_7  and  C_8
REMARK    8  A    between atoms: C_8  and  N_9
REMARK    9  A    between atoms: C_10  and  C_12
REMARK   10  A    between atoms: C_19  and  C_20
REMARK   11  A    between atoms: C_22  and  C_23
REMARK                            x       y       z     vdW  Elec       q    Type
REMARK                         _______ _______ _______ _____ _____    ______ ____
ROOT
ATOM      1  C   UNL     1       2.448   4.242  18.650  0.00  0.00    +0.000 C 
ATOM      2  C   UNL     1       1.935   5.332  17.706  0.00  0.00    +0.000 C 
ATOM      3  C   UNL     1       2.751   6.614  17.864  0.00  0.00    +0.000 C 
ATOM      4  N   UNL     1       2.638   7.068  19.244  0.00  0.00    +0.000 N 
ATOM      5  C   UNL     1       1.850   8.126  19.608  0.00  0.00    +0.000 A 
ATOM      6  N   UNL     1       1.374   8.333  20.819  0.00  0.00    +0.000 NA
ATOM      7  C   UNL     1       0.620   9.508  20.882  0.00  0.00    +0.000 A 
ATOM      8  C   UNL     1      -0.040  10.048  22.017  0.00  0.00    +0.000 A 
ATOM      9  C   UNL     1      -0.005   9.418  23.382  0.00  0.00    +0.000 C 
ATOM     10  C   UNL     1      -0.760  11.258  21.866  0.00  0.00    +0.000 A 
ATOM     11  C   UNL     1      -0.834  11.925  20.641  0.00  0.00    +0.000 A 
ATOM     12  C   UNL     1      -1.602  13.204  20.485  0.00  0.00    +0.000 C 
ATOM     13  C   UNL     1      -0.176  11.397  19.531  0.00  0.00    +0.000 A 
ATOM     14  C   UNL     1       0.536  10.198  19.677  0.00  0.00    +0.000 A 
ATOM     15  S   UNL     1       1.422   9.368  18.481  0.00  0.00    +0.000 S 
ATOM     16  C   UNL     1       3.161   6.146  20.251  0.00  0.00    +0.000 C 
ATOM     17  C   UNL     1       2.510   4.766  20.101  0.00  0.00    +0.000 C 
ENDROOT
BRANCH   1  19
ATOM     18  N   UNL     1       4.057   3.975  16.833  0.00  0.00    +0.000 N 
ATOM     19  C   UNL     1       3.775   3.681  18.150  0.00  0.00    +0.000 C 
ATOM     20  O   UNL     1       4.524   3.021  18.865  0.00  0.00    +0.000 OA
ATOM     21  H   UNL     1       3.348   4.409  16.256  0.00  0.00    +0.000 HD
BRANCH  18  22
ATOM     22  C   UNL     1       5.248   3.495  16.158  0.00  0.00    +0.000 C 
BRANCH  22  23
ATOM     23  C   UNL     1       6.431   4.449  16.313  0.00  0.00    +0.000 C 
BRANCH  23  24
ATOM     24  C   UNL     1       6.035   5.902  16.636  0.00  0.00    +0.000 C 
BRANCH  24  25
ATOM     25  N   UNL     1       6.886   6.569  17.644  0.00  0.00    +0.000 NA
BRANCH  25  27
ATOM     26  C   UNL     1       7.465   5.559  19.901  0.00  0.00    +0.000 C 
ATOM     27  C   UNL     1       7.684   5.580  18.394  0.00  0.00    +0.000 C 
ENDBRANCH  25  27
BRANCH  25  28
ATOM     28  C   UNL     1       7.697   7.645  17.041  0.00  0.00    +0.000 C 
ATOM     29  C   UNL     1       7.948   8.878  17.906  0.00  0.00    +0.000 C 
ENDBRANCH  25  28
ENDBRANCH  24  25
ENDBRANCH  23  24
ENDBRANCH  22  23
ENDBRANCH  18  22
ENDBRANCH   1  19
TORSDOF 7
ENDMDL
MODEL 3
REMARK VINA RESULT:      -6.6      2.840      4.449
REMARK  Name = 
REMARK  11 active torsions:
REMARK  status: ('A' for Active; 'I' for Inactive)
REMARK    1  A    between atoms: C_1  and  C_2
REMARK    2  A    between atoms: C_2  and  N_3
REMARK    3  A    between atoms: N_3  and  C_4
REMARK    4  A    between atoms: N_3  and  C_6
REMARK    5  A    between atoms: C_4  and  C_5
REMARK    6  A    between atoms: C_6  and  C_7
REMARK    7  A    between atoms: C_7  and  C_8
REMARK    8  A    between atoms: C_8  and  N_9
REMARK    9  A    between atoms: C_10  and  C_12
REMARK   10  A    between atoms: C_19  and  C_20
REMARK   11  A    between atoms: C_22  and  C_23
REMARK                            x       y       z     vdW  Elec       q    Type
REMARK                         _______ _______ _______ _____ _____    ______ ____
ROOT
ATOM      1  C   UNL     1       5.501   5.940  18.114  0.00  0.00    +0.000 C 
ATOM      2  C   UNL     1       4.811   5.651  19.450  0.00  0.00    +0.000 C 
ATOM      3  C   UNL     1       3.306   5.472  19.255  0.00  0.00    +0.000 C 
ATOM      4  N   UNL     1       2.764   6.695  18.678  0.00  0.00    +0.000 N 
ATOM      5  C   UNL     1       2.049   7.602  19.413  0.00  0.00    +0.000 A 
ATOM      6  N   UNL     1       1.892   8.873  19.102  0.00  0.00    +0.000 NA
ATOM      7  C   UNL     1       1.094   9.536  20.037  0.00  0.00    +0.000 A 
ATOM      8  C   UNL     1       0.710  10.904  20.026  0.00  0.00    +0.000 A 
ATOM      9  C   UNL     1       1.109  11.874  18.948  0.00  0.00    +0.000 C 
ATOM     10  C   UNL     1      -0.106  11.383  21.079  0.00  0.00    +0.000 A 
ATOM     11  C   UNL     1      -0.541  10.552  22.114  0.00  0.00    +0.000 A 
ATOM     12  C   UNL     1      -1.403  11.066  23.229  0.00  0.00    +0.000 C 
ATOM     13  C   UNL     1      -0.171   9.207  22.115  0.00  0.00    +0.000 A 
ATOM     14  C   UNL     1       0.640   8.730  21.076  0.00  0.00    +0.000 A 
ATOM     15  S   UNL     1       1.211   7.140  20.856  0.00  0.00    +0.000 S 
ATOM     16  C   UNL     1       3.289   7.051  17.361  0.00  0.00    +0.000 C 
ATOM     17  C   UNL     1       4.820   7.125  17.397  0.00  0.00    +0.000 C 
ENDROOT
BRANCH   1  19
ATOM     18  N   UNL     1       6.371   4.784  16.147  0.00  0.00    +0.000 N 
ATOM     19  C   UNL     1       5.572   4.676  17.264  0.00  0.00    +0.000 C 
ATOM     20  O   UNL     1       4.963   3.649  17.556  0.00  0.00    +0.000 OA
ATOM     21  H   UNL     1       6.744   5.688  15.886  0.00  0.00    +0.000 HD
BRANCH  18  22
ATOM     22  C   UNL     1       6.535   3.707  15.189  0.00  0.00    +0.000 C 
BRANCH  22  23
ATOM     23  C   UNL     1       5.780   3.964  13.887  0.00  0.00    +0.000 C 
BRANCH  23  24
ATOM     24  C   UNL     1       6.665   3.941  12.626  0.00  0.00    +0.000 C 
BRANCH  24  25
ATOM     25  N   UNL     1       6.119   3.157  11.498  0.00  0.00    +0.000 NA
BRANCH  25  27
ATOM     26  C   UNL     1       6.181   0.647  11.117  0.00  0.00    +0.000 C 
ATOM     27  C   UNL     1       6.943   1.960  11.244  0.00  0.00    +0.000 C 
ENDBRANCH  25  27
BRANCH  25  28
ATOM     28  C   UNL     1       4.687   2.857  11.691  0.00  0.00    +0.000 C 
ATOM     29  C   UNL     1       3.718   3.469  10.681  0.00  0.00    +0.000 C 
ENDBRANCH  25  28
ENDBRANCH  24  25
ENDBRANCH  23  24
ENDBRANCH  22  23
ENDBRANCH  18  22
ENDBRANCH   1  19
TORSDOF 7
ENDMDL
MODEL 4
REMARK VINA RESULT:      -6.6      1.213      1.903
REMARK  Name = 
REMARK  11 active torsions:
REMARK  status: ('A' for Active; 'I' for Inactive)
REMARK    1  A    between atoms: C_1  and  C_2
REMARK    2  A    between atoms: C_2  and  N_3
REMARK    3  A    between atoms: N_3  and  C_4
REMARK    4  A    between atoms: N_3  and  C_6
REMARK    5  A    between atoms: C_4  and  C_5
REMARK    6  A    between atoms: C_6  and  C_7
REMARK    7  A    between atoms: C_7  and  C_8
REMARK    8  A    between atoms: C_8  and  N_9
REMARK    9  A    between atoms: C_10  and  C_12
REMARK   10  A    between atoms: C_19  and  C_20
REMARK   11  A    between atoms: C_22  and  C_23
REMARK                            x       y       z     vdW  Elec       q    Type
REMARK                         _______ _______ _______ _____ _____    ______ ____
ROOT
ATOM      1  C   UNL     1       1.373   3.909  18.952  0.00  0.00    +0.000 C 
ATOM      2  C   UNL     1       1.330   5.051  17.933  0.00  0.00    +0.000 C 
ATOM      3  C   UNL     1       2.425   6.077  18.222  0.00  0.00    +0.000 C 
ATOM      4  N   UNL     1       2.219   6.609  19.562  0.00  0.00    +0.000 N 
ATOM      5  C   UNL     1       1.697   7.854  19.788  0.00  0.00    +0.000 A 
ATOM      6  N   UNL     1       1.107   8.237  20.902  0.00  0.00    +0.000 NA
ATOM      7  C   UNL     1       0.696   9.570  20.835  0.00  0.00    +0.000 A 
ATOM      8  C   UNL     1       0.034  10.319  21.844  0.00  0.00    +0.000 A 
ATOM      9  C   UNL     1      -0.321   9.766  23.197  0.00  0.00    +0.000 C 
ATOM     10  C   UNL     1      -0.301  11.667  21.572  0.00  0.00    +0.000 A 
ATOM     11  C   UNL     1       0.003  12.272  20.350  0.00  0.00    +0.000 A 
ATOM     12  C   UNL     1      -0.358  13.700  20.066  0.00  0.00    +0.000 C 
ATOM     13  C   UNL     1       0.664  11.537  19.366  0.00  0.00    +0.000 A 
ATOM     14  C   UNL     1       0.995  10.201  19.632  0.00  0.00    +0.000 A 
ATOM     15  S   UNL     1       1.804   9.111  18.602  0.00  0.00    +0.000 S 
ATOM     16  C   UNL     1       2.307   5.630  20.644  0.00  0.00    +0.000 C 
ATOM     17  C   UNL     1       1.341   4.466  20.391  0.00  0.00    +0.000 C 
ENDROOT
BRANCH   1  19
ATOM     18  N   UNL     1       3.305   3.340  17.572  0.00  0.00    +0.000 N 
ATOM     19  C   UNL     1       2.563   2.995  18.681  0.00  0.00    +0.000 C 
ATOM     20  O   UNL     1       2.830   2.031  19.393  0.00  0.00    +0.000 OA
ATOM     21  H   UNL     1       2.967   4.062  16.950  0.00  0.00    +0.000 HD
BRANCH  18  22
ATOM     22  C   UNL     1       4.450   2.570  17.121  0.00  0.00    +0.000 C 
BRANCH  22  23
ATOM     23  C   UNL     1       5.616   3.456  16.690  0.00  0.00    +0.000 C 
BRANCH  23  24
ATOM     24  C   UNL     1       5.240   4.550  15.673  0.00  0.00    +0.000 C 
BRANCH  24  25
ATOM     25  N   UNL     1       6.332   5.488  15.336  0.00  0.00    +0.000 NA
BRANCH  25  27
ATOM     26  C   UNL     1       6.788   7.059  17.278  0.00  0.00    +0.000 C 
ATOM     27  C   UNL     1       7.152   5.785  16.526  0.00  0.00    +0.000 C 
ENDBRANCH  25  27
BRANCH  25  28
ATOM     28  C   UNL     1       7.118   5.011  14.182  0.00  0.00    +0.000 C 
ATOM     29  C   UNL     1       6.439   3.996  13.264  0.00  0.00    +0.000 C 
ENDBRANCH  25  28
ENDBRANCH  24  25
ENDBRANCH  23  24
ENDBRANCH  22  23
ENDBRANCH  18  22
ENDBRANCH   1  19
TORSDOF 7
ENDMDL
MODEL 5
REMARK VINA RESULT:      -6.5      1.784      2.770
REMARK  Name = 
REMARK  11 active torsions:
REMARK  status: ('A' for Active; 'I' for Inactive)
REMARK    1  A    between atoms: C_1  and  C_2
REMARK    2  A    between atoms: C_2  and  N_3
REMARK    3  A    between atoms: N_3  and  C_4
REMARK    4  A    between atoms: N_3  and  C_6
REMARK    5  A    between atoms: C_4  and  C_5
REMARK    6  A    between atoms: C_6  and  C_7
REMARK    7  A    between atoms: C_7  and  C_8
REMARK    8  A    between atoms: C_8  and  N_9
REMARK    9  A    between atoms: C_10  and  C_12
REMARK   10  A    between atoms: C_19  and  C_20
REMARK   11  A    between atoms: C_22  and  C_23
REMARK                            x       y       z     vdW  Elec       q    Type
REMARK                         _______ _______ _______ _____ _____    ______ ____
ROOT
ATOM      1  C   UNL     1       2.000   4.232  18.987  0.00  0.00    +0.000 C 
ATOM      2  C   UNL     1       1.690   5.315  17.950  0.00  0.00    +0.000 C 
ATOM      3  C   UNL     1       2.601   6.526  18.142  0.00  0.00    +0.000 C 
ATOM      4  N   UNL     1       2.390   7.056  19.483  0.00  0.00    +0.000 N 
ATOM      5  C   UNL     1       1.671   8.197  19.719  0.00  0.00    +0.000 A 
ATOM      6  N   UNL     1       1.095   8.505  20.863  0.00  0.00    +0.000 NA
ATOM      7  C   UNL     1       0.451   9.742  20.798  0.00  0.00    +0.000 A 
ATOM      8  C   UNL     1      -0.268  10.395  21.835  0.00  0.00    +0.000 A 
ATOM      9  C   UNL     1      -0.431   9.832  23.220  0.00  0.00    +0.000 C 
ATOM     10  C   UNL     1      -0.854  11.654  21.559  0.00  0.00    +0.000 A 
ATOM     11  C   UNL     1      -0.741  12.264  20.307  0.00  0.00    +0.000 A 
ATOM     12  C   UNL     1      -1.367  13.596  20.020  0.00  0.00    +0.000 C 
ATOM     13  C   UNL     1      -0.025  11.625  19.295  0.00  0.00    +0.000 A 
ATOM     14  C   UNL     1       0.555  10.377  19.564  0.00  0.00    +0.000 A 
ATOM     15  S   UNL     1       1.477   9.414  18.503  0.00  0.00    +0.000 S 
ATOM     16  C   UNL     1       2.720   6.143  20.576  0.00  0.00    +0.000 C 
ATOM     17  C   UNL     1       1.962   4.820  20.413  0.00  0.00    +0.000 C 
ENDROOT
BRANCH   1  19
ATOM     18  N   UNL     1       3.875   3.917  17.455  0.00  0.00    +0.000 N 
ATOM     19  C   UNL     1       3.313   3.532  18.652  0.00  0.00    +0.000 C 
ATOM     20  O   UNL     1       3.822   2.694  19.393  0.00  0.00    +0.000 OA
ATOM     21  H   UNL     1       3.351   4.512  16.826  0.00  0.00    +0.000 HD
BRANCH  18  22
ATOM     22  C   UNL     1       5.100   3.337  16.937  0.00  0.00    +0.000 C 
BRANCH  22  23
ATOM     23  C   UNL     1       5.765   4.219  15.884  0.00  0.00    +0.000 C 
BRANCH  23  24
ATOM     24  C   UNL     1       5.566   3.736  14.434  0.00  0.00    +0.000 C 
BRANCH  24  25
ATOM     25  N   UNL     1       6.754   3.872  13.565  0.00  0.00    +0.000 NA
BRANCH  25  27
ATOM     26  C   UNL     1       4.967   3.207  11.888  0.00  0.00    +0.000 C 
ATOM     27  C   UNL     1       6.392   3.677  12.148  0.00  0.00    +0.000 C 
ENDBRANCH  25  27
BRANCH  25  28
ATOM     28  C   UNL     1       7.470   5.136  13.822  0.00  0.00    +0.000 C 
ATOM     29  C   UNL     1       8.245   5.734  12.650  0.00  0.00    +0.000 C 
ENDBRANCH  25  28
ENDBRANCH  24  25
ENDBRANCH  23  24
ENDBRANCH  22  23
ENDBRANCH  18  22
ENDBRANCH   1  19
TORSDOF 7
ENDMDL
MODEL 6
REMARK VINA RESULT:      -6.4      0.831      1.262
REMARK  Name = 
REMARK  11 active torsions:
REMARK  status: ('A' for Active; 'I' for Inactive)
REMARK    1  A    between atoms: C_1  and  C_2
REMARK    2  A    between atoms: C_2  and  N_3
REMARK    3  A    between atoms: N_3  and  C_4
REMARK    4  A    between atoms: N_3  and  C_6
REMARK    5  A    between atoms: C_4  and  C_5
REMARK    6  A    between atoms: C_6  and  C_7
REMARK    7  A    between atoms: C_7  and  C_8
REMARK    8  A    between atoms: C_8  and  N_9
REMARK    9  A    between atoms: C_10  and  C_12
REMARK   10  A    between atoms: C_19  and  C_20
REMARK   11  A    between atoms: C_22  and  C_23
REMARK                            x       y       z     vdW  Elec       q    Type
REMARK                         _______ _______ _______ _____ _____    ______ ____
ROOT
ATOM      1  C   UNL     1       1.892   4.040  18.886  0.00  0.00    +0.000 C 
ATOM      2  C   UNL     1       1.629   5.168  17.884  0.00  0.00    +0.000 C 
ATOM      3  C   UNL     1       2.585   6.335  18.119  0.00  0.00    +0.000 C 
ATOM      4  N   UNL     1       2.391   6.830  19.475  0.00  0.00    +0.000 N 
ATOM      5  C   UNL     1       1.715   7.989  19.746  0.00  0.00    +0.000 A 
ATOM      6  N   UNL     1       1.147   8.282  20.898  0.00  0.00    +0.000 NA
ATOM      7  C   UNL     1       0.552   9.546  20.871  0.00  0.00    +0.000 A 
ATOM      8  C   UNL     1      -0.145  10.192  21.927  0.00  0.00    +0.000 A 
ATOM      9  C   UNL     1      -0.336   9.591  23.292  0.00  0.00    +0.000 C 
ATOM     10  C   UNL     1      -0.681  11.481  21.690  0.00  0.00    +0.000 A 
ATOM     11  C   UNL     1      -0.539  12.126  20.460  0.00  0.00    +0.000 A 
ATOM     12  C   UNL     1      -1.111  13.491  20.214  0.00  0.00    +0.000 C 
ATOM     13  C   UNL     1       0.156  11.493  19.429  0.00  0.00    +0.000 A 
ATOM     14  C   UNL     1       0.685  10.215  19.659  0.00  0.00    +0.000 A 
ATOM     15  S   UNL     1       1.573   9.252  18.570  0.00  0.00    +0.000 S 
ATOM     16  C   UNL     1       2.679   5.869  20.538  0.00  0.00    +0.000 C 
ATOM     17  C   UNL     1       1.871   4.583  20.331  0.00  0.00    +0.000 C 
ENDROOT
BRANCH   1  19
ATOM     18  N   UNL     1       3.754   3.695  17.345  0.00  0.00    +0.000 N 
ATOM     19  C   UNL     1       3.179   3.301  18.533  0.00  0.00    +0.000 C 
ATOM     20  O   UNL     1       3.656   2.426  19.251  0.00  0.00    +0.000 OA
ATOM     21  H   UNL     1       3.252   4.325  16.732  0.00  0.00    +0.000 HD
BRANCH  18  22
ATOM     22  C   UNL     1       4.957   3.083  16.812  0.00  0.00    +0.000 C 
BRANCH  22  23
ATOM     23  C   UNL     1       6.193   3.956  17.009  0.00  0.00    +0.000 C 
BRANCH  23  24
ATOM     24  C   UNL     1       6.029   5.055  18.076  0.00  0.00    +0.000 C 
BRANCH  24  25
ATOM     25  N   UNL     1       6.384   6.418  17.625  0.00  0.00    +0.000 NA
BRANCH  25  27
ATOM     26  C   UNL     1       8.082   8.283  17.910  0.00  0.00    +0.000 C 
ATOM     27  C   UNL     1       7.653   6.858  18.235  0.00  0.00    +0.000 C 
ENDBRANCH  25  27
BRANCH  25  28
ATOM     28  C   UNL     1       6.370   6.520  16.152  0.00  0.00    +0.000 C 
ATOM     29  C   UNL     1       5.016   6.785  15.498  0.00  0.00    +0.000 C 
ENDBRANCH  25  28
ENDBRANCH  24  25
ENDBRANCH  23  24
ENDBRANCH  22  23
ENDBRANCH  18  22
ENDBRANCH   1  19
TORSDOF 7
ENDMDL
MODEL 7
REMARK VINA RESULT:      -6.3      1.059      1.785
REMARK  Name = 
REMARK  11 active torsions:
REMARK  status: ('A' for Active; 'I' for Inactive)
REMARK    1  A    between atoms: C_1  and  C_2
REMARK    2  A    between atoms: C_2  and  N_3
REMARK    3  A    between atoms: N_3  and  C_4
REMARK    4  A    between atoms: N_3  and  C_6
REMARK    5  A    between atoms: C_4  and  C_5
REMARK    6  A    between atoms: C_6  and  C_7
REMARK    7  A    between atoms: C_7  and  C_8
REMARK    8  A    between atoms: C_8  and  N_9
REMARK    9  A    between atoms: C_10  and  C_12
REMARK   10  A    between atoms: C_19  and  C_20
REMARK   11  A    between atoms: C_22  and  C_23
REMARK                            x       y       z     vdW  Elec       q    Type
REMARK                         _______ _______ _______ _____ _____    ______ ____
ROOT
ATOM      1  C   UNL     1       1.579   4.201  19.017  0.00  0.00    +0.000 C 
ATOM      2  C   UNL     1       1.455   5.307  17.965  0.00  0.00    +0.000 C 
ATOM      3  C   UNL     1       2.453   6.429  18.240  0.00  0.00    +0.000 C 
ATOM      4  N   UNL     1       2.182   6.979  19.562  0.00  0.00    +0.000 N 
ATOM      5  C   UNL     1       1.552   8.180  19.745  0.00  0.00    +0.000 A 
ATOM      6  N   UNL     1       0.913   8.541  20.840  0.00  0.00    +0.000 NA
ATOM      7  C   UNL     1       0.392   9.832  20.729  0.00  0.00    +0.000 A 
ATOM      8  C   UNL     1      -0.348  10.548  21.707  0.00  0.00    +0.000 A 
ATOM      9  C   UNL     1      -0.676  10.004  23.070  0.00  0.00    +0.000 C 
ATOM     10  C   UNL     1      -0.793  11.855  21.392  0.00  0.00    +0.000 A 
ATOM     11  C   UNL     1      -0.521  12.450  20.158  0.00  0.00    +0.000 A 
ATOM     12  C   UNL     1      -0.998  13.834  19.828  0.00  0.00    +0.000 C 
ATOM     13  C   UNL     1       0.216  11.748  19.205  0.00  0.00    +0.000 A 
ATOM     14  C   UNL     1       0.655  10.453  19.512  0.00  0.00    +0.000 A 
ATOM     15  S   UNL     1       1.570   9.408  18.525  0.00  0.00    +0.000 S 
ATOM     16  C   UNL     1       2.335   6.040  20.672  0.00  0.00    +0.000 C 
ATOM     17  C   UNL     1       1.476   4.791  20.439  0.00  0.00    +0.000 C 
ENDROOT
BRANCH   1  19
ATOM     18  N   UNL     1       3.965   3.879  19.422  0.00  0.00    +0.000 N 
ATOM     19  C   UNL     1       2.846   3.384  18.788  0.00  0.00    +0.000 C 
ATOM     20  O   UNL     1       2.862   2.371  18.094  0.00  0.00    +0.000 OA
ATOM     21  H   UNL     1       3.924   4.784  19.873  0.00  0.00    +0.000 HD
BRANCH  18  22
ATOM     22  C   UNL     1       5.276   3.271  19.293  0.00  0.00    +0.000 C 
BRANCH  22  23
ATOM     23  C   UNL     1       6.300   4.217  18.670  0.00  0.00    +0.000 C 
BRANCH  23  24
ATOM     24  C   UNL     1       6.028   4.560  17.192  0.00  0.00    +0.000 C 
BRANCH  24  25
ATOM     25  N   UNL     1       7.121   5.289  16.513  0.00  0.00    +0.000 NA
BRANCH  25  27
ATOM     26  C   UNL     1       6.045   4.059  14.569  0.00  0.00    +0.000 C 
ATOM     27  C   UNL     1       7.193   4.916  15.088  0.00  0.00    +0.000 C 
ENDBRANCH  25  27
BRANCH  25  28
ATOM     28  C   UNL     1       7.021   6.744  16.737  0.00  0.00    +0.000 C 
ATOM     29  C   UNL     1       7.776   7.304  17.941  0.00  0.00    +0.000 C 
ENDBRANCH  25  28
ENDBRANCH  24  25
ENDBRANCH  23  24
ENDBRANCH  22  23
ENDBRANCH  18  22
ENDBRANCH   1  19
TORSDOF 7
ENDMDL
MODEL 8
REMARK VINA RESULT:      -6.3      3.673      9.304
REMARK  Name = 
REMARK  11 active torsions:
REMARK  status: ('A' for Active; 'I' for Inactive)
REMARK    1  A    between atoms: C_1  and  C_2
REMARK    2  A    between atoms: C_2  and  N_3
REMARK    3  A    between atoms: N_3  and  C_4
REMARK    4  A    between atoms: N_3  and  C_6
REMARK    5  A    between atoms: C_4  and  C_5
REMARK    6  A    between atoms: C_6  and  C_7
REMARK    7  A    between atoms: C_7  and  C_8
REMARK    8  A    between atoms: C_8  and  N_9
REMARK    9  A    between atoms: C_10  and  C_12
REMARK   10  A    between atoms: C_19  and  C_20
REMARK   11  A    between atoms: C_22  and  C_23
REMARK                            x       y       z     vdW  Elec       q    Type
REMARK                         _______ _______ _______ _____ _____    ______ ____
ROOT
ATOM      1  C   UNL     1       0.155  12.122  21.748  0.00  0.00    +0.000 C 
ATOM      2  C   UNL     1       1.077  12.211  20.529  0.00  0.00    +0.000 C 
ATOM      3  C   UNL     1       0.505  11.413  19.359  0.00  0.00    +0.000 C 
ATOM      4  N   UNL     1       0.368  10.022  19.768  0.00  0.00    +0.000 N 
ATOM      5  C   UNL     1       1.232   9.044  19.354  0.00  0.00    +0.000 A 
ATOM      6  N   UNL     1       1.434   7.900  19.977  0.00  0.00    +0.000 NA
ATOM      7  C   UNL     1       2.360   7.103  19.299  0.00  0.00    +0.000 A 
ATOM      8  C   UNL     1       2.818   5.811  19.670  0.00  0.00    +0.000 A 
ATOM      9  C   UNL     1       2.338   5.073  20.890  0.00  0.00    +0.000 C 
ATOM     10  C   UNL     1       3.770   5.170  18.841  0.00  0.00    +0.000 A 
ATOM     11  C   UNL     1       4.261   5.769  17.679  0.00  0.00    +0.000 A 
ATOM     12  C   UNL     1       5.272   5.087  16.806  0.00  0.00    +0.000 C 
ATOM     13  C   UNL     1       3.800   7.033  17.312  0.00  0.00    +0.000 A 
ATOM     14  C   UNL     1       2.859   7.672  18.132  0.00  0.00    +0.000 A 
ATOM     15  S   UNL     1       2.146   9.201  17.893  0.00  0.00    +0.000 S 
ATOM     16  C   UNL     1      -0.546   9.786  20.885  0.00  0.00    +0.000 C 
ATOM     17  C   UNL     1      -0.152  10.648  22.090  0.00  0.00    +0.000 C 
ENDROOT
BRANCH   1  19
ATOM     18  N   UNL     1      -2.281  12.288  21.704  0.00  0.00    +0.000 N 
ATOM     19  C   UNL     1      -1.095  12.970  21.537  0.00  0.00    +0.000 C 
ATOM     20  O   UNL     1      -1.042  14.161  21.242  0.00  0.00    +0.000 OA
ATOM     21  H   UNL     1      -2.267  11.283  21.819  0.00  0.00    +0.000 HD
BRANCH  18  22
ATOM     22  C   UNL     1      -3.578  12.906  21.504  0.00  0.00    +0.000 C 
BRANCH  22  23
ATOM     23  C   UNL     1      -3.966  12.987  20.029  0.00  0.00    +0.000 C 
BRANCH  23  24
ATOM     24  C   UNL     1      -3.336  11.891  19.148  0.00  0.00    +0.000 C 
BRANCH  24  25
ATOM     25  N   UNL     1      -4.050  11.627  17.880  0.00  0.00    +0.000 NA
BRANCH  25  27
ATOM     26  C   UNL     1      -2.258   9.920  17.312  0.00  0.00    +0.000 C 
ATOM     27  C   UNL     1      -3.738  10.277  17.373  0.00  0.00    +0.000 C 
ENDBRANCH  25  27
BRANCH  25  28
ATOM     28  C   UNL     1      -5.497  11.888  18.010  0.00  0.00    +0.000 C 
ATOM     29  C   UNL     1      -6.370  10.708  18.431  0.00  0.00    +0.000 C 
ENDBRANCH  25  28
ENDBRANCH  24  25
ENDBRANCH  23  24
ENDBRANCH  22  23
ENDBRANCH  18  22
ENDBRANCH   1  19
TORSDOF 7
ENDMDL
MODEL 9
REMARK VINA RESULT:      -6.3      1.175      1.953
REMARK  Name = 
REMARK  11 active torsions:
REMARK  status: ('A' for Active; 'I' for Inactive)
REMARK    1  A    between atoms: C_1  and  C_2
REMARK    2  A    between atoms: C_2  and  N_3
REMARK    3  A    between atoms: N_3  and  C_4
REMARK    4  A    between atoms: N_3  and  C_6
REMARK    5  A    between atoms: C_4  and  C_5
REMARK    6  A    between atoms: C_6  and  C_7
REMARK    7  A    between atoms: C_7  and  C_8
REMARK    8  A    between atoms: C_8  and  N_9
REMARK    9  A    between atoms: C_10  and  C_12
REMARK   10  A    between atoms: C_19  and  C_20
REMARK   11  A    between atoms: C_22  and  C_23
REMARK                            x       y       z     vdW  Elec       q    Type
REMARK                         _______ _______ _______ _____ _____    ______ ____
ROOT
ATOM      1  C   UNL     1       2.046   4.317  18.930  0.00  0.00    +0.000 C 
ATOM      2  C   UNL     1       1.676   5.397  17.909  0.00  0.00    +0.000 C 
ATOM      3  C   UNL     1       2.544   6.640  18.098  0.00  0.00    +0.000 C 
ATOM      4  N   UNL     1       2.338   7.149  19.448  0.00  0.00    +0.000 N 
ATOM      5  C   UNL     1       1.580   8.259  19.708  0.00  0.00    +0.000 A 
ATOM      6  N   UNL     1       1.013   8.534  20.865  0.00  0.00    +0.000 NA
ATOM      7  C   UNL     1       0.321   9.747  20.824  0.00  0.00    +0.000 A 
ATOM      8  C   UNL     1      -0.403  10.362  21.880  0.00  0.00    +0.000 A 
ATOM      9  C   UNL     1      -0.520   9.780  23.262  0.00  0.00    +0.000 C 
ATOM     10  C   UNL     1      -1.042  11.600  21.627  0.00  0.00    +0.000 A 
ATOM     11  C   UNL     1      -0.974  12.225  20.380  0.00  0.00    +0.000 A 
ATOM     12  C   UNL     1      -1.656  13.536  20.117  0.00  0.00    +0.000 C 
ATOM     13  C   UNL     1      -0.252  11.624  19.349  0.00  0.00    +0.000 A 
ATOM     14  C   UNL     1       0.379  10.397  19.595  0.00  0.00    +0.000 A 
ATOM     15  S   UNL     1       1.318   9.479  18.508  0.00  0.00    +0.000 S 
ATOM     16  C   UNL     1       2.721   6.239  20.525  0.00  0.00    +0.000 C 
ATOM     17  C   UNL     1       2.011   4.889  20.363  0.00  0.00    +0.000 C 
ENDROOT
BRANCH   1  19
ATOM     18  N   UNL     1       4.481   4.296  19.107  0.00  0.00    +0.000 N 
ATOM     19  C   UNL     1       3.379   3.671  18.565  0.00  0.00    +0.000 C 
ATOM     20  O   UNL     1       3.457   2.678  17.847  0.00  0.00    +0.000 OA
ATOM     21  H   UNL     1       4.370   5.182  19.582  0.00  0.00    +0.000 HD
BRANCH  18  22
ATOM     22  C   UNL     1       5.840   3.861  18.843  0.00  0.00    +0.000 C 
BRANCH  22  23
ATOM     23  C   UNL     1       6.742   5.007  18.390  0.00  0.00    +0.000 C 
BRANCH  23  24
ATOM     24  C   UNL     1       7.036   5.022  16.878  0.00  0.00    +0.000 C 
BRANCH  24  25
ATOM     25  N   UNL     1       5.869   4.739  16.015  0.00  0.00    +0.000 NA
BRANCH  25  27
ATOM     26  C   UNL     1       4.922   7.092  16.144  0.00  0.00    +0.000 C 
ATOM     27  C   UNL     1       5.451   5.951  15.285  0.00  0.00    +0.000 C 
ENDBRANCH  25  27
BRANCH  25  28
ATOM     28  C   UNL     1       6.112   3.577  15.139  0.00  0.00    +0.000 C 
ATOM     29  C   UNL     1       6.221   3.861  13.642  0.00  0.00    +0.000 C 
ENDBRANCH  25  28
ENDBRANCH  24  25
ENDBRANCH  23  24
ENDBRANCH  22  23
ENDBRANCH  18  22
ENDBRANCH   1  19
TORSDOF 7
ENDMDL
