MODEL 1
REMARK VINA RESULT:      -8.3      0.000      0.000
REMARK  Name = 
REMARK  10 active torsions:
REMARK  status: ('A' for Active; 'I' for Inactive)
REMARK    1  A    between atoms: C_1  and  C_2
REMARK    2  A    between atoms: C_3  and  C_4
REMARK    3  A    between atoms: N_5  and  O_6
REMARK    4  A    between atoms: C_7  and  C_8
REMARK    5  A    between atoms: C_8  and  C_9
REMARK    6  A    between atoms: C_8  and  C_13
REMARK    7  A    between atoms: C_9  and  C_10
REMARK    8  A    between atoms: C_10  and  O_12
REMARK    9  A    between atoms: C_16  and  C_17
REMARK   10  A    between atoms: N_27  and  C_28
REMARK                            x       y       z     vdW  Elec       q    Type
REMARK                         _______ _______ _______ _____ _____    ______ ____
ROOT
ATOM      1  C   UNL     1       3.942   6.010  19.078  0.00  0.00    +0.000 C 
ENDROOT
BRANCH   1   7
ATOM      2  C   UNL     1       1.547   1.482  18.646  0.00  0.00    +0.000 C 
ATOM      3  C   UNL     1       2.096   2.700  19.283  0.00  0.00    +0.000 A 
ATOM      4  C   UNL     1       1.987   3.140  20.587  0.00  0.00    +0.000 A 
ATOM      5  C   UNL     1       1.361   2.522  21.774  0.00  0.00    +0.000 C 
ATOM      6  N   UNL     1       2.535   4.409  20.582  0.00  0.00    +0.000 N 
ATOM      7  C   UNL     1       3.164   4.715  19.419  0.00  0.00    +0.000 A 
ATOM      8  N   UNL     1       2.836   3.680  18.588  0.00  0.00    +0.000 N 
ATOM      9  C   UNL     1       3.151   3.581  17.157  0.00  0.00    +0.000 C 
BRANCH   6  10
ATOM     10  O   UNL     1       2.421   5.294  21.655  0.00  0.00    +0.000 OA
ATOM     11  H   UNL     1       1.707   4.948  22.222  0.00  0.00    +0.000 HD
ENDBRANCH   6  10
ENDBRANCH   1   7
BRANCH   1  12
ATOM     12  C   UNL     1       3.096   7.174  18.640  0.00  0.00    +0.000 A 
ATOM     13  C   UNL     1       2.989   7.918  17.487  0.00  0.00    +0.000 A 
ATOM     14  C   UNL     1       2.056   8.951  17.761  0.00  0.00    +0.000 A 
ATOM     15  C   UNL     1       1.635   8.807  19.073  0.00  0.00    +0.000 A 
ATOM     16  O   UNL     1       2.265   7.694  19.596  0.00  0.00    +0.000 OA
BRANCH  15  17
ATOM     17  C   UNL     1       0.722   9.651  19.808  0.00  0.00    +0.000 A 
ATOM     18  N   UNL     1       0.549   9.534  21.109  0.00  0.00    +0.000 NA
ATOM     19  C   UNL     1      -0.399  10.452  21.547  0.00  0.00    +0.000 A 
ATOM     20  C   UNL     1      -0.850  10.617  22.875  0.00  0.00    +0.000 A 
ATOM     21  C   UNL     1      -1.815  11.587  23.172  0.00  0.00    +0.000 A 
ATOM     22  C   UNL     1      -2.334  12.396  22.163  0.00  0.00    +0.000 A 
ATOM     23  C   UNL     1      -1.904  12.252  20.841  0.00  0.00    +0.000 A 
ATOM     24  C   UNL     1      -0.935  11.272  20.553  0.00  0.00    +0.000 A 
ATOM     25  S   UNL     1      -0.221  10.859  19.040  0.00  0.00    +0.000 S 
ENDBRANCH  15  17
ENDBRANCH   1  12
BRANCH   1  26
ATOM     26  C   UNL     1       5.136   5.870  18.118  0.00  0.00    +0.000 C 
BRANCH  26  27
ATOM     27  C   UNL     1       6.273   5.109  18.756  0.00  0.00    +0.000 C 
ATOM     28  O   UNL     1       6.808   5.414  19.811  0.00  0.00    +0.000 OA
BRANCH  27  29
ATOM     29  O   UNL     1       6.728   4.097  17.988  0.00  0.00    +0.000 OA
ATOM     30  H   UNL     1       6.296   3.231  18.123  0.00  0.00    +0.000 HD
ENDBRANCH  27  29
ENDBRANCH  26  27
ENDBRANCH   1  26
TORSDOF 7
ENDMDL
MODEL 2
REMARK VINA RESULT:      -8.1      0.801      1.200
REMARK  Name = 
REMARK  10 active torsions:
REMARK  status: ('A' for Active; 'I' for Inactive)
REMARK    1  A    between atoms: C_1  and  C_2
REMARK    2  A    between atoms: C_3  and  C_4
REMARK    3  A    between atoms: N_5  and  O_6
REMARK    4  A    between atoms: C_7  and  C_8
REMARK    5  A    between atoms: C_8  and  C_9
REMARK    6  A    between atoms: C_8  and  C_13
REMARK    7  A    between atoms: C_9  and  C_10
REMARK    8  A    between atoms: C_10  and  O_12
REMARK    9  A    between atoms: C_16  and  C_17
REMARK   10  A    between atoms: N_27  and  C_28
REMARK                            x       y       z     vdW  Elec       q    Type
REMARK                         _______ _______ _______ _____ _____    ______ ____
ROOT
ATOM      1  C   UNL     1       3.829   5.950  18.902  0.00  0.00    +0.000 C 
ENDROOT
BRANCH   1   7
ATOM      2  C   UNL     1       1.248   1.512  18.646  0.00  0.00    +0.000 C 
ATOM      3  C   UNL     1       1.890   2.705  19.242  0.00  0.00    +0.000 A 
ATOM      4  C   UNL     1       1.906   3.138  20.552  0.00  0.00    +0.000 A 
ATOM      5  C   UNL     1       1.359   2.532  21.784  0.00  0.00    +0.000 C 
ATOM      6  N   UNL     1       2.497   4.387  20.508  0.00  0.00    +0.000 N 
ATOM      7  C   UNL     1       3.037   4.680  19.299  0.00  0.00    +0.000 A 
ATOM      8  N   UNL     1       2.605   3.664  18.492  0.00  0.00    +0.000 N 
ATOM      9  C   UNL     1       2.797   3.566  17.040  0.00  0.00    +0.000 C 
BRANCH   6  10
ATOM     10  O   UNL     1       2.503   5.267  21.592  0.00  0.00    +0.000 OA
ATOM     11  H   UNL     1       3.438   5.481  21.767  0.00  0.00    +0.000 HD
ENDBRANCH   6  10
ENDBRANCH   1   7
BRANCH   1  12
ATOM     12  C   UNL     1       2.995   7.169  18.618  0.00  0.00    +0.000 A 
ATOM     13  C   UNL     1       2.874   8.039  17.558  0.00  0.00    +0.000 A 
ATOM     14  C   UNL     1       1.967   9.049  17.970  0.00  0.00    +0.000 A 
ATOM     15  C   UNL     1       1.575   8.765  19.268  0.00  0.00    +0.000 A 
ATOM     16  O   UNL     1       2.197   7.591  19.647  0.00  0.00    +0.000 OA
BRANCH  15  17
ATOM     17  C   UNL     1       0.695   9.535  20.117  0.00  0.00    +0.000 A 
ATOM     18  N   UNL     1      -0.037  10.528  19.656  0.00  0.00    +0.000 NA
ATOM     19  C   UNL     1      -0.766  11.102  20.691  0.00  0.00    +0.000 A 
ATOM     20  C   UNL     1      -1.654  12.195  20.580  0.00  0.00    +0.000 A 
ATOM     21  C   UNL     1      -2.324  12.671  21.713  0.00  0.00    +0.000 A 
ATOM     22  C   UNL     1      -2.121  12.072  22.954  0.00  0.00    +0.000 A 
ATOM     23  C   UNL     1      -1.248  10.989  23.091  0.00  0.00    +0.000 A 
ATOM     24  C   UNL     1      -0.577  10.520  21.945  0.00  0.00    +0.000 A 
ATOM     25  S   UNL     1       0.550   9.225  21.797  0.00  0.00    +0.000 S 
ENDBRANCH  15  17
ENDBRANCH   1  12
BRANCH   1  26
ATOM     26  C   UNL     1       4.880   5.793  17.788  0.00  0.00    +0.000 C 
BRANCH  26  27
ATOM     27  C   UNL     1       6.041   4.940  18.239  0.00  0.00    +0.000 C 
ATOM     28  O   UNL     1       6.590   5.033  19.326  0.00  0.00    +0.000 OA
BRANCH  27  29
ATOM     29  O   UNL     1       6.500   4.119  17.272  0.00  0.00    +0.000 OA
ATOM     30  H   UNL     1       6.897   4.555  16.493  0.00  0.00    +0.000 HD
ENDBRANCH  27  29
ENDBRANCH  26  27
ENDBRANCH   1  26
TORSDOF 7
ENDMDL
MODEL 3
REMARK VINA RESULT:      -7.9      3.521      9.072
REMARK  Name = 
REMARK  10 active torsions:
REMARK  status: ('A' for Active; 'I' for Inactive)
REMARK    1  A    between atoms: C_1  and  C_2
REMARK    2  A    between atoms: C_3  and  C_4
REMARK    3  A    between atoms: N_5  and  O_6
REMARK    4  A    between atoms: C_7  and  C_8
REMARK    5  A    between atoms: C_8  and  C_9
REMARK    6  A    between atoms: C_8  and  C_13
REMARK    7  A    between atoms: C_9  and  C_10
REMARK    8  A    between atoms: C_10  and  O_12
REMARK    9  A    between atoms: C_16  and  C_17
REMARK   10  A    between atoms: N_27  and  C_28
REMARK                            x       y       z     vdW  Elec       q    Type
REMARK                         _______ _______ _______ _____ _____    ______ ____
ROOT
ATOM      1  C   UNL     1      -0.118  10.808  19.513  0.00  0.00    +0.000 C 
ENDROOT
BRANCH   1   7
ATOM      2  C   UNL     1       1.513  15.611  20.349  0.00  0.00    +0.000 C 
ATOM      3  C   UNL     1       1.511  14.221  19.841  0.00  0.00    +0.000 A 
ATOM      4  C   UNL     1       2.398  13.589  18.994  0.00  0.00    +0.000 A 
ATOM      5  C   UNL     1       3.658  14.056  18.379  0.00  0.00    +0.000 C 
ATOM      6  N   UNL     1       1.819  12.363  18.720  0.00  0.00    +0.000 N 
ATOM      7  C   UNL     1       0.737  12.099  19.495  0.00  0.00    +0.000 A 
ATOM      8  N   UNL     1       0.505  13.278  20.147  0.00  0.00    +0.000 N 
ATOM      9  C   UNL     1      -0.639  13.581  21.016  0.00  0.00    +0.000 C 
BRANCH   6  10
ATOM     10  O   UNL     1       2.285  11.505  17.723  0.00  0.00    +0.000 OA
ATOM     11  H   UNL     1       2.533  10.674  18.169  0.00  0.00    +0.000 HD
ENDBRANCH   6  10
ENDBRANCH   1   7
BRANCH   1  12
ATOM     12  C   UNL     1       0.619   9.551  19.889  0.00  0.00    +0.000 A 
ATOM     13  C   UNL     1       0.877   8.893  21.070  0.00  0.00    +0.000 A 
ATOM     14  C   UNL     1       1.723   7.802  20.743  0.00  0.00    +0.000 A 
ATOM     15  C   UNL     1       1.959   7.839  19.379  0.00  0.00    +0.000 A 
ATOM     16  O   UNL     1       1.253   8.908  18.860  0.00  0.00    +0.000 OA
BRANCH  15  17
ATOM     17  C   UNL     1       2.796   6.957  18.599  0.00  0.00    +0.000 A 
ATOM     18  N   UNL     1       3.596   7.401  17.651  0.00  0.00    +0.000 NA
ATOM     19  C   UNL     1       4.261   6.337  17.054  0.00  0.00    +0.000 A 
ATOM     20  C   UNL     1       5.193   6.423  15.996  0.00  0.00    +0.000 A 
ATOM     21  C   UNL     1       5.789   5.262  15.489  0.00  0.00    +0.000 A 
ATOM     22  C   UNL     1       5.468   4.016  16.025  0.00  0.00    +0.000 A 
ATOM     23  C   UNL     1       4.549   3.904  17.071  0.00  0.00    +0.000 A 
ATOM     24  C   UNL     1       3.955   5.078  17.572  0.00  0.00    +0.000 A 
ATOM     25  S   UNL     1       2.798   5.259  18.836  0.00  0.00    +0.000 S 
ENDBRANCH  15  17
ENDBRANCH   1  12
BRANCH   1  26
ATOM     26  C   UNL     1      -0.980  10.529  18.269  0.00  0.00    +0.000 C 
BRANCH  26  27
ATOM     27  C   UNL     1      -1.942  11.660  17.996  0.00  0.00    +0.000 C 
ATOM     28  O   UNL     1      -2.976  11.857  18.616  0.00  0.00    +0.000 OA
BRANCH  27  29
ATOM     29  O   UNL     1      -1.604  12.391  16.914  0.00  0.00    +0.000 OA
ATOM     30  H   UNL     1      -2.201  12.316  16.144  0.00  0.00    +0.000 HD
ENDBRANCH  27  29
ENDBRANCH  26  27
ENDBRANCH   1  26
TORSDOF 7
ENDMDL
MODEL 4
REMARK VINA RESULT:      -7.4      3.510      8.671
REMARK  Name = 
REMARK  10 active torsions:
REMARK  status: ('A' for Active; 'I' for Inactive)
REMARK    1  A    between atoms: C_1  and  C_2
REMARK    2  A    between atoms: C_3  and  C_4
REMARK    3  A    between atoms: N_5  and  O_6
REMARK    4  A    between atoms: C_7  and  C_8
REMARK    5  A    between atoms: C_8  and  C_9
REMARK    6  A    between atoms: C_8  and  C_13
REMARK    7  A    between atoms: C_9  and  C_10
REMARK    8  A    between atoms: C_10  and  O_12
REMARK    9  A    between atoms: C_16  and  C_17
REMARK   10  A    between atoms: N_27  and  C_28
REMARK                            x       y       z     vdW  Elec       q    Type
REMARK                         _______ _______ _______ _____ _____    ______ ____
ROOT
ATOM      1  C   UNL     1       0.145  11.544  18.721  0.00  0.00    +0.000 C 
ENDROOT
BRANCH   1   7
ATOM      2  C   UNL     1      -4.779  12.400  19.927  0.00  0.00    +0.000 C 
ATOM      3  C   UNL     1      -3.599  12.038  19.111  0.00  0.00    +0.000 A 
ATOM      4  C   UNL     1      -3.534  11.547  17.823  0.00  0.00    +0.000 A 
ATOM      5  C   UNL     1      -4.591  11.291  16.823  0.00  0.00    +0.000 C 
ATOM      6  N   UNL     1      -2.203  11.223  17.632  0.00  0.00    +0.000 N 
ATOM      7  C   UNL     1      -1.397  11.665  18.629  0.00  0.00    +0.000 A 
ATOM      8  N   UNL     1      -2.270  12.115  19.581  0.00  0.00    +0.000 N 
ATOM      9  C   UNL     1      -1.923  12.580  20.929  0.00  0.00    +0.000 C 
BRANCH   6  10
ATOM     10  O   UNL     1      -1.747  10.485  16.537  0.00  0.00    +0.000 OA
ATOM     11  H   UNL     1      -1.163   9.791  16.897  0.00  0.00    +0.000 HD
ENDBRANCH   6  10
ENDBRANCH   1   7
BRANCH   1  12
ATOM     12  C   UNL     1       0.658  10.237  19.260  0.00  0.00    +0.000 A 
ATOM     13  C   UNL     1       0.657   9.627  20.494  0.00  0.00    +0.000 A 
ATOM     14  C   UNL     1       1.401   8.429  20.349  0.00  0.00    +0.000 A 
ATOM     15  C   UNL     1       1.839   8.355  19.037  0.00  0.00    +0.000 A 
ATOM     16  O   UNL     1       1.354   9.464  18.370  0.00  0.00    +0.000 OA
BRANCH  15  17
ATOM     17  C   UNL     1       2.667   7.336  18.434  0.00  0.00    +0.000 A 
ATOM     18  N   UNL     1       3.565   7.615  17.511  0.00  0.00    +0.000 NA
ATOM     19  C   UNL     1       4.196   6.448  17.095  0.00  0.00    +0.000 A 
ATOM     20  C   UNL     1       5.209   6.351  16.115  0.00  0.00    +0.000 A 
ATOM     21  C   UNL     1       5.757   5.103  15.794  0.00  0.00    +0.000 A 
ATOM     22  C   UNL     1       5.309   3.952  16.439  0.00  0.00    +0.000 A 
ATOM     23  C   UNL     1       4.309   4.021  17.412  0.00  0.00    +0.000 A 
ATOM     24  C   UNL     1       3.763   5.281  17.725  0.00  0.00    +0.000 A 
ATOM     25  S   UNL     1       2.531   5.681  18.860  0.00  0.00    +0.000 S 
ENDBRANCH  15  17
ENDBRANCH   1  12
BRANCH   1  26
ATOM     26  C   UNL     1       0.891  12.699  19.413  0.00  0.00    +0.000 C 
BRANCH  26  27
ATOM     27  C   UNL     1       2.186  13.022  18.709  0.00  0.00    +0.000 C 
ATOM     28  O   UNL     1       3.116  13.634  19.212  0.00  0.00    +0.000 OA
BRANCH  27  29
ATOM     29  O   UNL     1       2.186  12.659  17.410  0.00  0.00    +0.000 OA
ATOM     30  H   UNL     1       3.063  12.496  17.011  0.00  0.00    +0.000 HD
ENDBRANCH  27  29
ENDBRANCH  26  27
ENDBRANCH   1  26
TORSDOF 7
ENDMDL
MODEL 5
REMARK VINA RESULT:      -7.3      3.051      8.388
REMARK  Name = 
REMARK  10 active torsions:
REMARK  status: ('A' for Active; 'I' for Inactive)
REMARK    1  A    between atoms: C_1  and  C_2
REMARK    2  A    between atoms: C_3  and  C_4
REMARK    3  A    between atoms: N_5  and  O_6
REMARK    4  A    between atoms: C_7  and  C_8
REMARK    5  A    between atoms: C_8  and  C_9
REMARK    6  A    between atoms: C_8  and  C_13
REMARK    7  A    between atoms: C_9  and  C_10
REMARK    8  A    between atoms: C_10  and  O_12
REMARK    9  A    between atoms: C_16  and  C_17
REMARK   10  A    between atoms: N_27  and  C_28
REMARK                            x       y       z     vdW  Elec       q    Type
REMARK                         _______ _______ _______ _____ _____    ______ ____
ROOT
ATOM      1  C   UNL     1       0.353  11.350  19.091  0.00  0.00    +0.000 C 
ENDROOT
BRANCH   1   7
ATOM      2  C   UNL     1      -4.566  12.596  19.918  0.00  0.00    +0.000 C 
ATOM      3  C   UNL     1      -3.363  12.115  19.201  0.00  0.00    +0.000 A 
ATOM      4  C   UNL     1      -3.249  11.560  17.943  0.00  0.00    +0.000 A 
ATOM      5  C   UNL     1      -4.254  11.330  16.885  0.00  0.00    +0.000 C 
ATOM      6  N   UNL     1      -1.935  11.138  17.858  0.00  0.00    +0.000 N 
ATOM      7  C   UNL     1      -1.167  11.571  18.888  0.00  0.00    +0.000 A 
ATOM      8  N   UNL     1      -2.066  12.124  19.757  0.00  0.00    +0.000 N 
ATOM      9  C   UNL     1      -1.776  12.628  21.106  0.00  0.00    +0.000 C 
BRANCH   6  10
ATOM     10  O   UNL     1      -1.462  10.320  16.830  0.00  0.00    +0.000 OA
ATOM     11  H   UNL     1      -0.815  10.852  16.330  0.00  0.00    +0.000 HD
ENDBRANCH   6  10
ENDBRANCH   1   7
BRANCH   1  12
ATOM     12  C   UNL     1       0.724  10.189  19.973  0.00  0.00    +0.000 A 
ATOM     13  C   UNL     1       0.812   9.991  21.333  0.00  0.00    +0.000 A 
ATOM     14  C   UNL     1       1.321   8.680  21.514  0.00  0.00    +0.000 A 
ATOM     15  C   UNL     1       1.534   8.128  20.261  0.00  0.00    +0.000 A 
ATOM     16  O   UNL     1       1.140   9.060  19.320  0.00  0.00    +0.000 OA
BRANCH  15  17
ATOM     17  C   UNL     1       2.084   6.830  19.945  0.00  0.00    +0.000 A 
ATOM     18  N   UNL     1       1.905   5.782  20.722  0.00  0.00    +0.000 NA
ATOM     19  C   UNL     1       2.560   4.678  20.189  0.00  0.00    +0.000 A 
ATOM     20  C   UNL     1       2.599   3.381  20.748  0.00  0.00    +0.000 A 
ATOM     21  C   UNL     1       3.302   2.359  20.099  0.00  0.00    +0.000 A 
ATOM     22  C   UNL     1       3.965   2.613  18.900  0.00  0.00    +0.000 A 
ATOM     23  C   UNL     1       3.941   3.887  18.327  0.00  0.00    +0.000 A 
ATOM     24  C   UNL     1       3.233   4.908  18.989  0.00  0.00    +0.000 A 
ATOM     25  S   UNL     1       3.029   6.559  18.541  0.00  0.00    +0.000 S 
ENDBRANCH  15  17
ENDBRANCH   1  12
BRANCH   1  26
ATOM     26  C   UNL     1       1.183  12.578  19.504  0.00  0.00    +0.000 C 
BRANCH  26  27
ATOM     27  C   UNL     1       2.097  13.028  18.391  0.00  0.00    +0.000 C 
ATOM     28  O   UNL     1       2.453  14.182  18.208  0.00  0.00    +0.000 OA
BRANCH  27  29
ATOM     29  O   UNL     1       2.410  12.037  17.530  0.00  0.00    +0.000 OA
ATOM     30  H   UNL     1       1.834  11.954  16.746  0.00  0.00    +0.000 HD
ENDBRANCH  27  29
ENDBRANCH  26  27
ENDBRANCH   1  26
TORSDOF 7
ENDMDL
MODEL 6
REMARK VINA RESULT:      -7.3      1.633      2.157
REMARK  Name = 
REMARK  10 active torsions:
REMARK  status: ('A' for Active; 'I' for Inactive)
REMARK    1  A    between atoms: C_1  and  C_2
REMARK    2  A    between atoms: C_3  and  C_4
REMARK    3  A    between atoms: N_5  and  O_6
REMARK    4  A    between atoms: C_7  and  C_8
REMARK    5  A    between atoms: C_8  and  C_9
REMARK    6  A    between atoms: C_8  and  C_13
REMARK    7  A    between atoms: C_9  and  C_10
REMARK    8  A    between atoms: C_10  and  O_12
REMARK    9  A    between atoms: C_16  and  C_17
REMARK   10  A    between atoms: N_27  and  C_28
REMARK                            x       y       z     vdW  Elec       q    Type
REMARK                         _______ _______ _______ _____ _____    ______ ____
ROOT
ATOM      1  C   UNL     1       4.626   5.824  17.732  0.00  0.00    +0.000 C 
ENDROOT
BRANCH   1   7
ATOM      2  C   UNL     1       1.708   1.913  19.352  0.00  0.00    +0.000 C 
ATOM      3  C   UNL     1       2.902   2.774  19.193  0.00  0.00    +0.000 A 
ATOM      4  C   UNL     1       4.135   2.695  19.807  0.00  0.00    +0.000 A 
ATOM      5  C   UNL     1       4.689   1.706  20.755  0.00  0.00    +0.000 C 
ATOM      6  N   UNL     1       4.800   3.845  19.422  0.00  0.00    +0.000 N 
ATOM      7  C   UNL     1       4.153   4.534  18.449  0.00  0.00    +0.000 A 
ATOM      8  N   UNL     1       2.943   3.906  18.351  0.00  0.00    +0.000 N 
ATOM      9  C   UNL     1       1.803   4.338  17.533  0.00  0.00    +0.000 C 
BRANCH   6  10
ATOM     10  O   UNL     1       5.998   4.264  20.003  0.00  0.00    +0.000 OA
ATOM     11  H   UNL     1       5.999   5.239  19.958  0.00  0.00    +0.000 HD
ENDBRANCH   6  10
ENDBRANCH   1   7
BRANCH   1  12
ATOM     12  C   UNL     1       3.637   6.956  17.721  0.00  0.00    +0.000 A 
ATOM     13  C   UNL     1       3.259   7.907  16.800  0.00  0.00    +0.000 A 
ATOM     14  C   UNL     1       2.331   8.755  17.458  0.00  0.00    +0.000 A 
ATOM     15  C   UNL     1       2.183   8.298  18.757  0.00  0.00    +0.000 A 
ATOM     16  O   UNL     1       2.975   7.175  18.899  0.00  0.00    +0.000 OA
BRANCH  15  17
ATOM     17  C   UNL     1       1.377   8.868  19.812  0.00  0.00    +0.000 A 
ATOM     18  N   UNL     1       0.747  10.017  19.673  0.00  0.00    +0.000 NA
ATOM     19  C   UNL     1       0.070  10.332  20.846  0.00  0.00    +0.000 A 
ATOM     20  C   UNL     1      -0.708  11.488  21.076  0.00  0.00    +0.000 A 
ATOM     21  C   UNL     1      -1.336  11.677  22.312  0.00  0.00    +0.000 A 
ATOM     22  C   UNL     1      -1.198  10.728  23.323  0.00  0.00    +0.000 A 
ATOM     23  C   UNL     1      -0.433   9.576  23.122  0.00  0.00    +0.000 A 
ATOM     24  C   UNL     1       0.195   9.397  21.874  0.00  0.00    +0.000 A 
ATOM     25  S   UNL     1       1.193   8.101  21.334  0.00  0.00    +0.000 S 
ENDBRANCH  15  17
ENDBRANCH   1  12
BRANCH   1  26
ATOM     26  C   UNL     1       5.212   5.656  16.319  0.00  0.00    +0.000 C 
BRANCH  26  27
ATOM     27  C   UNL     1       6.687   5.338  16.364  0.00  0.00    +0.000 C 
ATOM     28  O   UNL     1       7.286   4.964  17.360  0.00  0.00    +0.000 OA
BRANCH  27  29
ATOM     29  O   UNL     1       7.322   5.613  15.206  0.00  0.00    +0.000 OA
ATOM     30  H   UNL     1       7.791   6.469  15.168  0.00  0.00    +0.000 HD
ENDBRANCH  27  29
ENDBRANCH  26  27
ENDBRANCH   1  26
TORSDOF 7
ENDMDL
MODEL 7
REMARK VINA RESULT:      -7.3      1.029      1.192
REMARK  Name = 
REMARK  10 active torsions:
REMARK  status: ('A' for Active; 'I' for Inactive)
REMARK    1  A    between atoms: C_1  and  C_2
REMARK    2  A    between atoms: C_3  and  C_4
REMARK    3  A    between atoms: N_5  and  O_6
REMARK    4  A    between atoms: C_7  and  C_8
REMARK    5  A    between atoms: C_8  and  C_9
REMARK    6  A    between atoms: C_8  and  C_13
REMARK    7  A    between atoms: C_9  and  C_10
REMARK    8  A    between atoms: C_10  and  O_12
REMARK    9  A    between atoms: C_16  and  C_17
REMARK   10  A    between atoms: N_27  and  C_28
REMARK                            x       y       z     vdW  Elec       q    Type
REMARK                         _______ _______ _______ _____ _____    ______ ____
ROOT
ATOM      1  C   UNL     1       3.375   6.224  19.201  0.00  0.00    +0.000 C 
ENDROOT
BRANCH   1   7
ATOM      2  C   UNL     1       0.541   1.963  18.717  0.00  0.00    +0.000 C 
ATOM      3  C   UNL     1       1.353   3.016  19.366  0.00  0.00    +0.000 A 
ATOM      4  C   UNL     1       1.643   3.210  20.701  0.00  0.00    +0.000 A 
ATOM      5  C   UNL     1       1.308   2.409  21.897  0.00  0.00    +0.000 C 
ATOM      6  N   UNL     1       2.286   4.433  20.753  0.00  0.00    +0.000 N 
ATOM      7  C   UNL     1       2.601   4.922  19.527  0.00  0.00    +0.000 A 
ATOM      8  N   UNL     1       1.966   4.075  18.663  0.00  0.00    +0.000 N 
ATOM      9  C   UNL     1       1.871   4.231  17.205  0.00  0.00    +0.000 C 
BRANCH   6  10
ATOM     10  O   UNL     1       2.549   5.107  21.947  0.00  0.00    +0.000 OA
ATOM     11  H   UNL     1       3.392   4.750  22.284  0.00  0.00    +0.000 HD
ENDBRANCH   6  10
ENDBRANCH   1   7
BRANCH   1  12
ATOM     12  C   UNL     1       2.521   7.413  18.857  0.00  0.00    +0.000 A 
ATOM     13  C   UNL     1       2.140   8.030  17.687  0.00  0.00    +0.000 A 
ATOM     14  C   UNL     1       1.398   9.179  18.063  0.00  0.00    +0.000 A 
ATOM     15  C   UNL     1       1.362   9.229  19.447  0.00  0.00    +0.000 A 
ATOM     16  O   UNL     1       2.038   8.122  19.924  0.00  0.00    +0.000 OA
BRANCH  15  17
ATOM     17  C   UNL     1       0.759  10.241  20.283  0.00  0.00    +0.000 A 
ATOM     18  N   UNL     1      -0.099   9.945  21.239  0.00  0.00    +0.000 NA
ATOM     19  C   UNL     1      -0.534  11.108  21.863  0.00  0.00    +0.000 A 
ATOM     20  C   UNL     1      -1.460  11.189  22.927  0.00  0.00    +0.000 A 
ATOM     21  C   UNL     1      -1.808  12.434  23.461  0.00  0.00    +0.000 A 
ATOM     22  C   UNL     1      -1.244  13.602  22.950  0.00  0.00    +0.000 A 
ATOM     23  C   UNL     1      -0.325  13.550  21.898  0.00  0.00    +0.000 A 
ATOM     24  C   UNL     1       0.016  12.291  21.367  0.00  0.00    +0.000 A 
ATOM     25  S   UNL     1       1.099  11.909  20.083  0.00  0.00    +0.000 S 
ENDBRANCH  15  17
ENDBRANCH   1  12
BRANCH   1  26
ATOM     26  C   UNL     1       4.517   6.114  18.175  0.00  0.00    +0.000 C 
BRANCH  26  27
ATOM     27  C   UNL     1       5.462   4.988  18.517  0.00  0.00    +0.000 C 
ATOM     28  O   UNL     1       5.530   3.929  17.912  0.00  0.00    +0.000 OA
BRANCH  27  29
ATOM     29  O   UNL     1       6.170   5.216  19.642  0.00  0.00    +0.000 OA
ATOM     30  H   UNL     1       6.342   6.154  19.856  0.00  0.00    +0.000 HD
ENDBRANCH  27  29
ENDBRANCH  26  27
ENDBRANCH   1  26
TORSDOF 7
ENDMDL
MODEL 8
REMARK VINA RESULT:      -7.2      3.381      8.654
REMARK  Name = 
REMARK  10 active torsions:
REMARK  status: ('A' for Active; 'I' for Inactive)
REMARK    1  A    between atoms: C_1  and  C_2
REMARK    2  A    between atoms: C_3  and  C_4
REMARK    3  A    between atoms: N_5  and  O_6
REMARK    4  A    between atoms: C_7  and  C_8
REMARK    5  A    between atoms: C_8  and  C_9
REMARK    6  A    between atoms: C_8  and  C_13
REMARK    7  A    between atoms: C_9  and  C_10
REMARK    8  A    between atoms: C_10  and  O_12
REMARK    9  A    between atoms: C_16  and  C_17
REMARK   10  A    between atoms: N_27  and  C_28
REMARK                            x       y       z     vdW  Elec       q    Type
REMARK                         _______ _______ _______ _____ _____    ______ ____
ROOT
ATOM      1  C   UNL     1       0.301  11.290  19.667  0.00  0.00    +0.000 C 
ENDROOT
BRANCH   1   7
ATOM      2  C   UNL     1      -4.522  12.833  20.552  0.00  0.00    +0.000 C 
ATOM      3  C   UNL     1      -3.134  12.405  20.835  0.00  0.00    +0.000 A 
ATOM      4  C   UNL     1      -2.462  12.328  22.038  0.00  0.00    +0.000 A 
ATOM      5  C   UNL     1      -2.914  12.574  23.423  0.00  0.00    +0.000 C 
ATOM      6  N   UNL     1      -1.153  12.039  21.698  0.00  0.00    +0.000 N 
ATOM      7  C   UNL     1      -1.000  11.727  20.387  0.00  0.00    +0.000 A 
ATOM      8  N   UNL     1      -2.217  12.016  19.836  0.00  0.00    +0.000 N 
ATOM      9  C   UNL     1      -2.554  11.984  18.407  0.00  0.00    +0.000 C 
BRANCH   6  10
ATOM     10  O   UNL     1      -0.097  12.098  22.609  0.00  0.00    +0.000 OA
ATOM     11  H   UNL     1       0.705  12.290  22.089  0.00  0.00    +0.000 HD
ENDBRANCH   6  10
ENDBRANCH   1   7
BRANCH   1  12
ATOM     12  C   UNL     1       0.770   9.895  19.973  0.00  0.00    +0.000 A 
ATOM     13  C   UNL     1       0.739   9.080  21.082  0.00  0.00    +0.000 A 
ATOM     14  C   UNL     1       1.449   7.902  20.734  0.00  0.00    +0.000 A 
ATOM     15  C   UNL     1       1.896   8.043  19.431  0.00  0.00    +0.000 A 
ATOM     16  O   UNL     1       1.450   9.266  18.965  0.00  0.00    +0.000 OA
BRANCH  15  17
ATOM     17  C   UNL     1       2.699   7.120  18.663  0.00  0.00    +0.000 A 
ATOM     18  N   UNL     1       3.537   7.522  17.730  0.00  0.00    +0.000 NA
ATOM     19  C   UNL     1       4.156   6.425  17.142  0.00  0.00    +0.000 A 
ATOM     20  C   UNL     1       5.108   6.464  16.100  0.00  0.00    +0.000 A 
ATOM     21  C   UNL     1       5.651   5.274  15.601  0.00  0.00    +0.000 A 
ATOM     22  C   UNL     1       5.257   4.046  16.129  0.00  0.00    +0.000 A 
ATOM     23  C   UNL     1       4.316   3.981  17.160  0.00  0.00    +0.000 A 
ATOM     24  C   UNL     1       3.775   5.184  17.652  0.00  0.00    +0.000 A 
ATOM     25  S   UNL     1       2.609   5.423  18.897  0.00  0.00    +0.000 S 
ENDBRANCH  15  17
ENDBRANCH   1  12
BRANCH   1  26
ATOM     26  C   UNL     1       1.499  12.252  19.756  0.00  0.00    +0.000 C 
BRANCH  26  27
ATOM     27  C   UNL     1       1.514  13.226  18.603  0.00  0.00    +0.000 C 
ATOM     28  O   UNL     1       0.884  14.272  18.568  0.00  0.00    +0.000 OA
BRANCH  27  29
ATOM     29  O   UNL     1       2.221  12.780  17.544  0.00  0.00    +0.000 OA
ATOM     30  H   UNL     1       3.050  12.307  17.751  0.00  0.00    +0.000 HD
ENDBRANCH  27  29
ENDBRANCH  26  27
ENDBRANCH   1  26
TORSDOF 7
ENDMDL
MODEL 9
REMARK VINA RESULT:      -7.2      3.424      8.715
REMARK  Name = 
REMARK  10 active torsions:
REMARK  status: ('A' for Active; 'I' for Inactive)
REMARK    1  A    between atoms: C_1  and  C_2
REMARK    2  A    between atoms: C_3  and  C_4
REMARK    3  A    between atoms: N_5  and  O_6
REMARK    4  A    between atoms: C_7  and  C_8
REMARK    5  A    between atoms: C_8  and  C_9
REMARK    6  A    between atoms: C_8  and  C_13
REMARK    7  A    between atoms: C_9  and  C_10
REMARK    8  A    between atoms: C_10  and  O_12
REMARK    9  A    between atoms: C_16  and  C_17
REMARK   10  A    between atoms: N_27  and  C_28
REMARK                            x       y       z     vdW  Elec       q    Type
REMARK                         _______ _______ _______ _____ _____    ______ ____
ROOT
ATOM      1  C   UNL     1       0.358  11.480  19.322  0.00  0.00    +0.000 C 
ENDROOT
BRANCH   1   7
ATOM      2  C   UNL     1      -3.567  12.908  22.319  0.00  0.00    +0.000 C 
ATOM      3  C   UNL     1      -2.835  12.517  21.094  0.00  0.00    +0.000 A 
ATOM      4  C   UNL     1      -3.308  12.286  19.818  0.00  0.00    +0.000 A 
ATOM      5  C   UNL     1      -4.663  12.417  19.244  0.00  0.00    +0.000 C 
ATOM      6  N   UNL     1      -2.224  11.785  19.121  0.00  0.00    +0.000 N 
ATOM      7  C   UNL     1      -1.058  11.878  19.808  0.00  0.00    +0.000 A 
ATOM      8  N   UNL     1      -1.445  12.273  21.059  0.00  0.00    +0.000 N 
ATOM      9  C   UNL     1      -0.579  12.396  22.238  0.00  0.00    +0.000 C 
BRANCH   6  10
ATOM     10  O   UNL     1      -2.332  11.211  17.853  0.00  0.00    +0.000 OA
ATOM     11  H   UNL     1      -2.111  10.267  17.958  0.00  0.00    +0.000 HD
ENDBRANCH   6  10
ENDBRANCH   1   7
BRANCH   1  12
ATOM     12  C   UNL     1       0.798  10.089  19.687  0.00  0.00    +0.000 A 
ATOM     13  C   UNL     1       0.736   9.317  20.826  0.00  0.00    +0.000 A 
ATOM     14  C   UNL     1       1.430   8.115  20.533  0.00  0.00    +0.000 A 
ATOM     15  C   UNL     1       1.899   8.200  19.233  0.00  0.00    +0.000 A 
ATOM     16  O   UNL     1       1.483   9.411  18.714  0.00  0.00    +0.000 OA
BRANCH  15  17
ATOM     17  C   UNL     1       2.698   7.234  18.513  0.00  0.00    +0.000 A 
ATOM     18  N   UNL     1       3.556   7.588  17.578  0.00  0.00    +0.000 NA
ATOM     19  C   UNL     1       4.165   6.459  17.041  0.00  0.00    +0.000 A 
ATOM     20  C   UNL     1       5.133   6.443  16.013  0.00  0.00    +0.000 A 
ATOM     21  C   UNL     1       5.663   5.226  15.568  0.00  0.00    +0.000 A 
ATOM     22  C   UNL     1       5.241   4.026  16.136  0.00  0.00    +0.000 A 
ATOM     23  C   UNL     1       4.285   4.015  17.154  0.00  0.00    +0.000 A 
ATOM     24  C   UNL     1       3.757   5.244  17.592  0.00  0.00    +0.000 A 
ATOM     25  S   UNL     1       2.576   5.550  18.810  0.00  0.00    +0.000 S 
ENDBRANCH  15  17
ENDBRANCH   1  12
BRANCH   1  26
ATOM     26  C   UNL     1       1.499  12.464  19.633  0.00  0.00    +0.000 C 
BRANCH  26  27
ATOM     27  C   UNL     1       2.147  12.977  18.370  0.00  0.00    +0.000 C 
ATOM     28  O   UNL     1       2.278  14.158  18.087  0.00  0.00    +0.000 OA
BRANCH  27  29
ATOM     29  O   UNL     1       2.482  11.993  17.510  0.00  0.00    +0.000 OA
ATOM     30  H   UNL     1       3.400  12.010  17.177  0.00  0.00    +0.000 HD
ENDBRANCH  27  29
ENDBRANCH  26  27
ENDBRANCH   1  26
TORSDOF 7
ENDMDL
