MODEL 1
REMARK VINA RESULT:      -8.0      0.000      0.000
REMARK  Name = 
REMARK  7 active torsions:
REMARK  status: ('A' for Active; 'I' for Inactive)
REMARK    1  A    between atoms: C_2  and  O_3
REMARK    2  A    between atoms: C_2  and  C_4
REMARK    3  A    between atoms: C_7  and  C_8
REMARK    4  A    between atoms: C_8  and  C_10
REMARK    5  A    between atoms: C_10  and  C_11
REMARK    6  A    between atoms: C_11  and  C_12
REMARK    7  A    between atoms: C_15  and  C_16
REMARK                            x       y       z     vdW  Elec       q    Type
REMARK                         _______ _______ _______ _____ _____    ______ ____
ROOT
ATOM      1  C   UNL     1       3.590   6.808  17.286  0.00  0.00    +0.000 C 
ENDROOT
BRANCH   1   2
ATOM      2  C   UNL     1       2.706   7.555  18.267  0.00  0.00    +0.000 A 
ATOM      3  C   UNL     1       2.465   7.101  19.568  0.00  0.00    +0.000 A 
ATOM      4  C   UNL     1       1.656   7.821  20.448  0.00  0.00    +0.000 A 
ATOM      5  C   UNL     1       1.068   9.039  20.078  0.00  0.00    +0.000 A 
ATOM      6  C   UNL     1       1.305   9.485  18.766  0.00  0.00    +0.000 A 
ATOM      7  C   UNL     1       2.104   8.755  17.872  0.00  0.00    +0.000 A 
BRANCH   5   8
ATOM      8  C   UNL     1       0.249   9.812  21.041  0.00  0.00    +0.000 A 
ATOM      9  C   UNL     1      -0.333  11.044  20.682  0.00  0.00    +0.000 A 
ATOM     10  C   UNL     1      -1.100  11.784  21.585  0.00  0.00    +0.000 A 
ATOM     11  C   UNL     1      -1.321  11.298  22.869  0.00  0.00    +0.000 A 
ATOM     12  C   UNL     1      -0.768  10.079  23.250  0.00  0.00    +0.000 A 
ATOM     13  C   UNL     1       0.016   9.351  22.348  0.00  0.00    +0.000 A 
ENDBRANCH   5   8
ENDBRANCH   1   2
BRANCH   1  14
ATOM     14  C   UNL     1       4.604   5.876  17.948  0.00  0.00    +0.000 C 
BRANCH  14  15
ATOM     15  C   UNL     1       4.640   4.473  17.375  0.00  0.00    +0.000 C 
ATOM     16  O   UNL     1       5.289   4.191  16.367  0.00  0.00    +0.000 OA
BRANCH  15  20
ATOM     17  C   UNL     1       2.592   2.741  19.714  0.00  0.00    +0.000 A 
ATOM     18  C   UNL     1       2.904   1.740  18.824  0.00  0.00    +0.000 A 
ATOM     19  N   UNL     1       3.690   2.234  17.815  0.00  0.00    +0.000 NA
ATOM     20  C   UNL     1       3.839   3.512  18.120  0.00  0.00    +0.000 A 
ATOM     21  O   UNL     1       3.178   3.899  19.260  0.00  0.00    +0.000 OA
BRANCH  17  23
ATOM     22  O   UNL     1       2.265   2.471  22.039  0.00  0.00    +0.000 OA
ATOM     23  C   UNL     1       1.829   2.730  20.929  0.00  0.00    +0.000 C 
BRANCH  23  24
ATOM     24  O   UNL     1       0.528   3.051  20.708  0.00  0.00    +0.000 OA
ATOM     25  H   UNL     1       0.019   3.074  21.545  0.00  0.00    +0.000 HD
ENDBRANCH  23  24
ENDBRANCH  17  23
ENDBRANCH  15  20
ENDBRANCH  14  15
ENDBRANCH   1  14
TORSDOF 7
ENDMDL
MODEL 2
REMARK VINA RESULT:      -8.0      1.690      3.983
REMARK  Name = 
REMARK  7 active torsions:
REMARK  status: ('A' for Active; 'I' for Inactive)
REMARK    1  A    between atoms: C_2  and  O_3
REMARK    2  A    between atoms: C_2  and  C_4
REMARK    3  A    between atoms: C_7  and  C_8
REMARK    4  A    between atoms: C_8  and  C_10
REMARK    5  A    between atoms: C_10  and  C_11
REMARK    6  A    between atoms: C_11  and  C_12
REMARK    7  A    between atoms: C_15  and  C_16
REMARK                            x       y       z     vdW  Elec       q    Type
REMARK                         _______ _______ _______ _____ _____    ______ ____
ROOT
ATOM      1  C   UNL     1       3.313   6.619  18.113  0.00  0.00    +0.000 C 
ENDROOT
BRANCH   1   2
ATOM      2  C   UNL     1       2.421   7.597  18.856  0.00  0.00    +0.000 A 
ATOM      3  C   UNL     1       1.886   8.741  18.255  0.00  0.00    +0.000 A 
ATOM      4  C   UNL     1       1.060   9.613  18.966  0.00  0.00    +0.000 A 
ATOM      5  C   UNL     1       0.712   9.372  20.302  0.00  0.00    +0.000 A 
ATOM      6  C   UNL     1       1.262   8.227  20.904  0.00  0.00    +0.000 A 
ATOM      7  C   UNL     1       2.107   7.357  20.199  0.00  0.00    +0.000 A 
BRANCH   5   8
ATOM      8  C   UNL     1      -0.203  10.285  21.027  0.00  0.00    +0.000 A 
ATOM      9  C   UNL     1      -0.902  11.306  20.354  0.00  0.00    +0.000 A 
ATOM     10  C   UNL     1      -1.761  12.176  21.030  0.00  0.00    +0.000 A 
ATOM     11  C   UNL     1      -1.956  12.033  22.399  0.00  0.00    +0.000 A 
ATOM     12  C   UNL     1      -1.287  11.028  23.090  0.00  0.00    +0.000 A 
ATOM     13  C   UNL     1      -0.414  10.170  22.412  0.00  0.00    +0.000 A 
ENDBRANCH   5   8
ENDBRANCH   1   2
BRANCH   1  14
ATOM     14  C   UNL     1       2.800   5.179  18.126  0.00  0.00    +0.000 C 
BRANCH  14  15
ATOM     15  C   UNL     1       3.849   4.139  18.465  0.00  0.00    +0.000 C 
ATOM     16  O   UNL     1       3.632   3.218  19.253  0.00  0.00    +0.000 OA
BRANCH  15  20
ATOM     17  C   UNL     1       6.504   4.514  16.125  0.00  0.00    +0.000 A 
ATOM     18  C   UNL     1       7.177   4.582  17.322  0.00  0.00    +0.000 A 
ATOM     19  N   UNL     1       6.296   4.475  18.367  0.00  0.00    +0.000 NA
ATOM     20  C   UNL     1       5.118   4.339  17.780  0.00  0.00    +0.000 A 
ATOM     21  O   UNL     1       5.166   4.373  16.408  0.00  0.00    +0.000 OA
BRANCH  17  23
ATOM     22  O   UNL     1       7.753   5.366  14.308  0.00  0.00    +0.000 OA
ATOM     23  C   UNL     1       6.969   4.552  14.768  0.00  0.00    +0.000 C 
BRANCH  23  24
ATOM     24  O   UNL     1       6.428   3.553  14.023  0.00  0.00    +0.000 OA
ATOM     25  H   UNL     1       5.696   3.883  13.461  0.00  0.00    +0.000 HD
ENDBRANCH  23  24
ENDBRANCH  17  23
ENDBRANCH  15  20
ENDBRANCH  14  15
ENDBRANCH   1  14
TORSDOF 7
ENDMDL
MODEL 3
REMARK VINA RESULT:      -7.9      1.716      3.994
REMARK  Name = 
REMARK  7 active torsions:
REMARK  status: ('A' for Active; 'I' for Inactive)
REMARK    1  A    between atoms: C_2  and  O_3
REMARK    2  A    between atoms: C_2  and  C_4
REMARK    3  A    between atoms: C_7  and  C_8
REMARK    4  A    between atoms: C_8  and  C_10
REMARK    5  A    between atoms: C_10  and  C_11
REMARK    6  A    between atoms: C_11  and  C_12
REMARK    7  A    between atoms: C_15  and  C_16
REMARK                            x       y       z     vdW  Elec       q    Type
REMARK                         _______ _______ _______ _____ _____    ______ ____
ROOT
ATOM      1  C   UNL     1       3.403   6.344  18.379  0.00  0.00    +0.000 C 
ENDROOT
BRANCH   1   2
ATOM      2  C   UNL     1       2.463   7.307  19.081  0.00  0.00    +0.000 A 
ATOM      3  C   UNL     1       2.015   7.109  20.391  0.00  0.00    +0.000 A 
ATOM      4  C   UNL     1       1.160   8.022  21.009  0.00  0.00    +0.000 A 
ATOM      5  C   UNL     1       0.730   9.186  20.357  0.00  0.00    +0.000 A 
ATOM      6  C   UNL     1       1.175   9.374  19.037  0.00  0.00    +0.000 A 
ATOM      7  C   UNL     1       2.020   8.450  18.404  0.00  0.00    +0.000 A 
BRANCH   5   8
ATOM      8  C   UNL     1      -0.142  10.167  21.046  0.00  0.00    +0.000 A 
ATOM      9  C   UNL     1      -0.384  10.084  22.431  0.00  0.00    +0.000 A 
ATOM     10  C   UNL     1      -1.210  10.999  23.088  0.00  0.00    +0.000 A 
ATOM     11  C   UNL     1      -1.802  12.035  22.374  0.00  0.00    +0.000 A 
ATOM     12  C   UNL     1      -1.574  12.150  21.007  0.00  0.00    +0.000 A 
ATOM     13  C   UNL     1      -0.760  11.220  20.350  0.00  0.00    +0.000 A 
ENDBRANCH   5   8
ENDBRANCH   1   2
BRANCH   1  14
ATOM     14  C   UNL     1       2.955   4.884  18.439  0.00  0.00    +0.000 C 
BRANCH  14  15
ATOM     15  C   UNL     1       4.079   3.887  18.638  0.00  0.00    +0.000 C 
ATOM     16  O   UNL     1       3.966   2.908  19.375  0.00  0.00    +0.000 OA
BRANCH  15  20
ATOM     17  C   UNL     1       6.558   4.494  16.158  0.00  0.00    +0.000 A 
ATOM     18  C   UNL     1       7.283   4.640  17.318  0.00  0.00    +0.000 A 
ATOM     19  N   UNL     1       6.473   4.459  18.408  0.00  0.00    +0.000 NA
ATOM     20  C   UNL     1       5.285   4.203  17.885  0.00  0.00    +0.000 A 
ATOM     21  O   UNL     1       5.257   4.226  16.512  0.00  0.00    +0.000 OA
BRANCH  17  23
ATOM     22  O   UNL     1       7.648   5.427  14.279  0.00  0.00    +0.000 OA
ATOM     23  C   UNL     1       6.945   4.563  14.778  0.00  0.00    +0.000 C 
BRANCH  23  24
ATOM     24  O   UNL     1       6.433   3.529  14.061  0.00  0.00    +0.000 OA
ATOM     25  H   UNL     1       5.552   3.752  13.694  0.00  0.00    +0.000 HD
ENDBRANCH  23  24
ENDBRANCH  17  23
ENDBRANCH  15  20
ENDBRANCH  14  15
ENDBRANCH   1  14
TORSDOF 7
ENDMDL
MODEL 4
REMARK VINA RESULT:      -7.9      1.819      3.942
REMARK  Name = 
REMARK  7 active torsions:
REMARK  status: ('A' for Active; 'I' for Inactive)
REMARK    1  A    between atoms: C_2  and  O_3
REMARK    2  A    between atoms: C_2  and  C_4
REMARK    3  A    between atoms: C_7  and  C_8
REMARK    4  A    between atoms: C_8  and  C_10
REMARK    5  A    between atoms: C_10  and  C_11
REMARK    6  A    between atoms: C_11  and  C_12
REMARK    7  A    between atoms: C_15  and  C_16
REMARK                            x       y       z     vdW  Elec       q    Type
REMARK                         _______ _______ _______ _____ _____    ______ ____
ROOT
ATOM      1  C   UNL     1       3.290   6.909  17.997  0.00  0.00    +0.000 C 
ENDROOT
BRANCH   1   2
ATOM      2  C   UNL     1       2.340   7.784  18.794  0.00  0.00    +0.000 A 
ATOM      3  C   UNL     1       2.016   7.530  20.131  0.00  0.00    +0.000 A 
ATOM      4  C   UNL     1       1.147   8.363  20.836  0.00  0.00    +0.000 A 
ATOM      5  C   UNL     1       0.579   9.502  20.247  0.00  0.00    +0.000 A 
ATOM      6  C   UNL     1       0.899   9.746  18.900  0.00  0.00    +0.000 A 
ATOM      7  C   UNL     1       1.758   8.900  18.182  0.00  0.00    +0.000 A 
BRANCH   5   8
ATOM      8  C   UNL     1      -0.306  10.400  21.026  0.00  0.00    +0.000 A 
ATOM      9  C   UNL     1      -1.004  11.455  20.406  0.00  0.00    +0.000 A 
ATOM     10  C   UNL     1      -1.834  12.312  21.132  0.00  0.00    +0.000 A 
ATOM     11  C   UNL     1      -2.002  12.122  22.499  0.00  0.00    +0.000 A 
ATOM     12  C   UNL     1      -1.333  11.083  23.138  0.00  0.00    +0.000 A 
ATOM     13  C   UNL     1      -0.488  10.238  22.410  0.00  0.00    +0.000 A 
ENDBRANCH   5   8
ENDBRANCH   1   2
BRANCH   1  14
ATOM     14  C   UNL     1       2.958   5.418  18.057  0.00  0.00    +0.000 C 
BRANCH  14  15
ATOM     15  C   UNL     1       4.066   4.547  18.615  0.00  0.00    +0.000 C 
ATOM     16  O   UNL     1       3.926   3.885  19.644  0.00  0.00    +0.000 OA
BRANCH  15  20
ATOM     17  C   UNL     1       6.548   4.575  16.066  0.00  0.00    +0.000 A 
ATOM     18  C   UNL     1       7.319   4.539  17.204  0.00  0.00    +0.000 A 
ATOM     19  N   UNL     1       6.520   4.545  18.317  0.00  0.00    +0.000 NA
ATOM     20  C   UNL     1       5.291   4.577  17.829  0.00  0.00    +0.000 A 
ATOM     21  O   UNL     1       5.231   4.616  16.457  0.00  0.00    +0.000 OA
BRANCH  17  23
ATOM     22  O   UNL     1       6.433   3.815  13.830  0.00  0.00    +0.000 OA
ATOM     23  C   UNL     1       6.902   4.560  14.675  0.00  0.00    +0.000 C 
BRANCH  23  24
ATOM     24  O   UNL     1       7.844   5.496  14.386  0.00  0.00    +0.000 OA
ATOM     25  H   UNL     1       7.465   6.236  13.869  0.00  0.00    +0.000 HD
ENDBRANCH  23  24
ENDBRANCH  17  23
ENDBRANCH  15  20
ENDBRANCH  14  15
ENDBRANCH   1  14
TORSDOF 7
ENDMDL
MODEL 5
REMARK VINA RESULT:      -7.8      0.760      1.400
REMARK  Name = 
REMARK  7 active torsions:
REMARK  status: ('A' for Active; 'I' for Inactive)
REMARK    1  A    between atoms: C_2  and  O_3
REMARK    2  A    between atoms: C_2  and  C_4
REMARK    3  A    between atoms: C_7  and  C_8
REMARK    4  A    between atoms: C_8  and  C_10
REMARK    5  A    between atoms: C_10  and  C_11
REMARK    6  A    between atoms: C_11  and  C_12
REMARK    7  A    between atoms: C_15  and  C_16
REMARK                            x       y       z     vdW  Elec       q    Type
REMARK                         _______ _______ _______ _____ _____    ______ ____
ROOT
ATOM      1  C   UNL     1       3.692   6.256  17.482  0.00  0.00    +0.000 C 
ENDROOT
BRANCH   1   2
ATOM      2  C   UNL     1       2.822   7.106  18.390  0.00  0.00    +0.000 A 
ATOM      3  C   UNL     1       2.498   6.731  19.698  0.00  0.00    +0.000 A 
ATOM      4  C   UNL     1       1.704   7.544  20.508  0.00  0.00    +0.000 A 
ATOM      5  C   UNL     1       1.216   8.779  20.059  0.00  0.00    +0.000 A 
ATOM      6  C   UNL     1       1.535   9.145  18.740  0.00  0.00    +0.000 A 
ATOM      7  C   UNL     1       2.318   8.323  17.915  0.00  0.00    +0.000 A 
BRANCH   5   8
ATOM      8  C   UNL     1       0.412   9.649  20.949  0.00  0.00    +0.000 A 
ATOM      9  C   UNL     1       0.137   9.278  22.280  0.00  0.00    +0.000 A 
ATOM     10  C   UNL     1      -0.626  10.088  23.124  0.00  0.00    +0.000 A 
ATOM     11  C   UNL     1      -1.119  11.303  22.661  0.00  0.00    +0.000 A 
ATOM     12  C   UNL     1      -0.857  11.701  21.354  0.00  0.00    +0.000 A 
ATOM     13  C   UNL     1      -0.107  10.878  20.506  0.00  0.00    +0.000 A 
ENDBRANCH   5   8
ENDBRANCH   1   2
BRANCH   1  14
ATOM     14  C   UNL     1       5.151   6.166  17.928  0.00  0.00    +0.000 C 
BRANCH  14  15
ATOM     15  C   UNL     1       5.608   4.772  18.312  0.00  0.00    +0.000 C 
ATOM     16  O   UNL     1       6.797   4.452  18.329  0.00  0.00    +0.000 OA
BRANCH  15  20
ATOM     17  C   UNL     1       2.974   2.936  19.844  0.00  0.00    +0.000 A 
ATOM     18  C   UNL     1       3.090   2.296  18.633  0.00  0.00    +0.000 A 
ATOM     19  N   UNL     1       4.066   2.891  17.876  0.00  0.00    +0.000 NA
ATOM     20  C   UNL     1       4.518   3.867  18.646  0.00  0.00    +0.000 A 
ATOM     21  O   UNL     1       3.883   3.968  19.859  0.00  0.00    +0.000 OA
BRANCH  17  23
ATOM     22  O   UNL     1       0.912   2.780  20.990  0.00  0.00    +0.000 OA
ATOM     23  C   UNL     1       2.128   2.686  20.977  0.00  0.00    +0.000 C 
BRANCH  23  24
ATOM     24  O   UNL     1       2.848   2.318  22.069  0.00  0.00    +0.000 OA
ATOM     25  H   UNL     1       3.693   1.893  21.814  0.00  0.00    +0.000 HD
ENDBRANCH  23  24
ENDBRANCH  17  23
ENDBRANCH  15  20
ENDBRANCH  14  15
ENDBRANCH   1  14
TORSDOF 7
ENDMDL
MODEL 6
REMARK VINA RESULT:      -7.8      2.850      4.906
REMARK  Name = 
REMARK  7 active torsions:
REMARK  status: ('A' for Active; 'I' for Inactive)
REMARK    1  A    between atoms: C_2  and  O_3
REMARK    2  A    between atoms: C_2  and  C_4
REMARK    3  A    between atoms: C_7  and  C_8
REMARK    4  A    between atoms: C_8  and  C_10
REMARK    5  A    between atoms: C_10  and  C_11
REMARK    6  A    between atoms: C_11  and  C_12
REMARK    7  A    between atoms: C_15  and  C_16
REMARK                            x       y       z     vdW  Elec       q    Type
REMARK                         _______ _______ _______ _____ _____    ______ ____
ROOT
ATOM      1  C   UNL     1       4.141   5.817  17.307  0.00  0.00    +0.000 C 
ENDROOT
BRANCH   1   2
ATOM      2  C   UNL     1       3.251   6.645  18.215  0.00  0.00    +0.000 A 
ATOM      3  C   UNL     1       2.834   6.204  19.475  0.00  0.00    +0.000 A 
ATOM      4  C   UNL     1       2.024   6.998  20.288  0.00  0.00    +0.000 A 
ATOM      5  C   UNL     1       1.612   8.278  19.892  0.00  0.00    +0.000 A 
ATOM      6  C   UNL     1       2.026   8.711  18.620  0.00  0.00    +0.000 A 
ATOM      7  C   UNL     1       2.825   7.909  17.791  0.00  0.00    +0.000 A 
BRANCH   5   8
ATOM      8  C   UNL     1       0.790   9.125  20.788  0.00  0.00    +0.000 A 
ATOM      9  C   UNL     1       0.725   8.874  22.173  0.00  0.00    +0.000 A 
ATOM     10  C   UNL     1      -0.053   9.662  23.025  0.00  0.00    +0.000 A 
ATOM     11  C   UNL     1      -0.773  10.736  22.512  0.00  0.00    +0.000 A 
ATOM     12  C   UNL     1      -0.721  11.014  21.150  0.00  0.00    +0.000 A 
ATOM     13  C   UNL     1       0.046  10.211  20.298  0.00  0.00    +0.000 A 
ENDBRANCH   5   8
ENDBRANCH   1   2
BRANCH   1  14
ATOM     14  C   UNL     1       5.001   4.792  18.047  0.00  0.00    +0.000 C 
BRANCH  14  15
ATOM     15  C   UNL     1       6.427   4.686  17.545  0.00  0.00    +0.000 C 
ATOM     16  O   UNL     1       7.398   4.789  18.296  0.00  0.00    +0.000 OA
BRANCH  15  20
ATOM     17  C   UNL     1       7.204   4.748  14.073  0.00  0.00    +0.000 A 
ATOM     18  C   UNL     1       6.221   3.788  14.120  0.00  0.00    +0.000 A 
ATOM     19  N   UNL     1       5.801   3.605  15.411  0.00  0.00    +0.000 NA
ATOM     20  C   UNL     1       6.531   4.459  16.110  0.00  0.00    +0.000 A 
ATOM     21  O   UNL     1       7.427   5.180  15.359  0.00  0.00    +0.000 OA
BRANCH  17  23
ATOM     22  O   UNL     1       8.851   6.112  13.063  0.00  0.00    +0.000 OA
ATOM     23  C   UNL     1       7.937   5.307  12.973  0.00  0.00    +0.000 C 
BRANCH  23  24
ATOM     24  O   UNL     1       7.495   4.830  11.780  0.00  0.00    +0.000 OA
ATOM     25  H   UNL     1       8.122   5.041  11.057  0.00  0.00    +0.000 HD
ENDBRANCH  23  24
ENDBRANCH  17  23
ENDBRANCH  15  20
ENDBRANCH  14  15
ENDBRANCH   1  14
TORSDOF 7
ENDMDL
MODEL 7
REMARK VINA RESULT:      -7.8      0.605      1.293
REMARK  Name = 
REMARK  7 active torsions:
REMARK  status: ('A' for Active; 'I' for Inactive)
REMARK    1  A    between atoms: C_2  and  O_3
REMARK    2  A    between atoms: C_2  and  C_4
REMARK    3  A    between atoms: C_7  and  C_8
REMARK    4  A    between atoms: C_8  and  C_10
REMARK    5  A    between atoms: C_10  and  C_11
REMARK    6  A    between atoms: C_11  and  C_12
REMARK    7  A    between atoms: C_15  and  C_16
REMARK                            x       y       z     vdW  Elec       q    Type
REMARK                         _______ _______ _______ _____ _____    ______ ____
ROOT
ATOM      1  C   UNL     1       3.517   6.850  17.282  0.00  0.00    +0.000 C 
ENDROOT
BRANCH   1   2
ATOM      2  C   UNL     1       2.653   7.616  18.267  0.00  0.00    +0.000 A 
ATOM      3  C   UNL     1       2.411   7.169  19.570  0.00  0.00    +0.000 A 
ATOM      4  C   UNL     1       1.620   7.906  20.453  0.00  0.00    +0.000 A 
ATOM      5  C   UNL     1       1.052   9.133  20.083  0.00  0.00    +0.000 A 
ATOM      6  C   UNL     1       1.289   9.571  18.769  0.00  0.00    +0.000 A 
ATOM      7  C   UNL     1       2.069   8.825  17.872  0.00  0.00    +0.000 A 
BRANCH   5   8
ATOM      8  C   UNL     1       0.252   9.923  21.049  0.00  0.00    +0.000 A 
ATOM      9  C   UNL     1      -0.093   9.401  22.311  0.00  0.00    +0.000 A 
ATOM     10  C   UNL     1      -0.853  10.135  23.225  0.00  0.00    +0.000 A 
ATOM     11  C   UNL     1      -1.272  11.421  22.905  0.00  0.00    +0.000 A 
ATOM     12  C   UNL     1      -0.938  11.968  21.669  0.00  0.00    +0.000 A 
ATOM     13  C   UNL     1      -0.192  11.222  20.750  0.00  0.00    +0.000 A 
ENDBRANCH   5   8
ENDBRANCH   1   2
BRANCH   1  14
ATOM     14  C   UNL     1       4.348   5.737  17.919  0.00  0.00    +0.000 C 
BRANCH  14  15
ATOM     15  C   UNL     1       4.078   4.353  17.367  0.00  0.00    +0.000 C 
ATOM     16  O   UNL     1       4.557   3.965  16.300  0.00  0.00    +0.000 OA
BRANCH  15  20
ATOM     17  C   UNL     1       2.347   2.738  20.024  0.00  0.00    +0.000 A 
ATOM     18  C   UNL     1       1.815   2.109  18.923  0.00  0.00    +0.000 A 
ATOM     19  N   UNL     1       2.358   2.624  17.775  0.00  0.00    +0.000 NA
ATOM     20  C   UNL     1       3.206   3.544  18.207  0.00  0.00    +0.000 A 
ATOM     21  O   UNL     1       3.239   3.683  19.573  0.00  0.00    +0.000 OA
BRANCH  17  23
ATOM     22  O   UNL     1       1.070   2.723  22.013  0.00  0.00    +0.000 OA
ATOM     23  C   UNL     1       2.127   2.547  21.429  0.00  0.00    +0.000 C 
BRANCH  23  24
ATOM     24  O   UNL     1       3.255   2.133  22.063  0.00  0.00    +0.000 OA
ATOM     25  H   UNL     1       3.044   1.578  22.842  0.00  0.00    +0.000 HD
ENDBRANCH  23  24
ENDBRANCH  17  23
ENDBRANCH  15  20
ENDBRANCH  14  15
ENDBRANCH   1  14
TORSDOF 7
ENDMDL
MODEL 8
REMARK VINA RESULT:      -7.8      2.292      4.463
REMARK  Name = 
REMARK  7 active torsions:
REMARK  status: ('A' for Active; 'I' for Inactive)
REMARK    1  A    between atoms: C_2  and  O_3
REMARK    2  A    between atoms: C_2  and  C_4
REMARK    3  A    between atoms: C_7  and  C_8
REMARK    4  A    between atoms: C_8  and  C_10
REMARK    5  A    between atoms: C_10  and  C_11
REMARK    6  A    between atoms: C_11  and  C_12
REMARK    7  A    between atoms: C_15  and  C_16
REMARK                            x       y       z     vdW  Elec       q    Type
REMARK                         _______ _______ _______ _____ _____    ______ ____
ROOT
ATOM      1  C   UNL     1       3.152   5.557  19.771  0.00  0.00    +0.000 C 
ENDROOT
BRANCH   1   2
ATOM      2  C   UNL     1       2.463   6.887  19.525  0.00  0.00    +0.000 A 
ATOM      3  C   UNL     1       1.786   7.587  20.530  0.00  0.00    +0.000 A 
ATOM      4  C   UNL     1       1.174   8.814  20.270  0.00  0.00    +0.000 A 
ATOM      5  C   UNL     1       1.228   9.410  19.002  0.00  0.00    +0.000 A 
ATOM      6  C   UNL     1       1.899   8.697  17.994  0.00  0.00    +0.000 A 
ATOM      7  C   UNL     1       2.501   7.454  18.246  0.00  0.00    +0.000 A 
BRANCH   5   8
ATOM      8  C   UNL     1       0.610  10.734  18.757  0.00  0.00    +0.000 A 
ATOM      9  C   UNL     1       1.372  11.918  18.815  0.00  0.00    +0.000 A 
ATOM     10  C   UNL     1       0.797  13.172  18.593  0.00  0.00    +0.000 A 
ATOM     11  C   UNL     1      -0.556  13.271  18.288  0.00  0.00    +0.000 A 
ATOM     12  C   UNL     1      -1.332  12.119  18.214  0.00  0.00    +0.000 A 
ATOM     13  C   UNL     1      -0.756  10.866  18.455  0.00  0.00    +0.000 A 
ENDBRANCH   5   8
ENDBRANCH   1   2
BRANCH   1  14
ATOM     14  C   UNL     1       2.979   4.550  18.634  0.00  0.00    +0.000 C 
BRANCH  14  15
ATOM     15  C   UNL     1       4.081   3.513  18.538  0.00  0.00    +0.000 C 
ATOM     16  O   UNL     1       3.973   2.392  19.036  0.00  0.00    +0.000 OA
BRANCH  15  20
ATOM     17  C   UNL     1       6.521   4.436  16.119  0.00  0.00    +0.000 A 
ATOM     18  C   UNL     1       7.209   4.628  17.294  0.00  0.00    +0.000 A 
ATOM     19  N   UNL     1       6.405   4.336  18.365  0.00  0.00    +0.000 NA
ATOM     20  C   UNL     1       5.259   3.971  17.815  0.00  0.00    +0.000 A 
ATOM     21  O   UNL     1       5.249   4.025  16.443  0.00  0.00    +0.000 OA
BRANCH  17  23
ATOM     22  O   UNL     1       6.499   3.917  13.812  0.00  0.00    +0.000 OA
ATOM     23  C   UNL     1       6.920   4.578  14.748  0.00  0.00    +0.000 C 
BRANCH  23  24
ATOM     24  O   UNL     1       7.846   5.561  14.593  0.00  0.00    +0.000 OA
ATOM     25  H   UNL     1       8.176   5.880  15.459  0.00  0.00    +0.000 HD
ENDBRANCH  23  24
ENDBRANCH  17  23
ENDBRANCH  15  20
ENDBRANCH  14  15
ENDBRANCH   1  14
TORSDOF 7
ENDMDL
MODEL 9
REMARK VINA RESULT:      -7.7      2.105      3.478
REMARK  Name = 
REMARK  7 active torsions:
REMARK  status: ('A' for Active; 'I' for Inactive)
REMARK    1  A    between atoms: C_2  and  O_3
REMARK    2  A    between atoms: C_2  and  C_4
REMARK    3  A    between atoms: C_7  and  C_8
REMARK    4  A    between atoms: C_8  and  C_10
REMARK    5  A    between atoms: C_10  and  C_11
REMARK    6  A    between atoms: C_11  and  C_12
REMARK    7  A    between atoms: C_15  and  C_16
REMARK                            x       y       z     vdW  Elec       q    Type
REMARK                         _______ _______ _______ _____ _____    ______ ____
ROOT
ATOM      1  C   UNL     1       3.306   5.914  17.874  0.00  0.00    +0.000 C 
ENDROOT
BRANCH   1   2
ATOM      2  C   UNL     1       2.506   6.868  18.742  0.00  0.00    +0.000 A 
ATOM      3  C   UNL     1       2.084   6.544  20.035  0.00  0.00    +0.000 A 
ATOM      4  C   UNL     1       1.359   7.451  20.809  0.00  0.00    +0.000 A 
ATOM      5  C   UNL     1       1.043   8.733  20.337  0.00  0.00    +0.000 A 
ATOM      6  C   UNL     1       1.461   9.049  19.033  0.00  0.00    +0.000 A 
ATOM      7  C   UNL     1       2.174   8.134  18.244  0.00  0.00    +0.000 A 
BRANCH   5   8
ATOM      8  C   UNL     1       0.312   9.699  21.190  0.00  0.00    +0.000 A 
ATOM      9  C   UNL     1       0.042  11.008  20.745  0.00  0.00    +0.000 A 
ATOM     10  C   UNL     1      -0.639  11.929  21.546  0.00  0.00    +0.000 A 
ATOM     11  C   UNL     1      -1.085  11.554  22.808  0.00  0.00    +0.000 A 
ATOM     12  C   UNL     1      -0.842  10.265  23.272  0.00  0.00    +0.000 A 
ATOM     13  C   UNL     1      -0.143   9.352  22.474  0.00  0.00    +0.000 A 
ENDBRANCH   5   8
ENDBRANCH   1   2
BRANCH   1  14
ATOM     14  C   UNL     1       2.876   4.453  17.998  0.00  0.00    +0.000 C 
BRANCH  14  15
ATOM     15  C   UNL     1       4.020   3.461  18.053  0.00  0.00    +0.000 C 
ATOM     16  O   UNL     1       3.839   2.258  18.248  0.00  0.00    +0.000 OA
BRANCH  15  20
ATOM     17  C   UNL     1       7.129   5.166  18.354  0.00  0.00    +0.000 A 
ATOM     18  C   UNL     1       7.132   4.814  17.024  0.00  0.00    +0.000 A 
ATOM     19  N   UNL     1       5.995   4.113  16.718  0.00  0.00    +0.000 NA
ATOM     20  C   UNL     1       5.331   4.064  17.861  0.00  0.00    +0.000 A 
ATOM     21  O   UNL     1       5.974   4.671  18.912  0.00  0.00    +0.000 OA
BRANCH  17  23
ATOM     22  O   UNL     1       8.469   7.038  18.892  0.00  0.00    +0.000 OA
ATOM     23  C   UNL     1       8.065   5.913  19.143  0.00  0.00    +0.000 C 
BRANCH  23  24
ATOM     24  O   UNL     1       8.469   5.217  20.238  0.00  0.00    +0.000 OA
ATOM     25  H   UNL     1       8.732   4.303  20.003  0.00  0.00    +0.000 HD
ENDBRANCH  23  24
ENDBRANCH  17  23
ENDBRANCH  15  20
ENDBRANCH  14  15
ENDBRANCH   1  14
TORSDOF 7
ENDMDL
