MODEL 1
REMARK VINA RESULT:      -5.6      0.000      0.000
REMARK  Name = 
REMARK  2 active torsions:
REMARK  status: ('A' for Active; 'I' for Inactive)
REMARK    1  A    between atoms: C_1  and  N_2
REMARK    2  A    between atoms: C_3  and  C_5
REMARK                            x       y       z     vdW  Elec       q    Type
REMARK                         _______ _______ _______ _____ _____    ______ ____
ROOT
ATOM      1  C   UNL     1       3.265   4.770  17.631  0.00  0.00    +0.000 A 
ATOM      2  C   UNL     1       4.111   4.154  16.688  0.00  0.00    +0.000 A 
ATOM      3  C   UNL     1       5.097   4.894  16.037  0.00  0.00    +0.000 A 
ATOM      4 BR   UNL     1       6.221   4.061  14.766  0.00  0.00    +0.000 Br
ATOM      5  C   UNL     1       5.262   6.248  16.315  0.00  0.00    +0.000 A 
ATOM      6  C   UNL     1       4.438   6.865  17.257  0.00  0.00    +0.000 A 
ATOM      7  C   UNL     1       3.442   6.132  17.919  0.00  0.00    +0.000 A 
ATOM      8 CL   UNL     1       2.525   7.001  19.101  0.00  0.00    +0.000 Cl
ENDROOT
BRANCH   1  11
ATOM      9  C   UNL     1       1.528   2.622  20.237  0.00  0.00    +0.000 C 
ATOM     10  N   UNL     1       2.466   3.466  19.543  0.00  0.00    +0.000 N 
ATOM     11  C   UNL     1       2.233   3.898  18.259  0.00  0.00    +0.000 C 
ATOM     12  O   UNL     1       1.205   3.632  17.641  0.00  0.00    +0.000 OA
ATOM     13  H   UNL     1       3.374   3.621  19.965  0.00  0.00    +0.000 HD
ENDBRANCH   1  11
TORSDOF 1
ENDMDL
MODEL 2
REMARK VINA RESULT:      -5.6      1.157      1.157
REMARK  Name = 
REMARK  2 active torsions:
REMARK  status: ('A' for Active; 'I' for Inactive)
REMARK    1  A    between atoms: C_1  and  N_2
REMARK    2  A    between atoms: C_3  and  C_5
REMARK                            x       y       z     vdW  Elec       q    Type
REMARK                         _______ _______ _______ _____ _____    ______ ____
ROOT
ATOM      1  C   UNL     1       3.747   4.526  17.621  0.00  0.00    +0.000 A 
ATOM      2  C   UNL     1       4.557   4.062  16.566  0.00  0.00    +0.000 A 
ATOM      3  C   UNL     1       5.287   4.961  15.790  0.00  0.00    +0.000 A 
ATOM      4 BR   UNL     1       6.363   4.329  14.370  0.00  0.00    +0.000 Br
ATOM      5  C   UNL     1       5.229   6.327  16.050  0.00  0.00    +0.000 A 
ATOM      6  C   UNL     1       4.440   6.796  17.101  0.00  0.00    +0.000 A 
ATOM      7  C   UNL     1       3.701   5.902  17.890  0.00  0.00    +0.000 A 
ATOM      8 CL   UNL     1       2.807   6.606  19.193  0.00  0.00    +0.000 Cl
ENDROOT
BRANCH   1  11
ATOM      9  C   UNL     1       0.832   2.411  18.825  0.00  0.00    +0.000 C 
ATOM     10  N   UNL     1       1.646   3.384  18.143  0.00  0.00    +0.000 N 
ATOM     11  C   UNL     1       2.995   3.487  18.380  0.00  0.00    +0.000 C 
ATOM     12  O   UNL     1       3.598   2.741  19.147  0.00  0.00    +0.000 OA
ATOM     13  H   UNL     1       1.180   4.092  17.588  0.00  0.00    +0.000 HD
ENDBRANCH   1  11
TORSDOF 1
ENDMDL
MODEL 3
REMARK VINA RESULT:      -5.5      1.564      1.564
REMARK  Name = 
REMARK  2 active torsions:
REMARK  status: ('A' for Active; 'I' for Inactive)
REMARK    1  A    between atoms: C_1  and  N_2
REMARK    2  A    between atoms: C_3  and  C_5
REMARK                            x       y       z     vdW  Elec       q    Type
REMARK                         _______ _______ _______ _____ _____    ______ ____
ROOT
ATOM      1  C   UNL     1       4.346   4.445  17.754  0.00  0.00    +0.000 A 
ATOM      2  C   UNL     1       5.116   4.061  16.639  0.00  0.00    +0.000 A 
ATOM      3  C   UNL     1       5.514   5.009  15.698  0.00  0.00    +0.000 A 
ATOM      4 BR   UNL     1       6.539   4.482  14.199  0.00  0.00    +0.000 Br
ATOM      5  C   UNL     1       5.160   6.347  15.850  0.00  0.00    +0.000 A 
ATOM      6  C   UNL     1       4.409   6.739  16.958  0.00  0.00    +0.000 A 
ATOM      7  C   UNL     1       4.003   5.796  17.913  0.00  0.00    +0.000 A 
ATOM      8 CL   UNL     1       3.123   6.421  19.265  0.00  0.00    +0.000 Cl
ENDROOT
BRANCH   1  11
ATOM      9  C   UNL     1       4.663   1.792  20.452  0.00  0.00    +0.000 C 
ATOM     10  N   UNL     1       4.938   2.844  19.509  0.00  0.00    +0.000 N 
ATOM     11  C   UNL     1       3.958   3.355  18.694  0.00  0.00    +0.000 C 
ATOM     12  O   UNL     1       2.788   2.984  18.743  0.00  0.00    +0.000 OA
ATOM     13  H   UNL     1       5.905   3.105  19.353  0.00  0.00    +0.000 HD
ENDBRANCH   1  11
TORSDOF 1
ENDMDL
MODEL 4
REMARK VINA RESULT:      -5.5      3.702      4.813
REMARK  Name = 
REMARK  2 active torsions:
REMARK  status: ('A' for Active; 'I' for Inactive)
REMARK    1  A    between atoms: C_1  and  N_2
REMARK    2  A    between atoms: C_3  and  C_5
REMARK                            x       y       z     vdW  Elec       q    Type
REMARK                         _______ _______ _______ _____ _____    ______ ____
ROOT
ATOM      1  C   UNL     1       5.374   4.523  16.692  0.00  0.00    +0.000 A 
ATOM      2  C   UNL     1       4.192   3.772  16.841  0.00  0.00    +0.000 A 
ATOM      3  C   UNL     1       3.704   3.471  18.111  0.00  0.00    +0.000 A 
ATOM      4 BR   UNL     1       2.121   2.454  18.300  0.00  0.00    +0.000 Br
ATOM      5  C   UNL     1       4.374   3.914  19.248  0.00  0.00    +0.000 A 
ATOM      6  C   UNL     1       5.539   4.669  19.112  0.00  0.00    +0.000 A 
ATOM      7  C   UNL     1       6.041   4.980  17.840  0.00  0.00    +0.000 A 
ATOM      8 CL   UNL     1       7.461   5.967  17.808  0.00  0.00    +0.000 Cl
ENDROOT
BRANCH   1  11
ATOM      9  C   UNL     1       6.532   3.826  13.144  0.00  0.00    +0.000 C 
ATOM     10  N   UNL     1       6.095   3.684  14.508  0.00  0.00    +0.000 N 
ATOM     11  C   UNL     1       5.822   4.778  15.293  0.00  0.00    +0.000 C 
ATOM     12  O   UNL     1       5.891   5.933  14.879  0.00  0.00    +0.000 OA
ATOM     13  H   UNL     1       6.131   2.763  14.929  0.00  0.00    +0.000 HD
ENDBRANCH   1  11
TORSDOF 1
ENDMDL
MODEL 5
REMARK VINA RESULT:      -5.4      3.806      4.953
REMARK  Name = 
REMARK  2 active torsions:
REMARK  status: ('A' for Active; 'I' for Inactive)
REMARK    1  A    between atoms: C_1  and  N_2
REMARK    2  A    between atoms: C_3  and  C_5
REMARK                            x       y       z     vdW  Elec       q    Type
REMARK                         _______ _______ _______ _____ _____    ______ ____
ROOT
ATOM      1  C   UNL     1       4.677   4.704  18.355  0.00  0.00    +0.000 A 
ATOM      2  C   UNL     1       3.734   4.646  19.400  0.00  0.00    +0.000 A 
ATOM      3  C   UNL     1       2.504   4.021  19.204  0.00  0.00    +0.000 A 
ATOM      4 BR   UNL     1       1.241   3.956  20.610  0.00  0.00    +0.000 Br
ATOM      5  C   UNL     1       2.194   3.442  17.976  0.00  0.00    +0.000 A 
ATOM      6  C   UNL     1       3.126   3.483  16.940  0.00  0.00    +0.000 A 
ATOM      7  C   UNL     1       4.367   4.108  17.123  0.00  0.00    +0.000 A 
ATOM      8 CL   UNL     1       5.453   4.044  15.778  0.00  0.00    +0.000 Cl
ENDROOT
BRANCH   1  11
ATOM      9  C   UNL     1       7.611   7.083  17.961  0.00  0.00    +0.000 C 
ATOM     10  N   UNL     1       6.390   6.348  17.756  0.00  0.00    +0.000 N 
ATOM     11  C   UNL     1       5.955   5.409  18.659  0.00  0.00    +0.000 C 
ATOM     12  O   UNL     1       6.547   5.165  19.708  0.00  0.00    +0.000 OA
ATOM     13  H   UNL     1       5.927   6.431  16.859  0.00  0.00    +0.000 HD
ENDBRANCH   1  11
TORSDOF 1
ENDMDL
MODEL 6
REMARK VINA RESULT:      -5.4      2.768      2.944
REMARK  Name = 
REMARK  2 active torsions:
REMARK  status: ('A' for Active; 'I' for Inactive)
REMARK    1  A    between atoms: C_1  and  N_2
REMARK    2  A    between atoms: C_3  and  C_5
REMARK                            x       y       z     vdW  Elec       q    Type
REMARK                         _______ _______ _______ _____ _____    ______ ____
ROOT
ATOM      1  C   UNL     1       4.570   3.857  18.735  0.00  0.00    +0.000 A 
ATOM      2  C   UNL     1       5.665   4.717  18.943  0.00  0.00    +0.000 A 
ATOM      3  C   UNL     1       6.162   5.490  17.894  0.00  0.00    +0.000 A 
ATOM      4 BR   UNL     1       7.640   6.635  18.179  0.00  0.00    +0.000 Br
ATOM      5  C   UNL     1       5.578   5.425  16.632  0.00  0.00    +0.000 A 
ATOM      6  C   UNL     1       4.484   4.586  16.420  0.00  0.00    +0.000 A 
ATOM      7  C   UNL     1       3.974   3.804  17.466  0.00  0.00    +0.000 A 
ATOM      8 CL   UNL     1       2.584   2.848  17.086  0.00  0.00    +0.000 Cl
ENDROOT
BRANCH   1  11
ATOM      9  C   UNL     1       2.399   2.681  21.622  0.00  0.00    +0.000 C 
ATOM     10  N   UNL     1       2.917   3.391  20.481  0.00  0.00    +0.000 N 
ATOM     11  C   UNL     1       4.124   3.061  19.915  0.00  0.00    +0.000 C 
ATOM     12  O   UNL     1       4.814   2.124  20.310  0.00  0.00    +0.000 OA
ATOM     13  H   UNL     1       2.443   4.238  20.189  0.00  0.00    +0.000 HD
ENDBRANCH   1  11
TORSDOF 1
ENDMDL
MODEL 7
REMARK VINA RESULT:      -5.4      3.422      4.527
REMARK  Name = 
REMARK  2 active torsions:
REMARK  status: ('A' for Active; 'I' for Inactive)
REMARK    1  A    between atoms: C_1  and  N_2
REMARK    2  A    between atoms: C_3  and  C_5
REMARK                            x       y       z     vdW  Elec       q    Type
REMARK                         _______ _______ _______ _____ _____    ______ ____
ROOT
ATOM      1  C   UNL     1       4.024   4.782  18.770  0.00  0.00    +0.000 A 
ATOM      2  C   UNL     1       3.533   3.796  19.647  0.00  0.00    +0.000 A 
ATOM      3  C   UNL     1       2.461   4.076  20.493  0.00  0.00    +0.000 A 
ATOM      4 BR   UNL     1       1.814   2.748  21.673  0.00  0.00    +0.000 Br
ATOM      5  C   UNL     1       1.859   5.331  20.477  0.00  0.00    +0.000 A 
ATOM      6  C   UNL     1       2.330   6.311  19.603  0.00  0.00    +0.000 A 
ATOM      7  C   UNL     1       3.407   6.042  18.746  0.00  0.00    +0.000 A 
ATOM      8 CL   UNL     1       3.859   7.323  17.675  0.00  0.00    +0.000 Cl
ENDROOT
BRANCH   1  11
ATOM      9  C   UNL     1       6.004   3.829  15.672  0.00  0.00    +0.000 C 
ATOM     10  N   UNL     1       4.950   4.207  16.577  0.00  0.00    +0.000 N 
ATOM     11  C   UNL     1       5.184   4.389  17.919  0.00  0.00    +0.000 C 
ATOM     12  O   UNL     1       6.299   4.286  18.423  0.00  0.00    +0.000 OA
ATOM     13  H   UNL     1       3.997   4.195  16.233  0.00  0.00    +0.000 HD
ENDBRANCH   1  11
TORSDOF 1
ENDMDL
MODEL 8
REMARK VINA RESULT:      -5.4      3.746      4.792
REMARK  Name = 
REMARK  2 active torsions:
REMARK  status: ('A' for Active; 'I' for Inactive)
REMARK    1  A    between atoms: C_1  and  N_2
REMARK    2  A    between atoms: C_3  and  C_5
REMARK                            x       y       z     vdW  Elec       q    Type
REMARK                         _______ _______ _______ _____ _____    ______ ____
ROOT
ATOM      1  C   UNL     1       4.408   4.623  18.321  0.00  0.00    +0.000 A 
ATOM      2  C   UNL     1       3.634   4.428  19.481  0.00  0.00    +0.000 A 
ATOM      3  C   UNL     1       2.468   3.665  19.430  0.00  0.00    +0.000 A 
ATOM      4 BR   UNL     1       1.430   3.417  20.991  0.00  0.00    +0.000 Br
ATOM      5  C   UNL     1       2.059   3.082  18.235  0.00  0.00    +0.000 A 
ATOM      6  C   UNL     1       2.826   3.258  17.083  0.00  0.00    +0.000 A 
ATOM      7  C   UNL     1       4.000   4.023  17.120  0.00  0.00    +0.000 A 
ATOM      8 CL   UNL     1       4.887   4.119  15.638  0.00  0.00    +0.000 Cl
ENDROOT
BRANCH   1  11
ATOM      9  C   UNL     1       7.853   5.721  19.481  0.00  0.00    +0.000 C 
ATOM     10  N   UNL     1       6.636   4.982  19.271  0.00  0.00    +0.000 N 
ATOM     11  C   UNL     1       5.627   5.468  18.476  0.00  0.00    +0.000 C 
ATOM     12  O   UNL     1       5.709   6.531  17.866  0.00  0.00    +0.000 OA
ATOM     13  H   UNL     1       6.474   4.157  19.836  0.00  0.00    +0.000 HD
ENDBRANCH   1  11
TORSDOF 1
ENDMDL
MODEL 9
REMARK VINA RESULT:      -5.4      2.480      2.618
REMARK  Name = 
REMARK  2 active torsions:
REMARK  status: ('A' for Active; 'I' for Inactive)
REMARK    1  A    between atoms: C_1  and  N_2
REMARK    2  A    between atoms: C_3  and  C_5
REMARK                            x       y       z     vdW  Elec       q    Type
REMARK                         _______ _______ _______ _____ _____    ______ ____
ROOT
ATOM      1  C   UNL     1       5.421   4.238  17.500  0.00  0.00    +0.000 A 
ATOM      2  C   UNL     1       5.206   3.833  16.168  0.00  0.00    +0.000 A 
ATOM      3  C   UNL     1       6.033   4.301  15.148  0.00  0.00    +0.000 A 
ATOM      4 BR   UNL     1       5.731   3.759  13.362  0.00  0.00    +0.000 Br
ATOM      5  C   UNL     1       7.082   5.170  15.433  0.00  0.00    +0.000 A 
ATOM      6  C   UNL     1       7.311   5.567  16.750  0.00  0.00    +0.000 A 
ATOM      7  C   UNL     1       6.488   5.103  17.786  0.00  0.00    +0.000 A 
ATOM      8 CL   UNL     1       6.911   5.627  19.380  0.00  0.00    +0.000 Cl
ENDROOT
BRANCH   1  11
ATOM      9  C   UNL     1       4.126   2.183  20.419  0.00  0.00    +0.000 C 
ATOM     10  N   UNL     1       4.961   2.765  19.400  0.00  0.00    +0.000 N 
ATOM     11  C   UNL     1       4.473   3.695  18.515  0.00  0.00    +0.000 C 
ATOM     12  O   UNL     1       3.321   4.119  18.557  0.00  0.00    +0.000 OA
ATOM     13  H   UNL     1       5.882   2.369  19.253  0.00  0.00    +0.000 HD
ENDBRANCH   1  11
TORSDOF 1
ENDMDL
