MODEL 1
REMARK VINA RESULT:      -8.5      0.000      0.000
REMARK  Name = 
REMARK  3 active torsions:
REMARK  status: ('A' for Active; 'I' for Inactive)
REMARK    1  A    between atoms: C_4  and  C_5
REMARK    2  A    between atoms: C_7  and  C_8
REMARK    3  A    between atoms: C_14  and  C_15
REMARK                            x       y       z     vdW  Elec       q    Type
REMARK                         _______ _______ _______ _____ _____    ______ ____
ROOT
ATOM      1  C   UNL     1       3.352   5.478  18.604  0.00  0.00    +0.000 A 
ATOM      2  N   UNL     1       4.462   4.998  17.942  0.00  0.00    +0.000 NA
ATOM      3  C   UNL     1       4.940   6.013  17.246  0.00  0.00    +0.000 A 
ATOM      4  N   UNL     1       4.169   7.129  17.453  0.00  0.00    +0.000 N 
ATOM      5  C   UNL     1       3.161   6.833  18.346  0.00  0.00    +0.000 A 
ATOM      6  H   UNL     1       4.341   8.021  17.010  0.00  0.00    +0.000 HD
ENDROOT
BRANCH   1  10
ATOM      7  C   UNL     1       1.045   2.835  21.033  0.00  0.00    +0.000 A 
ATOM      8  C   UNL     1       0.734   3.005  19.686  0.00  0.00    +0.000 A 
ATOM      9  C   UNL     1       1.480   3.889  18.898  0.00  0.00    +0.000 A 
ATOM     10  C   UNL     1       2.540   4.614  19.454  0.00  0.00    +0.000 A 
ATOM     11  C   UNL     1       2.804   4.475  20.826  0.00  0.00    +0.000 A 
ATOM     12  C   UNL     1       2.080   3.570  21.604  0.00  0.00    +0.000 A 
ENDBRANCH   1  10
BRANCH   5  13
ATOM     13  C   UNL     1       2.185   7.823  18.814  0.00  0.00    +0.000 A 
ATOM     14  C   UNL     1       1.814   7.898  20.167  0.00  0.00    +0.000 A 
ATOM     15  C   UNL     1       0.971   8.921  20.620  0.00  0.00    +0.000 A 
ATOM     16  C   UNL     1       0.503   9.886  19.736  0.00  0.00    +0.000 A 
ATOM     17  C   UNL     1       0.836   9.812  18.386  0.00  0.00    +0.000 A 
ATOM     18  C   UNL     1       1.641   8.766  17.931  0.00  0.00    +0.000 A 
ENDBRANCH   5  13
BRANCH   3  19
ATOM     19  C   UNL     1       6.106   6.016  16.309  0.00  0.00    +0.000 C 
ATOM     20  O   UNL     1       6.849   4.795  16.496  0.00  0.00    +0.000 OA
ATOM     21  C   UNL     1       7.135   4.363  15.165  0.00  0.00    +0.000 C 
ATOM     22  C   UNL     1       5.931   4.820  14.387  0.00  0.00    +0.000 C 
ATOM     23  O   UNL     1       5.623   6.087  14.960  0.00  0.00    +0.000 OA
ENDBRANCH   3  19
TORSDOF 3
ENDMDL
MODEL 2
REMARK VINA RESULT:      -8.5      0.144      4.286
REMARK  Name = 
REMARK  3 active torsions:
REMARK  status: ('A' for Active; 'I' for Inactive)
REMARK    1  A    between atoms: C_4  and  C_5
REMARK    2  A    between atoms: C_7  and  C_8
REMARK    3  A    between atoms: C_14  and  C_15
REMARK                            x       y       z     vdW  Elec       q    Type
REMARK                         _______ _______ _______ _____ _____    ______ ____
ROOT
ATOM      1  C   UNL     1       3.146   6.942  18.260  0.00  0.00    +0.000 A 
ATOM      2  N   UNL     1       4.128   7.306  17.363  0.00  0.00    +0.000 NA
ATOM      3  C   UNL     1       4.846   6.219  17.145  0.00  0.00    +0.000 A 
ATOM      4  N   UNL     1       4.342   5.170  17.872  0.00  0.00    +0.000 N 
ATOM      5  C   UNL     1       3.231   5.587  18.573  0.00  0.00    +0.000 A 
ATOM      6  H   UNL     1       4.744   4.242  17.871  0.00  0.00    +0.000 HD
ENDROOT
BRANCH   1  10
ATOM      7  C   UNL     1       0.418   9.846  19.783  0.00  0.00    +0.000 A 
ATOM      8  C   UNL     1       0.972   8.889  20.630  0.00  0.00    +0.000 A 
ATOM      9  C   UNL     1       1.849   7.925  20.122  0.00  0.00    +0.000 A 
ATOM     10  C   UNL     1       2.176   7.908  18.761  0.00  0.00    +0.000 A 
ATOM     11  C   UNL     1       1.564   8.843  17.910  0.00  0.00    +0.000 A 
ATOM     12  C   UNL     1       0.713   9.824  18.422  0.00  0.00    +0.000 A 
ENDBRANCH   1  10
BRANCH   5  13
ATOM     13  C   UNL     1       2.432   4.693  19.418  0.00  0.00    +0.000 A 
ATOM     14  C   UNL     1       1.409   3.898  18.875  0.00  0.00    +0.000 A 
ATOM     15  C   UNL     1       0.732   2.965  19.669  0.00  0.00    +0.000 A 
ATOM     16  C   UNL     1       1.076   2.802  21.006  0.00  0.00    +0.000 A 
ATOM     17  C   UNL     1       2.066   3.601  21.570  0.00  0.00    +0.000 A 
ATOM     18  C   UNL     1       2.709   4.561  20.786  0.00  0.00    +0.000 A 
ENDBRANCH   5  13
BRANCH   3  19
ATOM     19  C   UNL     1       6.067   6.082  16.293  0.00  0.00    +0.000 C 
ATOM     20  O   UNL     1       6.748   4.865  16.658  0.00  0.00    +0.000 OA
ATOM     21  C   UNL     1       7.099   4.281  15.403  0.00  0.00    +0.000 C 
ATOM     22  C   UNL     1       5.965   4.689  14.503  0.00  0.00    +0.000 C 
ATOM     23  O   UNL     1       5.672   6.020  14.915  0.00  0.00    +0.000 OA
ENDBRANCH   3  19
TORSDOF 3
ENDMDL
MODEL 3
REMARK VINA RESULT:      -8.5      0.191      4.182
REMARK  Name = 
REMARK  3 active torsions:
REMARK  status: ('A' for Active; 'I' for Inactive)
REMARK    1  A    between atoms: C_4  and  C_5
REMARK    2  A    between atoms: C_7  and  C_8
REMARK    3  A    between atoms: C_14  and  C_15
REMARK                            x       y       z     vdW  Elec       q    Type
REMARK                         _______ _______ _______ _____ _____    ______ ____
ROOT
ATOM      1  C   UNL     1       3.141   6.983  18.256  0.00  0.00    +0.000 A 
ATOM      2  N   UNL     1       4.110   7.347  17.345  0.00  0.00    +0.000 NA
ATOM      3  C   UNL     1       4.804   6.252  17.092  0.00  0.00    +0.000 A 
ATOM      4  N   UNL     1       4.297   5.198  17.811  0.00  0.00    +0.000 N 
ATOM      5  C   UNL     1       3.208   5.621  18.543  0.00  0.00    +0.000 A 
ATOM      6  H   UNL     1       4.682   4.264  17.784  0.00  0.00    +0.000 HD
ENDROOT
BRANCH   1  10
ATOM      7  C   UNL     1       0.274   9.755  19.771  0.00  0.00    +0.000 A 
ATOM      8  C   UNL     1       0.653   9.797  18.432  0.00  0.00    +0.000 A 
ATOM      9  C   UNL     1       1.610   8.899  17.944  0.00  0.00    +0.000 A 
ATOM     10  C   UNL     1       2.198   7.956  18.795  0.00  0.00    +0.000 A 
ATOM     11  C   UNL     1       1.847   7.965  20.154  0.00  0.00    +0.000 A 
ATOM     12  C   UNL     1       0.871   8.839  20.634  0.00  0.00    +0.000 A 
ENDBRANCH   1  10
BRANCH   5  13
ATOM     13  C   UNL     1       2.411   4.726  19.389  0.00  0.00    +0.000 A 
ATOM     14  C   UNL     1       1.401   3.916  18.843  0.00  0.00    +0.000 A 
ATOM     15  C   UNL     1       0.728   2.982  19.640  0.00  0.00    +0.000 A 
ATOM     16  C   UNL     1       1.063   2.833  20.981  0.00  0.00    +0.000 A 
ATOM     17  C   UNL     1       2.041   3.646  21.546  0.00  0.00    +0.000 A 
ATOM     18  C   UNL     1       2.680   4.606  20.759  0.00  0.00    +0.000 A 
ENDBRANCH   5  13
BRANCH   3  19
ATOM     19  C   UNL     1       6.004   6.109  16.212  0.00  0.00    +0.000 C 
ATOM     20  O   UNL     1       6.735   4.935  16.618  0.00  0.00    +0.000 OA
ATOM     21  C   UNL     1       7.069   4.298  15.384  0.00  0.00    +0.000 C 
ATOM     22  C   UNL     1       5.897   4.623  14.498  0.00  0.00    +0.000 C 
ATOM     23  O   UNL     1       5.572   5.964  14.851  0.00  0.00    +0.000 OA
ENDBRANCH   3  19
TORSDOF 3
ENDMDL
MODEL 4
REMARK VINA RESULT:      -8.3      0.137      1.037
REMARK  Name = 
REMARK  3 active torsions:
REMARK  status: ('A' for Active; 'I' for Inactive)
REMARK    1  A    between atoms: C_4  and  C_5
REMARK    2  A    between atoms: C_7  and  C_8
REMARK    3  A    between atoms: C_14  and  C_15
REMARK                            x       y       z     vdW  Elec       q    Type
REMARK                         _______ _______ _______ _____ _____    ______ ____
ROOT
ATOM      1  C   UNL     1       3.347   5.472  18.498  0.00  0.00    +0.000 A 
ATOM      2  N   UNL     1       4.442   5.026  17.789  0.00  0.00    +0.000 NA
ATOM      3  C   UNL     1       4.899   6.072  17.125  0.00  0.00    +0.000 A 
ATOM      4  N   UNL     1       4.129   7.175  17.398  0.00  0.00    +0.000 N 
ATOM      5  C   UNL     1       3.144   6.836  18.302  0.00  0.00    +0.000 A 
ATOM      6  H   UNL     1       4.286   8.086  16.988  0.00  0.00    +0.000 HD
ENDROOT
BRANCH   1  10
ATOM      7  C   UNL     1       0.978   2.949  20.991  0.00  0.00    +0.000 A 
ATOM      8  C   UNL     1       2.076   3.626  21.517  0.00  0.00    +0.000 A 
ATOM      9  C   UNL     1       2.862   4.436  20.690  0.00  0.00    +0.000 A 
ATOM     10  C   UNL     1       2.560   4.569  19.330  0.00  0.00    +0.000 A 
ATOM     11  C   UNL     1       1.485   3.835  18.804  0.00  0.00    +0.000 A 
ATOM     12  C   UNL     1       0.681   3.052  19.635  0.00  0.00    +0.000 A 
ENDBRANCH   1  10
BRANCH   5  13
ATOM     13  C   UNL     1       2.176   7.801  18.834  0.00  0.00    +0.000 A 
ATOM     14  C   UNL     1       1.838   7.817  20.198  0.00  0.00    +0.000 A 
ATOM     15  C   UNL     1       1.003   8.815  20.714  0.00  0.00    +0.000 A 
ATOM     16  C   UNL     1       0.509   9.815  19.884  0.00  0.00    +0.000 A 
ATOM     17  C   UNL     1       0.809   9.799  18.525  0.00  0.00    +0.000 A 
ATOM     18  C   UNL     1       1.607   8.778  18.006  0.00  0.00    +0.000 A 
ENDBRANCH   5  13
BRANCH   3  19
ATOM     19  C   UNL     1       6.042   6.121  16.161  0.00  0.00    +0.000 C 
ATOM     20  O   UNL     1       6.931   5.022  16.446  0.00  0.00    +0.000 OA
ATOM     21  C   UNL     1       7.246   4.497  15.156  0.00  0.00    +0.000 C 
ATOM     22  C   UNL     1       5.985   4.726  14.370  0.00  0.00    +0.000 C 
ATOM     23  O   UNL     1       5.533   5.998  14.825  0.00  0.00    +0.000 OA
ENDBRANCH   3  19
TORSDOF 3
ENDMDL
MODEL 5
REMARK VINA RESULT:      -8.3      0.174      1.039
REMARK  Name = 
REMARK  3 active torsions:
REMARK  status: ('A' for Active; 'I' for Inactive)
REMARK    1  A    between atoms: C_4  and  C_5
REMARK    2  A    between atoms: C_7  and  C_8
REMARK    3  A    between atoms: C_14  and  C_15
REMARK                            x       y       z     vdW  Elec       q    Type
REMARK                         _______ _______ _______ _____ _____    ______ ____
ROOT
ATOM      1  C   UNL     1       3.296   5.533  18.553  0.00  0.00    +0.000 A 
ATOM      2  N   UNL     1       4.362   5.047  17.827  0.00  0.00    +0.000 NA
ATOM      3  C   UNL     1       4.846   6.076  17.155  0.00  0.00    +0.000 A 
ATOM      4  N   UNL     1       4.121   7.206  17.440  0.00  0.00    +0.000 N 
ATOM      5  C   UNL     1       3.139   6.903  18.360  0.00  0.00    +0.000 A 
ATOM      6  H   UNL     1       4.305   8.110  17.027  0.00  0.00    +0.000 HD
ENDROOT
BRANCH   1  10
ATOM      7  C   UNL     1       1.009   2.863  20.971  0.00  0.00    +0.000 A 
ATOM      8  C   UNL     1       0.711   3.019  19.619  0.00  0.00    +0.000 A 
ATOM      9  C   UNL     1       1.450   3.912  18.835  0.00  0.00    +0.000 A 
ATOM     10  C   UNL     1       2.490   4.660  19.399  0.00  0.00    +0.000 A 
ATOM     11  C   UNL     1       2.740   4.534  20.775  0.00  0.00    +0.000 A 
ATOM     12  C   UNL     1       2.024   3.620  21.550  0.00  0.00    +0.000 A 
ENDBRANCH   1  10
BRANCH   5  13
ATOM     13  C   UNL     1       2.216   7.903  18.907  0.00  0.00    +0.000 A 
ATOM     14  C   UNL     1       1.643   8.891  18.090  0.00  0.00    +0.000 A 
ATOM     15  C   UNL     1       0.675   9.765  18.599  0.00  0.00    +0.000 A 
ATOM     16  C   UNL     1       0.257   9.655  19.920  0.00  0.00    +0.000 A 
ATOM     17  C   UNL     1       0.833   8.702  20.754  0.00  0.00    +0.000 A 
ATOM     18  C   UNL     1       1.829   7.860  20.254  0.00  0.00    +0.000 A 
ENDBRANCH   5  13
BRANCH   3  19
ATOM     19  C   UNL     1       5.974   6.082  16.172  0.00  0.00    +0.000 C 
ATOM     20  O   UNL     1       6.848   4.975  16.469  0.00  0.00    +0.000 OA
ATOM     21  C   UNL     1       7.134   4.415  15.186  0.00  0.00    +0.000 C 
ATOM     22  C   UNL     1       5.864   4.649  14.415  0.00  0.00    +0.000 C 
ATOM     23  O   UNL     1       5.442   5.939  14.848  0.00  0.00    +0.000 OA
ENDBRANCH   3  19
TORSDOF 3
ENDMDL
MODEL 6
REMARK VINA RESULT:      -8.3      1.281      4.311
REMARK  Name = 
REMARK  3 active torsions:
REMARK  status: ('A' for Active; 'I' for Inactive)
REMARK    1  A    between atoms: C_4  and  C_5
REMARK    2  A    between atoms: C_7  and  C_8
REMARK    3  A    between atoms: C_14  and  C_15
REMARK                            x       y       z     vdW  Elec       q    Type
REMARK                         _______ _______ _______ _____ _____    ______ ____
ROOT
ATOM      1  C   UNL     1       3.824   5.444  17.758  0.00  0.00    +0.000 A 
ATOM      2  N   UNL     1       4.721   5.486  16.711  0.00  0.00    +0.000 NA
ATOM      3  C   UNL     1       5.180   4.255  16.574  0.00  0.00    +0.000 A 
ATOM      4  N   UNL     1       4.593   3.429  17.499  0.00  0.00    +0.000 N 
ATOM      5  C   UNL     1       3.691   4.149  18.253  0.00  0.00    +0.000 A 
ATOM      6  H   UNL     1       4.805   2.444  17.587  0.00  0.00    +0.000 HD
ENDROOT
BRANCH   1  10
ATOM      7  C   UNL     1       1.694   8.914  19.031  0.00  0.00    +0.000 A 
ATOM      8  C   UNL     1       2.240   8.854  17.751  0.00  0.00    +0.000 A 
ATOM      9  C   UNL     1       2.956   7.722  17.345  0.00  0.00    +0.000 A 
ATOM     10  C   UNL     1       3.136   6.644  18.219  0.00  0.00    +0.000 A 
ATOM     11  C   UNL     1       2.630   6.745  19.525  0.00  0.00    +0.000 A 
ATOM     12  C   UNL     1       1.889   7.860  19.919  0.00  0.00    +0.000 A 
ENDBRANCH   1  10
BRANCH   5  13
ATOM     13  C   UNL     1       2.863   3.549  19.305  0.00  0.00    +0.000 A 
ATOM     14  C   UNL     1       3.426   3.111  20.516  0.00  0.00    +0.000 A 
ATOM     15  C   UNL     1       2.611   2.649  21.555  0.00  0.00    +0.000 A 
ATOM     16  C   UNL     1       1.229   2.631  21.407  0.00  0.00    +0.000 A 
ATOM     17  C   UNL     1       0.654   3.032  20.205  0.00  0.00    +0.000 A 
ATOM     18  C   UNL     1       1.473   3.453  19.155  0.00  0.00    +0.000 A 
ENDBRANCH   5  13
BRANCH   3  19
ATOM     19  C   UNL     1       6.220   3.765  15.617  0.00  0.00    +0.000 C 
ATOM     20  O   UNL     1       5.631   3.673  14.305  0.00  0.00    +0.000 OA
ATOM     21  C   UNL     1       6.624   4.236  13.446  0.00  0.00    +0.000 C 
ATOM     22  C   UNL     1       7.264   5.294  14.303  0.00  0.00    +0.000 C 
ATOM     23  O   UNL     1       7.311   4.696  15.595  0.00  0.00    +0.000 OA
ENDBRANCH   3  19
TORSDOF 3
ENDMDL
MODEL 7
REMARK VINA RESULT:      -8.2      0.570      1.553
REMARK  Name = 
REMARK  3 active torsions:
REMARK  status: ('A' for Active; 'I' for Inactive)
REMARK    1  A    between atoms: C_4  and  C_5
REMARK    2  A    between atoms: C_7  and  C_8
REMARK    3  A    between atoms: C_14  and  C_15
REMARK                            x       y       z     vdW  Elec       q    Type
REMARK                         _______ _______ _______ _____ _____    ______ ____
ROOT
ATOM      1  C   UNL     1       3.201   5.458  18.277  0.00  0.00    +0.000 A 
ATOM      2  N   UNL     1       4.147   4.977  17.396  0.00  0.00    +0.000 NA
ATOM      3  C   UNL     1       4.559   6.018  16.697  0.00  0.00    +0.000 A 
ATOM      4  N   UNL     1       3.908   7.152  17.114  0.00  0.00    +0.000 N 
ATOM      5  C   UNL     1       3.054   6.838  18.150  0.00  0.00    +0.000 A 
ATOM      6  H   UNL     1       4.057   8.066  16.709  0.00  0.00    +0.000 HD
ENDROOT
BRANCH   1  10
ATOM      7  C   UNL     1       1.077   2.986  21.029  0.00  0.00    +0.000 A 
ATOM      8  C   UNL     1       2.206   3.690  21.442  0.00  0.00    +0.000 A 
ATOM      9  C   UNL     1       2.912   4.483  20.530  0.00  0.00    +0.000 A 
ATOM     10  C   UNL     1       2.497   4.573  19.197  0.00  0.00    +0.000 A 
ATOM     11  C   UNL     1       1.392   3.811  18.783  0.00  0.00    +0.000 A 
ATOM     12  C   UNL     1       0.670   3.045  19.699  0.00  0.00    +0.000 A 
ENDBRANCH   1  10
BRANCH   5  13
ATOM     13  C   UNL     1       2.239   7.836  18.850  0.00  0.00    +0.000 A 
ATOM     14  C   UNL     1       1.678   8.928  18.167  0.00  0.00    +0.000 A 
ATOM     15  C   UNL     1       0.807   9.808  18.822  0.00  0.00    +0.000 A 
ATOM     16  C   UNL     1       0.475   9.602  20.156  0.00  0.00    +0.000 A 
ATOM     17  C   UNL     1       1.044   8.543  20.858  0.00  0.00    +0.000 A 
ATOM     18  C   UNL     1       1.945   7.693  20.213  0.00  0.00    +0.000 A 
ENDBRANCH   5  13
BRANCH   3  19
ATOM     19  C   UNL     1       5.543   6.036  15.570  0.00  0.00    +0.000 C 
ATOM     20  O   UNL     1       6.864   5.836  16.110  0.00  0.00    +0.000 OA
ATOM     21  C   UNL     1       7.459   4.897  15.213  0.00  0.00    +0.000 C 
ATOM     22  C   UNL     1       6.297   4.045  14.783  0.00  0.00    +0.000 C 
ATOM     23  O   UNL     1       5.227   4.976  14.656  0.00  0.00    +0.000 OA
ENDBRANCH   3  19
TORSDOF 3
ENDMDL
MODEL 8
REMARK VINA RESULT:      -8.2      0.204      4.131
REMARK  Name = 
REMARK  3 active torsions:
REMARK  status: ('A' for Active; 'I' for Inactive)
REMARK    1  A    between atoms: C_4  and  C_5
REMARK    2  A    between atoms: C_7  and  C_8
REMARK    3  A    between atoms: C_14  and  C_15
REMARK                            x       y       z     vdW  Elec       q    Type
REMARK                         _______ _______ _______ _____ _____    ______ ____
ROOT
ATOM      1  C   UNL     1       3.187   6.861  18.290  0.00  0.00    +0.000 A 
ATOM      2  N   UNL     1       4.120   7.280  17.366  0.00  0.00    +0.000 NA
ATOM      3  C   UNL     1       4.847   6.217  17.072  0.00  0.00    +0.000 A 
ATOM      4  N   UNL     1       4.395   5.130  17.778  0.00  0.00    +0.000 N 
ATOM      5  C   UNL     1       3.310   5.497  18.544  0.00  0.00    +0.000 A 
ATOM      6  H   UNL     1       4.812   4.211  17.721  0.00  0.00    +0.000 HD
ENDROOT
BRANCH   1  10
ATOM      7  C   UNL     1       0.479   9.644  20.058  0.00  0.00    +0.000 A 
ATOM      8  C   UNL     1       1.024   8.612  20.819  0.00  0.00    +0.000 A 
ATOM      9  C   UNL     1       1.895   7.689  20.229  0.00  0.00    +0.000 A 
ATOM     10  C   UNL     1       2.223   7.788  18.872  0.00  0.00    +0.000 A 
ATOM     11  C   UNL     1       1.620   8.799  18.107  0.00  0.00    +0.000 A 
ATOM     12  C   UNL     1       0.777   9.738  18.701  0.00  0.00    +0.000 A 
ENDBRANCH   1  10
BRANCH   5  13
ATOM     13  C   UNL     1       2.566   4.555  19.387  0.00  0.00    +0.000 A 
ATOM     14  C   UNL     1       2.901   4.364  20.738  0.00  0.00    +0.000 A 
ATOM     15  C   UNL     1       2.112   3.551  21.561  0.00  0.00    +0.000 A 
ATOM     16  C   UNL     1       0.975   2.934  21.053  0.00  0.00    +0.000 A 
ATOM     17  C   UNL     1       0.642   3.088  19.710  0.00  0.00    +0.000 A 
ATOM     18  C   UNL     1       1.455   3.864  18.882  0.00  0.00    +0.000 A 
ENDBRANCH   5  13
BRANCH   3  19
ATOM     19  C   UNL     1       6.030   6.137  16.161  0.00  0.00    +0.000 C 
ATOM     20  O   UNL     1       6.826   4.996  16.540  0.00  0.00    +0.000 OA
ATOM     21  C   UNL     1       7.158   4.384  15.293  0.00  0.00    +0.000 C 
ATOM     22  C   UNL     1       5.951   4.659  14.439  0.00  0.00    +0.000 C 
ATOM     23  O   UNL     1       5.572   5.981  14.811  0.00  0.00    +0.000 OA
ENDBRANCH   3  19
TORSDOF 3
ENDMDL
MODEL 9
REMARK VINA RESULT:      -8.2      0.249      4.034
REMARK  Name = 
REMARK  3 active torsions:
REMARK  status: ('A' for Active; 'I' for Inactive)
REMARK    1  A    between atoms: C_4  and  C_5
REMARK    2  A    between atoms: C_7  and  C_8
REMARK    3  A    between atoms: C_14  and  C_15
REMARK                            x       y       z     vdW  Elec       q    Type
REMARK                         _______ _______ _______ _____ _____    ______ ____
ROOT
ATOM      1  C   UNL     1       3.189   6.900  18.314  0.00  0.00    +0.000 A 
ATOM      2  N   UNL     1       4.107   7.323  17.376  0.00  0.00    +0.000 NA
ATOM      3  C   UNL     1       4.810   6.255  17.046  0.00  0.00    +0.000 A 
ATOM      4  N   UNL     1       4.360   5.162  17.742  0.00  0.00    +0.000 N 
ATOM      5  C   UNL     1       3.298   5.530  18.540  0.00  0.00    +0.000 A 
ATOM      6  H   UNL     1       4.761   4.237  17.658  0.00  0.00    +0.000 HD
ENDROOT
BRANCH   1  10
ATOM      7  C   UNL     1       0.342   9.551  20.066  0.00  0.00    +0.000 A 
ATOM      8  C   UNL     1       0.734   9.716  18.739  0.00  0.00    +0.000 A 
ATOM      9  C   UNL     1       1.684   8.857  18.175  0.00  0.00    +0.000 A 
ATOM     10  C   UNL     1       2.254   7.830  18.937  0.00  0.00    +0.000 A 
ATOM     11  C   UNL     1       1.891   7.713  20.288  0.00  0.00    +0.000 A 
ATOM     12  C   UNL     1       0.921   8.549  20.841  0.00  0.00    +0.000 A 
ENDBRANCH   1  10
BRANCH   5  13
ATOM     13  C   UNL     1       2.560   4.583  19.383  0.00  0.00    +0.000 A 
ATOM     14  C   UNL     1       2.893   4.398  20.735  0.00  0.00    +0.000 A 
ATOM     15  C   UNL     1       2.109   3.580  21.558  0.00  0.00    +0.000 A 
ATOM     16  C   UNL     1       0.979   2.951  21.048  0.00  0.00    +0.000 A 
ATOM     17  C   UNL     1       0.649   3.099  19.704  0.00  0.00    +0.000 A 
ATOM     18  C   UNL     1       1.457   3.881  18.877  0.00  0.00    +0.000 A 
ENDBRANCH   5  13
BRANCH   3  19
ATOM     19  C   UNL     1       5.971   6.175  16.105  0.00  0.00    +0.000 C 
ATOM     20  O   UNL     1       6.818   5.082  16.512  0.00  0.00    +0.000 OA
ATOM     21  C   UNL     1       7.139   4.425  15.285  0.00  0.00    +0.000 C 
ATOM     22  C   UNL     1       5.899   4.617  14.455  0.00  0.00    +0.000 C 
ATOM     23  O   UNL     1       5.482   5.940  14.777  0.00  0.00    +0.000 OA
ENDBRANCH   3  19
TORSDOF 3
ENDMDL
