MODEL 1
REMARK VINA RESULT:      -8.0      0.000      0.000
REMARK  Name = 
REMARK  4 active torsions:
REMARK  status: ('A' for Active; 'I' for Inactive)
REMARK    1  A    between atoms: N_1  and  S_2
REMARK    2  A    between atoms: S_2  and  C_5
REMARK    3  A    between atoms: C_8  and  C_9
REMARK    4  A    between atoms: C_12  and  C_13
REMARK                            x       y       z     vdW  Elec       q    Type
REMARK                         _______ _______ _______ _____ _____    ______ ____
ROOT
ATOM      1  C   UNL     1       2.459   6.693  19.626  0.00  0.00    +0.000 A 
ATOM      2  C   UNL     1       2.085   5.408  19.950  0.00  0.00    +0.000 A 
ATOM      3  C   UNL     1       3.235   4.598  19.769  0.00  0.00    +0.000 A 
ATOM      4  C   UNL     1       4.274   5.419  19.352  0.00  0.00    +0.000 A 
ATOM      5  O   UNL     1       3.769   6.692  19.256  0.00  0.00    +0.000 OA
ENDROOT
BRANCH   4   6
ATOM      6  C   UNL     1       5.614   5.073  19.029  0.00  0.00    +0.000 C 
ATOM      7  C   UNL     1       6.096   5.028  17.780  0.00  0.00    +0.000 C 
ATOM      8  S   UNL     1       5.330   5.427  16.285  0.00  0.00    +0.000 S 
ATOM      9  C   UNL     1       6.752   5.029  15.347  0.00  0.00    +0.000 C 
ATOM     10  O   UNL     1       6.819   5.102  14.134  0.00  0.00    +0.000 OA
ATOM     11  N   UNL     1       7.747   4.633  16.177  0.00  0.00    +0.000 N 
ATOM     12  C   UNL     1       7.497   4.605  17.517  0.00  0.00    +0.000 C 
ATOM     13  O   UNL     1       8.306   4.272  18.369  0.00  0.00    +0.000 OA
ATOM     14  H   UNL     1       8.644   4.361  15.808  0.00  0.00    +0.000 HD
ENDBRANCH   4   6
BRANCH   1  18
ATOM     15  C   UNL     1       0.426  10.444  19.566  0.00  0.00    +0.000 A 
ATOM     16  C   UNL     1       1.047   9.979  18.407  0.00  0.00    +0.000 A 
ATOM     17  C   UNL     1       1.726   8.756  18.434  0.00  0.00    +0.000 A 
ATOM     18  C   UNL     1       1.795   7.996  19.613  0.00  0.00    +0.000 A 
ATOM     19  C   UNL     1       1.192   8.504  20.774  0.00  0.00    +0.000 A 
ATOM     20  C   UNL     1       0.513   9.722  20.757  0.00  0.00    +0.000 A 
BRANCH  15  21
ATOM     21  S   UNL     1      -0.477  11.964  19.554  0.00  0.00    +0.000 S 
ATOM     22  O   UNL     1       0.169  12.920  20.420  0.00  0.00    +0.000 OA
ATOM     23  O   UNL     1      -1.893  11.675  19.641  0.00  0.00    +0.000 OA
BRANCH  21  24
ATOM     24  N   UNL     1      -0.204  12.497  17.987  0.00  0.00    +0.000 NA
ATOM     25  H   UNL     1      -0.889  13.213  17.744  0.00  0.00    +0.000 HD
ATOM     26  H   UNL     1      -0.179  11.711  17.337  0.00  0.00    +0.000 HD
ENDBRANCH  21  24
ENDBRANCH  15  21
ENDBRANCH   1  18
TORSDOF 4
ENDMDL
MODEL 2
REMARK VINA RESULT:      -8.0      0.644      1.196
REMARK  Name = 
REMARK  4 active torsions:
REMARK  status: ('A' for Active; 'I' for Inactive)
REMARK    1  A    between atoms: N_1  and  S_2
REMARK    2  A    between atoms: S_2  and  C_5
REMARK    3  A    between atoms: C_8  and  C_9
REMARK    4  A    between atoms: C_12  and  C_13
REMARK                            x       y       z     vdW  Elec       q    Type
REMARK                         _______ _______ _______ _____ _____    ______ ____
ROOT
ATOM      1  C   UNL     1       2.580   6.288  19.740  0.00  0.00    +0.000 A 
ATOM      2  C   UNL     1       2.237   4.970  19.946  0.00  0.00    +0.000 A 
ATOM      3  C   UNL     1       3.386   4.203  19.629  0.00  0.00    +0.000 A 
ATOM      4  C   UNL     1       4.394   5.079  19.252  0.00  0.00    +0.000 A 
ATOM      5  O   UNL     1       3.871   6.346  19.311  0.00  0.00    +0.000 OA
ENDROOT
BRANCH   4   6
ATOM      6  C   UNL     1       5.722   4.790  18.833  0.00  0.00    +0.000 C 
ATOM      7  C   UNL     1       6.139   4.860  17.562  0.00  0.00    +0.000 C 
ATOM      8  S   UNL     1       5.289   5.367  16.147  0.00  0.00    +0.000 S 
ATOM      9  C   UNL     1       6.668   5.079  15.109  0.00  0.00    +0.000 C 
ATOM     10  O   UNL     1       6.670   5.255  13.904  0.00  0.00    +0.000 OA
ATOM     11  N   UNL     1       7.711   4.635  15.851  0.00  0.00    +0.000 N 
ATOM     12  C   UNL     1       7.531   4.490  17.195  0.00  0.00    +0.000 C 
ATOM     13  O   UNL     1       8.389   4.104  17.973  0.00  0.00    +0.000 OA
ATOM     14  H   UNL     1       8.592   4.415  15.416  0.00  0.00    +0.000 HD
ENDBRANCH   4   6
BRANCH   1  18
ATOM     15  C   UNL     1       0.695  10.087  20.208  0.00  0.00    +0.000 A 
ATOM     16  C   UNL     1       0.713   9.191  21.278  0.00  0.00    +0.000 A 
ATOM     17  C   UNL     1       1.319   7.941  21.116  0.00  0.00    +0.000 A 
ATOM     18  C   UNL     1       1.901   7.574  19.891  0.00  0.00    +0.000 A 
ATOM     19  C   UNL     1       1.837   8.480  18.821  0.00  0.00    +0.000 A 
ATOM     20  C   UNL     1       1.235   9.729  18.973  0.00  0.00    +0.000 A 
BRANCH  15  21
ATOM     21  S   UNL     1      -0.023  11.691  20.393  0.00  0.00    +0.000 S 
ATOM     22  O   UNL     1       0.460  12.304  21.606  0.00  0.00    +0.000 OA
ATOM     23  O   UNL     1      -1.433  11.620  20.071  0.00  0.00    +0.000 OA
BRANCH  21  24
ATOM     24  N   UNL     1       0.703  12.524  19.130  0.00  0.00    +0.000 NA
ATOM     25  H   UNL     1       0.076  12.541  18.325  0.00  0.00    +0.000 HD
ATOM     26  H   UNL     1       1.626  12.140  18.927  0.00  0.00    +0.000 HD
ENDBRANCH  21  24
ENDBRANCH  15  21
ENDBRANCH   1  18
TORSDOF 4
ENDMDL
MODEL 3
REMARK VINA RESULT:      -7.9      2.001      8.414
REMARK  Name = 
REMARK  4 active torsions:
REMARK  status: ('A' for Active; 'I' for Inactive)
REMARK    1  A    between atoms: N_1  and  S_2
REMARK    2  A    between atoms: S_2  and  C_5
REMARK    3  A    between atoms: C_8  and  C_9
REMARK    4  A    between atoms: C_12  and  C_13
REMARK                            x       y       z     vdW  Elec       q    Type
REMARK                         _______ _______ _______ _____ _____    ______ ____
ROOT
ATOM      1  C   UNL     1       2.155   7.545  19.701  0.00  0.00    +0.000 A 
ATOM      2  C   UNL     1       1.409   7.229  20.815  0.00  0.00    +0.000 A 
ATOM      3  C   UNL     1       0.560   8.339  21.056  0.00  0.00    +0.000 A 
ATOM      4  C   UNL     1       0.808   9.288  20.074  0.00  0.00    +0.000 A 
ATOM      5  O   UNL     1       1.799   8.785  19.269  0.00  0.00    +0.000 OA
ENDROOT
BRANCH   4   6
ATOM      6  C   UNL     1       0.219  10.570  19.898  0.00  0.00    +0.000 C 
ATOM      7  C   UNL     1      -0.635  10.873  18.911  0.00  0.00    +0.000 C 
ATOM      8  S   UNL     1      -1.308   9.863  17.683  0.00  0.00    +0.000 S 
ATOM      9  C   UNL     1      -2.220  11.179  16.977  0.00  0.00    +0.000 C 
ATOM     10  O   UNL     1      -2.933  11.073  15.995  0.00  0.00    +0.000 OA
ATOM     11  N   UNL     1      -2.006  12.313  17.687  0.00  0.00    +0.000 N 
ATOM     12  C   UNL     1      -1.169  12.253  18.761  0.00  0.00    +0.000 C 
ATOM     13  O   UNL     1      -0.896  13.199  19.484  0.00  0.00    +0.000 OA
ATOM     14  H   UNL     1      -2.451  13.175  17.420  0.00  0.00    +0.000 HD
ENDBRANCH   4   6
BRANCH   1  18
ATOM     15  C   UNL     1       5.221   5.618  17.444  0.00  0.00    +0.000 A 
ATOM     16  C   UNL     1       4.568   6.729  16.911  0.00  0.00    +0.000 A 
ATOM     17  C   UNL     1       3.553   7.349  17.647  0.00  0.00    +0.000 A 
ATOM     18  C   UNL     1       3.179   6.864  18.910  0.00  0.00    +0.000 A 
ATOM     19  C   UNL     1       3.827   5.723  19.409  0.00  0.00    +0.000 A 
ATOM     20  C   UNL     1       4.841   5.098  18.682  0.00  0.00    +0.000 A 
BRANCH  15  21
ATOM     21  S   UNL     1       6.538   4.838  16.560  0.00  0.00    +0.000 S 
ATOM     22  O   UNL     1       7.330   5.837  15.886  0.00  0.00    +0.000 OA
ATOM     23  O   UNL     1       6.024   3.669  15.878  0.00  0.00    +0.000 OA
BRANCH  21  24
ATOM     24  N   UNL     1       7.486   4.264  17.820  0.00  0.00    +0.000 NA
ATOM     25  H   UNL     1       7.766   5.041  18.419  0.00  0.00    +0.000 HD
ATOM     26  H   UNL     1       8.268   3.715  17.462  0.00  0.00    +0.000 HD
ENDBRANCH  21  24
ENDBRANCH  15  21
ENDBRANCH   1  18
TORSDOF 4
ENDMDL
MODEL 4
REMARK VINA RESULT:      -7.8      0.885      1.157
REMARK  Name = 
REMARK  4 active torsions:
REMARK  status: ('A' for Active; 'I' for Inactive)
REMARK    1  A    between atoms: N_1  and  S_2
REMARK    2  A    between atoms: S_2  and  C_5
REMARK    3  A    between atoms: C_8  and  C_9
REMARK    4  A    between atoms: C_12  and  C_13
REMARK                            x       y       z     vdW  Elec       q    Type
REMARK                         _______ _______ _______ _____ _____    ______ ____
ROOT
ATOM      1  C   UNL     1       2.432   6.497  19.760  0.00  0.00    +0.000 A 
ATOM      2  C   UNL     1       2.066   5.184  19.951  0.00  0.00    +0.000 A 
ATOM      3  C   UNL     1       3.224   4.405  19.701  0.00  0.00    +0.000 A 
ATOM      4  C   UNL     1       4.259   5.270  19.377  0.00  0.00    +0.000 A 
ATOM      5  O   UNL     1       3.744   6.542  19.403  0.00  0.00    +0.000 OA
ENDROOT
BRANCH   4   6
ATOM      6  C   UNL     1       5.605   4.968  19.033  0.00  0.00    +0.000 C 
ATOM      7  C   UNL     1       6.078   4.976  17.780  0.00  0.00    +0.000 C 
ATOM      8  S   UNL     1       5.291   5.405  16.304  0.00  0.00    +0.000 S 
ATOM      9  C   UNL     1       6.715   5.073  15.344  0.00  0.00    +0.000 C 
ATOM     10  O   UNL     1       6.771   5.188  14.134  0.00  0.00    +0.000 OA
ATOM     11  N   UNL     1       7.726   4.673  16.154  0.00  0.00    +0.000 N 
ATOM     12  C   UNL     1       7.487   4.596  17.494  0.00  0.00    +0.000 C 
ATOM     13  O   UNL     1       8.311   4.254  18.329  0.00  0.00    +0.000 OA
ATOM     14  H   UNL     1       8.626   4.436  15.770  0.00  0.00    +0.000 HD
ENDBRANCH   4   6
BRANCH   1  18
ATOM     15  C   UNL     1       0.369  10.221  20.055  0.00  0.00    +0.000 A 
ATOM     16  C   UNL     1       0.986   9.869  18.854  0.00  0.00    +0.000 A 
ATOM     17  C   UNL     1       1.674   8.655  18.766  0.00  0.00    +0.000 A 
ATOM     18  C   UNL     1       1.757   7.791  19.870  0.00  0.00    +0.000 A 
ATOM     19  C   UNL     1       1.158   8.185  21.076  0.00  0.00    +0.000 A 
ATOM     20  C   UNL     1       0.470   9.394  21.175  0.00  0.00    +0.000 A 
BRANCH  15  21
ATOM     21  S   UNL     1      -0.546  11.727  20.188  0.00  0.00    +0.000 S 
ATOM     22  O   UNL     1      -1.673  11.693  19.289  0.00  0.00    +0.000 OA
ATOM     23  O   UNL     1       0.377  12.841  20.228  0.00  0.00    +0.000 OA
BRANCH  21  24
ATOM     24  N   UNL     1      -1.181  11.592  21.735  0.00  0.00    +0.000 NA
ATOM     25  H   UNL     1      -0.427  11.425  22.402  0.00  0.00    +0.000 HD
ATOM     26  H   UNL     1      -1.920  10.889  21.762  0.00  0.00    +0.000 HD
ENDBRANCH  21  24
ENDBRANCH  15  21
ENDBRANCH   1  18
TORSDOF 4
ENDMDL
MODEL 5
REMARK VINA RESULT:      -7.8      1.143      1.186
REMARK  Name = 
REMARK  4 active torsions:
REMARK  status: ('A' for Active; 'I' for Inactive)
REMARK    1  A    between atoms: N_1  and  S_2
REMARK    2  A    between atoms: S_2  and  C_5
REMARK    3  A    between atoms: C_8  and  C_9
REMARK    4  A    between atoms: C_12  and  C_13
REMARK                            x       y       z     vdW  Elec       q    Type
REMARK                         _______ _______ _______ _____ _____    ______ ____
ROOT
ATOM      1  C   UNL     1       2.316   6.435  19.718  0.00  0.00    +0.000 A 
ATOM      2  C   UNL     1       1.884   5.141  19.524  0.00  0.00    +0.000 A 
ATOM      3  C   UNL     1       3.032   4.383  19.183  0.00  0.00    +0.000 A 
ATOM      4  C   UNL     1       4.126   5.236  19.193  0.00  0.00    +0.000 A 
ATOM      5  O   UNL     1       3.659   6.488  19.505  0.00  0.00    +0.000 OA
ENDROOT
BRANCH   4   6
ATOM      6  C   UNL     1       5.489   4.949  18.904  0.00  0.00    +0.000 C 
ATOM      7  C   UNL     1       6.011   4.959  17.670  0.00  0.00    +0.000 C 
ATOM      8  S   UNL     1       5.278   5.373  16.163  0.00  0.00    +0.000 S 
ATOM      9  C   UNL     1       6.744   5.055  15.261  0.00  0.00    +0.000 C 
ATOM     10  O   UNL     1       6.846   5.167  14.054  0.00  0.00    +0.000 OA
ATOM     11  N   UNL     1       7.726   4.671  16.112  0.00  0.00    +0.000 N 
ATOM     12  C   UNL     1       7.434   4.595  17.442  0.00  0.00    +0.000 C 
ATOM     13  O   UNL     1       8.228   4.267  18.310  0.00  0.00    +0.000 OA
ATOM     14  H   UNL     1       8.643   4.444  15.765  0.00  0.00    +0.000 HD
ENDBRANCH   4   6
BRANCH   1  18
ATOM     15  C   UNL     1       0.368  10.072  20.806  0.00  0.00    +0.000 A 
ATOM     16  C   UNL     1       0.956   9.956  19.546  0.00  0.00    +0.000 A 
ATOM     17  C   UNL     1       1.607   8.768  19.199  0.00  0.00    +0.000 A 
ATOM     18  C   UNL     1       1.681   7.695  20.102  0.00  0.00    +0.000 A 
ATOM     19  C   UNL     1       1.113   7.851  21.376  0.00  0.00    +0.000 A 
ATOM     20  C   UNL     1       0.462   9.032  21.732  0.00  0.00    +0.000 A 
BRANCH  15  21
ATOM     21  S   UNL     1      -0.500  11.543  21.261  0.00  0.00    +0.000 S 
ATOM     22  O   UNL     1      -1.061  11.389  22.581  0.00  0.00    +0.000 OA
ATOM     23  O   UNL     1      -1.287  11.997  20.135  0.00  0.00    +0.000 OA
BRANCH  21  24
ATOM     24  N   UNL     1       0.764  12.636  21.418  0.00  0.00    +0.000 NA
ATOM     25  H   UNL     1       0.555  13.297  22.167  0.00  0.00    +0.000 HD
ATOM     26  H   UNL     1       0.973  13.078  20.523  0.00  0.00    +0.000 HD
ENDBRANCH  21  24
ENDBRANCH  15  21
ENDBRANCH   1  18
TORSDOF 4
ENDMDL
MODEL 6
REMARK VINA RESULT:      -7.7      1.972      2.620
REMARK  Name = 
REMARK  4 active torsions:
REMARK  status: ('A' for Active; 'I' for Inactive)
REMARK    1  A    between atoms: N_1  and  S_2
REMARK    2  A    between atoms: S_2  and  C_5
REMARK    3  A    between atoms: C_8  and  C_9
REMARK    4  A    between atoms: C_12  and  C_13
REMARK                            x       y       z     vdW  Elec       q    Type
REMARK                         _______ _______ _______ _____ _____    ______ ____
ROOT
ATOM      1  C   UNL     1       1.686   7.530  20.266  0.00  0.00    +0.000 A 
ATOM      2  C   UNL     1       1.821   6.198  20.591  0.00  0.00    +0.000 A 
ATOM      3  C   UNL     1       2.657   5.626  19.599  0.00  0.00    +0.000 A 
ATOM      4  C   UNL     1       3.013   6.630  18.710  0.00  0.00    +0.000 A 
ATOM      5  O   UNL     1       2.392   7.780  19.130  0.00  0.00    +0.000 OA
ENDROOT
BRANCH   4   6
ATOM      6  C   UNL     1       3.824   6.549  17.545  0.00  0.00    +0.000 C 
ATOM      7  C   UNL     1       5.046   6.001  17.519  0.00  0.00    +0.000 C 
ATOM      8  S   UNL     1       5.926   5.204  18.773  0.00  0.00    +0.000 S 
ATOM      9  C   UNL     1       7.307   4.910  17.739  0.00  0.00    +0.000 C 
ATOM     10  O   UNL     1       8.327   4.352  18.097  0.00  0.00    +0.000 OA
ATOM     11  N   UNL     1       7.058   5.397  16.499  0.00  0.00    +0.000 N 
ATOM     12  C   UNL     1       5.856   6.000  16.273  0.00  0.00    +0.000 C 
ATOM     13  O   UNL     1       5.508   6.476  15.203  0.00  0.00    +0.000 OA
ATOM     14  H   UNL     1       7.748   5.318  15.771  0.00  0.00    +0.000 HD
ENDBRANCH   4   6
BRANCH   1  18
ATOM     15  C   UNL     1      -0.411  10.832  21.970  0.00  0.00    +0.000 A 
ATOM     16  C   UNL     1      -0.064  10.859  20.619  0.00  0.00    +0.000 A 
ATOM     17  C   UNL     1       0.636   9.782  20.067  0.00  0.00    +0.000 A 
ATOM     18  C   UNL     1       1.000   8.679  20.856  0.00  0.00    +0.000 A 
ATOM     19  C   UNL     1       0.671   8.692  22.220  0.00  0.00    +0.000 A 
ATOM     20  C   UNL     1      -0.028   9.762  22.779  0.00  0.00    +0.000 A 
BRANCH  15  21
ATOM     21  S   UNL     1      -1.334  12.157  22.688  0.00  0.00    +0.000 S 
ATOM     22  O   UNL     1      -0.431  13.135  23.243  0.00  0.00    +0.000 OA
ATOM     23  O   UNL     1      -2.440  11.609  23.444  0.00  0.00    +0.000 OA
BRANCH  21  24
ATOM     24  N   UNL     1      -2.007  12.867  21.324  0.00  0.00    +0.000 NA
ATOM     25  H   UNL     1      -2.699  13.562  21.605  0.00  0.00    +0.000 HD
ATOM     26  H   UNL     1      -2.370  12.156  20.689  0.00  0.00    +0.000 HD
ENDBRANCH  21  24
ENDBRANCH  15  21
ENDBRANCH   1  18
TORSDOF 4
ENDMDL
MODEL 7
REMARK VINA RESULT:      -7.7      1.248      1.650
REMARK  Name = 
REMARK  4 active torsions:
REMARK  status: ('A' for Active; 'I' for Inactive)
REMARK    1  A    between atoms: N_1  and  S_2
REMARK    2  A    between atoms: S_2  and  C_5
REMARK    3  A    between atoms: C_8  and  C_9
REMARK    4  A    between atoms: C_12  and  C_13
REMARK                            x       y       z     vdW  Elec       q    Type
REMARK                         _______ _______ _______ _____ _____    ______ ____
ROOT
ATOM      1  C   UNL     1       2.239   6.570  19.437  0.00  0.00    +0.000 A 
ATOM      2  C   UNL     1       1.771   5.366  18.960  0.00  0.00    +0.000 A 
ATOM      3  C   UNL     1       2.913   4.609  18.594  0.00  0.00    +0.000 A 
ATOM      4  C   UNL     1       4.038   5.371  18.874  0.00  0.00    +0.000 A 
ATOM      5  O   UNL     1       3.598   6.572  19.371  0.00  0.00    +0.000 OA
ENDROOT
BRANCH   4   6
ATOM      6  C   UNL     1       5.409   5.052  18.671  0.00  0.00    +0.000 C 
ATOM      7  C   UNL     1       5.998   5.010  17.468  0.00  0.00    +0.000 C 
ATOM      8  S   UNL     1       5.356   5.382  15.909  0.00  0.00    +0.000 S 
ATOM      9  C   UNL     1       6.863   5.010  15.102  0.00  0.00    +0.000 C 
ATOM     10  O   UNL     1       7.033   5.077  13.899  0.00  0.00    +0.000 OA
ATOM     11  N   UNL     1       7.790   4.640  16.019  0.00  0.00    +0.000 N 
ATOM     12  C   UNL     1       7.425   4.616  17.332  0.00  0.00    +0.000 C 
ATOM     13  O   UNL     1       8.165   4.306  18.254  0.00  0.00    +0.000 OA
ATOM     14  H   UNL     1       8.721   4.386  15.731  0.00  0.00    +0.000 HD
ENDBRANCH   4   6
BRANCH   1  18
ATOM     15  C   UNL     1       0.551  10.130  21.075  0.00  0.00    +0.000 A 
ATOM     16  C   UNL     1       0.670   8.993  21.875  0.00  0.00    +0.000 A 
ATOM     17  C   UNL     1       1.209   7.823  21.331  0.00  0.00    +0.000 A 
ATOM     18  C   UNL     1       1.626   7.777  19.990  0.00  0.00    +0.000 A 
ATOM     19  C   UNL     1       1.463   8.924  19.198  0.00  0.00    +0.000 A 
ATOM     20  C   UNL     1       0.925  10.095  19.732  0.00  0.00    +0.000 A 
BRANCH  15  21
ATOM     21  S   UNL     1      -0.086  11.637  21.744  0.00  0.00    +0.000 S 
ATOM     22  O   UNL     1       0.837  12.714  21.482  0.00  0.00    +0.000 OA
ATOM     23  O   UNL     1      -0.621  11.381  23.065  0.00  0.00    +0.000 OA
BRANCH  21  24
ATOM     24  N   UNL     1      -1.409  11.906  20.748  0.00  0.00    +0.000 NA
ATOM     25  H   UNL     1      -1.869  12.777  21.016  0.00  0.00    +0.000 HD
ATOM     26  H   UNL     1      -2.029  11.096  20.743  0.00  0.00    +0.000 HD
ENDBRANCH  21  24
ENDBRANCH  15  21
ENDBRANCH   1  18
TORSDOF 4
ENDMDL
MODEL 8
REMARK VINA RESULT:      -7.6      2.933      8.454
REMARK  Name = 
REMARK  4 active torsions:
REMARK  status: ('A' for Active; 'I' for Inactive)
REMARK    1  A    between atoms: N_1  and  S_2
REMARK    2  A    between atoms: S_2  and  C_5
REMARK    3  A    between atoms: C_8  and  C_9
REMARK    4  A    between atoms: C_12  and  C_13
REMARK                            x       y       z     vdW  Elec       q    Type
REMARK                         _______ _______ _______ _____ _____    ______ ____
ROOT
ATOM      1  C   UNL     1       1.542   7.889  20.662  0.00  0.00    +0.000 A 
ATOM      2  C   UNL     1       1.197   8.354  21.911  0.00  0.00    +0.000 A 
ATOM      3  C   UNL     1       0.739   9.684  21.731  0.00  0.00    +0.000 A 
ATOM      4  C   UNL     1       0.809   9.980  20.376  0.00  0.00    +0.000 A 
ATOM      5  O   UNL     1       1.320   8.872  19.748  0.00  0.00    +0.000 OA
ENDROOT
BRANCH   4   6
ATOM      6  C   UNL     1       0.474  11.187  19.705  0.00  0.00    +0.000 C 
ATOM      7  C   UNL     1      -0.482  11.286  18.771  0.00  0.00    +0.000 C 
ATOM      8  S   UNL     1      -1.585  10.091  18.190  0.00  0.00    +0.000 S 
ATOM      9  C   UNL     1      -2.331  11.202  17.061  0.00  0.00    +0.000 C 
ATOM     10  O   UNL     1      -3.234  10.906  16.301  0.00  0.00    +0.000 OA
ATOM     11  N   UNL     1      -1.746  12.420  17.169  0.00  0.00    +0.000 N 
ATOM     12  C   UNL     1      -0.739  12.574  18.075  0.00  0.00    +0.000 C 
ATOM     13  O   UNL     1      -0.135  13.617  18.272  0.00  0.00    +0.000 OA
ATOM     14  H   UNL     1      -2.049  13.185  16.590  0.00  0.00    +0.000 HD
ENDBRANCH   4   6
BRANCH   1  18
ATOM     15  C   UNL     1       2.938   4.196  19.044  0.00  0.00    +0.000 A 
ATOM     16  C   UNL     1       2.252   4.200  20.259  0.00  0.00    +0.000 A 
ATOM     17  C   UNL     1       1.809   5.414  20.794  0.00  0.00    +0.000 A 
ATOM     18  C   UNL     1       2.052   6.626  20.128  0.00  0.00    +0.000 A 
ATOM     19  C   UNL     1       2.775   6.598  18.926  0.00  0.00    +0.000 A 
ATOM     20  C   UNL     1       3.221   5.392  18.384  0.00  0.00    +0.000 A 
BRANCH  15  21
ATOM     21  S   UNL     1       3.472   2.675  18.319  0.00  0.00    +0.000 S 
ATOM     22  O   UNL     1       2.433   2.150  17.467  0.00  0.00    +0.000 OA
ATOM     23  O   UNL     1       4.122   1.869  19.330  0.00  0.00    +0.000 OA
BRANCH  21  24
ATOM     24  N   UNL     1       4.689   3.209  17.293  0.00  0.00    +0.000 NA
ATOM     25  H   UNL     1       4.838   2.524  16.552  0.00  0.00    +0.000 HD
ATOM     26  H   UNL     1       5.532   3.436  17.821  0.00  0.00    +0.000 HD
ENDBRANCH  21  24
ENDBRANCH  15  21
ENDBRANCH   1  18
TORSDOF 4
ENDMDL
MODEL 9
REMARK VINA RESULT:      -7.6      3.286      8.962
REMARK  Name = 
REMARK  4 active torsions:
REMARK  status: ('A' for Active; 'I' for Inactive)
REMARK    1  A    between atoms: N_1  and  S_2
REMARK    2  A    between atoms: S_2  and  C_5
REMARK    3  A    between atoms: C_8  and  C_9
REMARK    4  A    between atoms: C_12  and  C_13
REMARK                            x       y       z     vdW  Elec       q    Type
REMARK                         _______ _______ _______ _____ _____    ______ ____
ROOT
ATOM      1  C   UNL     1       2.010   8.317  18.772  0.00  0.00    +0.000 A 
ATOM      2  C   UNL     1       2.473   9.247  17.868  0.00  0.00    +0.000 A 
ATOM      3  C   UNL     1       1.679  10.409  18.047  0.00  0.00    +0.000 A 
ATOM      4  C   UNL     1       0.768  10.151  19.062  0.00  0.00    +0.000 A 
ATOM      5  O   UNL     1       0.979   8.860  19.476  0.00  0.00    +0.000 OA
ENDROOT
BRANCH   4   6
ATOM      6  C   UNL     1      -0.244  10.997  19.593  0.00  0.00    +0.000 C 
ATOM      7  C   UNL     1      -1.423  11.219  18.997  0.00  0.00    +0.000 C 
ATOM      8  S   UNL     1      -2.077  10.537  17.552  0.00  0.00    +0.000 S 
ATOM      9  C   UNL     1      -3.559  11.459  17.683  0.00  0.00    +0.000 C 
ATOM     10  O   UNL     1      -4.473  11.408  16.881  0.00  0.00    +0.000 OA
ATOM     11  N   UNL     1      -3.522  12.224  18.801  0.00  0.00    +0.000 N 
ATOM     12  C   UNL     1      -2.411  12.160  19.589  0.00  0.00    +0.000 C 
ATOM     13  O   UNL     1      -2.254  12.794  20.621  0.00  0.00    +0.000 OA
ATOM     14  H   UNL     1      -4.295  12.825  19.035  0.00  0.00    +0.000 HD
ENDBRANCH   4   6
BRANCH   1  18
ATOM     15  C   UNL     1       2.997   4.289  19.777  0.00  0.00    +0.000 A 
ATOM     16  C   UNL     1       2.239   5.054  20.664  0.00  0.00    +0.000 A 
ATOM     17  C   UNL     1       1.931   6.379  20.338  0.00  0.00    +0.000 A 
ATOM     18  C   UNL     1       2.378   6.949  19.136  0.00  0.00    +0.000 A 
ATOM     19  C   UNL     1       3.168   6.168  18.277  0.00  0.00    +0.000 A 
ATOM     20  C   UNL     1       3.481   4.846  18.593  0.00  0.00    +0.000 A 
BRANCH  15  21
ATOM     21  S   UNL     1       3.367   2.599  20.137  0.00  0.00    +0.000 S 
ATOM     22  O   UNL     1       2.712   1.742  19.180  0.00  0.00    +0.000 OA
ATOM     23  O   UNL     1       3.262   2.384  21.565  0.00  0.00    +0.000 OA
BRANCH  21  24
ATOM     24  N   UNL     1       5.005   2.536  19.774  0.00  0.00    +0.000 NA
ATOM     25  H   UNL     1       5.534   3.028  20.494  0.00  0.00    +0.000 HD
ATOM     26  H   UNL     1       5.178   2.875  18.828  0.00  0.00    +0.000 HD
ENDBRANCH  21  24
ENDBRANCH  15  21
ENDBRANCH   1  18
TORSDOF 4
ENDMDL
