MODEL 1
REMARK VINA RESULT:      -8.3      0.000      0.000
REMARK  Name = 
REMARK  8 active torsions:
REMARK  status: ('A' for Active; 'I' for Inactive)
REMARK    1  A    between atoms: C_1  and  O_2
REMARK    2  A    between atoms: O_2  and  C_3
REMARK    3  A    between atoms: C_6  and  O_7
REMARK    4  A    between atoms: O_7  and  C_8
REMARK    5  A    between atoms: C_9  and  C_10
REMARK    6  A    between atoms: C_10  and  N_11
REMARK    7  A    between atoms: N_11  and  C_12
REMARK    8  A    between atoms: N_11  and  C_13
REMARK                            x       y       z     vdW  Elec       q    Type
REMARK                         _______ _______ _______ _____ _____    ______ ____
ROOT
ATOM      1  C   UNL     1       4.583   3.961  17.446  0.00  0.00    +0.000 A 
ATOM      2  C   UNL     1       4.577   4.639  16.217  0.00  0.00    +0.000 A 
ATOM      3  C   UNL     1       5.458   5.698  15.955  0.00  0.00    +0.000 A 
ATOM      4  C   UNL     1       6.371   6.137  16.901  0.00  0.00    +0.000 A 
ATOM      5  N   UNL     1       7.064   7.253  16.692  0.00  0.00    +0.000 NA
ATOM      6  C   UNL     1       7.893   7.642  17.662  0.00  0.00    +0.000 A 
ATOM      7  N   UNL     1       8.328   8.957  17.666  0.00  0.00    +0.000 N 
ATOM      8  N   UNL     1       8.164   6.965  18.777  0.00  0.00    +0.000 NA
ATOM      9  C   UNL     1       7.444   5.868  18.983  0.00  0.00    +0.000 A 
ATOM     10  N   UNL     1       7.643   5.267  20.233  0.00  0.00    +0.000 N 
ATOM     11  C   UNL     1       6.468   5.414  18.088  0.00  0.00    +0.000 A 
ATOM     12  C   UNL     1       5.590   4.346  18.346  0.00  0.00    +0.000 A 
ATOM     13  H   UNL     1       7.475   9.508  17.649  0.00  0.00    +0.000 HD
ATOM     14  H   UNL     1       8.818   9.069  18.547  0.00  0.00    +0.000 HD
ATOM     15  H   UNL     1       8.432   5.745  20.669  0.00  0.00    +0.000 HD
ATOM     16  H   UNL     1       7.796   4.268  20.158  0.00  0.00    +0.000 HD
ENDROOT
BRANCH   1  17
ATOM     17  N   UNL     1       3.660   2.975  17.766  0.00  0.00    +0.000 N 
ATOM     18  C   UNL     1       4.104   1.673  18.239  0.00  0.00    +0.000 C 
BRANCH  17  19
ATOM     19  C   UNL     1       2.235   3.324  17.982  0.00  0.00    +0.000 C 
BRANCH  19  24
ATOM     20  C   UNL     1       2.242   7.059  18.855  0.00  0.00    +0.000 A 
ATOM     21  C   UNL     1       1.882   7.026  20.197  0.00  0.00    +0.000 A 
ATOM     22  C   UNL     1       1.549   5.817  20.809  0.00  0.00    +0.000 A 
ATOM     23  C   UNL     1       1.621   4.613  20.096  0.00  0.00    +0.000 A 
ATOM     24  C   UNL     1       1.979   4.628  18.731  0.00  0.00    +0.000 A 
ATOM     25  C   UNL     1       2.253   5.872  18.125  0.00  0.00    +0.000 A 
BRANCH  20  27
ATOM     26  C   UNL     1       1.528   9.171  18.023  0.00  0.00    +0.000 C 
ATOM     27  O   UNL     1       2.589   8.296  18.387  0.00  0.00    +0.000 OA
ENDBRANCH  20  27
BRANCH  23  28
ATOM     28  O   UNL     1       1.362   3.386  20.652  0.00  0.00    +0.000 OA
ATOM     29  C   UNL     1       2.326   2.891  21.579  0.00  0.00    +0.000 C 
ENDBRANCH  23  28
ENDBRANCH  19  24
ENDBRANCH  17  19
ENDBRANCH   1  17
TORSDOF 5
ENDMDL
MODEL 2
REMARK VINA RESULT:      -7.9      3.799      6.324
REMARK  Name = 
REMARK  8 active torsions:
REMARK  status: ('A' for Active; 'I' for Inactive)
REMARK    1  A    between atoms: C_1  and  O_2
REMARK    2  A    between atoms: O_2  and  C_3
REMARK    3  A    between atoms: C_6  and  O_7
REMARK    4  A    between atoms: O_7  and  C_8
REMARK    5  A    between atoms: C_9  and  C_10
REMARK    6  A    between atoms: C_10  and  N_11
REMARK    7  A    between atoms: N_11  and  C_12
REMARK    8  A    between atoms: N_11  and  C_13
REMARK                            x       y       z     vdW  Elec       q    Type
REMARK                         _______ _______ _______ _____ _____    ______ ____
ROOT
ATOM      1  C   UNL     1       1.746   8.382  19.412  0.00  0.00    +0.000 A 
ATOM      2  C   UNL     1       2.378   8.537  18.169  0.00  0.00    +0.000 A 
ATOM      3  C   UNL     1       3.223   7.550  17.643  0.00  0.00    +0.000 A 
ATOM      4  C   UNL     1       3.487   6.376  18.329  0.00  0.00    +0.000 A 
ATOM      5  N   UNL     1       4.429   5.544  17.892  0.00  0.00    +0.000 NA
ATOM      6  C   UNL     1       4.662   4.454  18.625  0.00  0.00    +0.000 A 
ATOM      7  N   UNL     1       5.858   3.781  18.437  0.00  0.00    +0.000 N 
ATOM      8  N   UNL     1       3.973   4.072  19.699  0.00  0.00    +0.000 NA
ATOM      9  C   UNL     1       3.056   4.926  20.138  0.00  0.00    +0.000 A 
ATOM     10  N   UNL     1       2.460   4.567  21.355  0.00  0.00    +0.000 N 
ATOM     11  C   UNL     1       2.792   6.152  19.516  0.00  0.00    +0.000 A 
ATOM     12  C   UNL     1       1.937   7.139  20.038  0.00  0.00    +0.000 A 
ATOM     13  H   UNL     1       6.574   4.490  18.567  0.00  0.00    +0.000 HD
ATOM     14  H   UNL     1       5.889   3.088  19.178  0.00  0.00    +0.000 HD
ATOM     15  H   UNL     1       2.775   3.621  21.570  0.00  0.00    +0.000 HD
ATOM     16  H   UNL     1       1.450   4.634  21.321  0.00  0.00    +0.000 HD
ENDROOT
BRANCH   1  17
ATOM     17  N   UNL     1       0.983   9.381  19.999  0.00  0.00    +0.000 N 
ATOM     18  C   UNL     1       0.784   9.409  21.440  0.00  0.00    +0.000 C 
BRANCH  17  19
ATOM     19  C   UNL     1       0.661  10.619  19.248  0.00  0.00    +0.000 C 
BRANCH  19  24
ATOM     20  C   UNL     1      -2.347  10.180  16.908  0.00  0.00    +0.000 A 
ATOM     21  C   UNL     1      -3.231  11.121  17.421  0.00  0.00    +0.000 A 
ATOM     22  C   UNL     1      -2.907  11.840  18.572  0.00  0.00    +0.000 A 
ATOM     23  C   UNL     1      -1.667  11.662  19.198  0.00  0.00    +0.000 A 
ATOM     24  C   UNL     1      -0.759  10.707  18.695  0.00  0.00    +0.000 A 
ATOM     25  C   UNL     1      -1.138   9.953  17.565  0.00  0.00    +0.000 A 
BRANCH  20  27
ATOM     26  C   UNL     1      -3.482  10.380  14.827  0.00  0.00    +0.000 C 
ATOM     27  O   UNL     1      -2.760   9.577  15.752  0.00  0.00    +0.000 OA
ENDBRANCH  20  27
BRANCH  23  28
ATOM     28  O   UNL     1      -1.264  12.376  20.298  0.00  0.00    +0.000 OA
ATOM     29  C   UNL     1      -2.030  12.199  21.488  0.00  0.00    +0.000 C 
ENDBRANCH  23  28
ENDBRANCH  19  24
ENDBRANCH  17  19
ENDBRANCH   1  17
TORSDOF 5
ENDMDL
MODEL 3
REMARK VINA RESULT:      -7.7      3.382      6.226
REMARK  Name = 
REMARK  8 active torsions:
REMARK  status: ('A' for Active; 'I' for Inactive)
REMARK    1  A    between atoms: C_1  and  O_2
REMARK    2  A    between atoms: O_2  and  C_3
REMARK    3  A    between atoms: C_6  and  O_7
REMARK    4  A    between atoms: O_7  and  C_8
REMARK    5  A    between atoms: C_9  and  C_10
REMARK    6  A    between atoms: C_10  and  N_11
REMARK    7  A    between atoms: N_11  and  C_12
REMARK    8  A    between atoms: N_11  and  C_13
REMARK                            x       y       z     vdW  Elec       q    Type
REMARK                         _______ _______ _______ _____ _____    ______ ____
ROOT
ATOM      1  C   UNL     1       2.253   7.156  19.360  0.00  0.00    +0.000 A 
ATOM      2  C   UNL     1       3.335   7.068  18.471  0.00  0.00    +0.000 A 
ATOM      3  C   UNL     1       4.045   5.873  18.290  0.00  0.00    +0.000 A 
ATOM      4  C   UNL     1       3.723   4.721  18.989  0.00  0.00    +0.000 A 
ATOM      5  N   UNL     1       4.523   3.659  18.932  0.00  0.00    +0.000 NA
ATOM      6  C   UNL     1       4.175   2.599  19.664  0.00  0.00    +0.000 A 
ATOM      7  N   UNL     1       5.143   1.648  19.941  0.00  0.00    +0.000 N 
ATOM      8  N   UNL     1       3.051   2.470  20.369  0.00  0.00    +0.000 NA
ATOM      9  C   UNL     1       2.279   3.547  20.437  0.00  0.00    +0.000 A 
ATOM     10  N   UNL     1       1.188   3.427  21.310  0.00  0.00    +0.000 N 
ATOM     11  C   UNL     1       2.589   4.753  19.799  0.00  0.00    +0.000 A 
ATOM     12  C   UNL     1       1.872   5.951  19.973  0.00  0.00    +0.000 A 
ATOM     13  H   UNL     1       5.903   2.172  20.364  0.00  0.00    +0.000 HD
ATOM     14  H   UNL     1       4.711   1.022  20.613  0.00  0.00    +0.000 HD
ATOM     15  H   UNL     1       1.150   2.451  21.602  0.00  0.00    +0.000 HD
ATOM     16  H   UNL     1       0.321   3.732  20.883  0.00  0.00    +0.000 HD
ENDROOT
BRANCH   1  17
ATOM     17  N   UNL     1       1.595   8.348  19.630  0.00  0.00    +0.000 N 
ATOM     18  C   UNL     1       1.185   8.675  20.987  0.00  0.00    +0.000 C 
BRANCH  17  19
ATOM     19  C   UNL     1       1.613   9.455  18.644  0.00  0.00    +0.000 C 
BRANCH  19  24
ATOM     20  C   UNL     1      -1.859  10.297  17.247  0.00  0.00    +0.000 A 
ATOM     21  C   UNL     1      -2.020  11.605  17.689  0.00  0.00    +0.000 A 
ATOM     22  C   UNL     1      -1.061  12.196  18.511  0.00  0.00    +0.000 A 
ATOM     23  C   UNL     1       0.104  11.501  18.861  0.00  0.00    +0.000 A 
ATOM     24  C   UNL     1       0.283  10.170  18.427  0.00  0.00    +0.000 A 
ATOM     25  C   UNL     1      -0.732   9.579  17.646  0.00  0.00    +0.000 A 
BRANCH  20  27
ATOM     26  C   UNL     1      -3.234  10.712  15.351  0.00  0.00    +0.000 C 
ATOM     27  O   UNL     1      -2.845   9.849  16.412  0.00  0.00    +0.000 OA
ENDBRANCH  20  27
BRANCH  23  28
ATOM     28  O   UNL     1       1.112  12.043  19.618  0.00  0.00    +0.000 OA
ATOM     29  C   UNL     1       0.746  12.538  20.904  0.00  0.00    +0.000 C 
ENDBRANCH  23  28
ENDBRANCH  19  24
ENDBRANCH  17  19
ENDBRANCH   1  17
TORSDOF 5
ENDMDL
MODEL 4
REMARK VINA RESULT:      -7.7      3.459      6.280
REMARK  Name = 
REMARK  8 active torsions:
REMARK  status: ('A' for Active; 'I' for Inactive)
REMARK    1  A    between atoms: C_1  and  O_2
REMARK    2  A    between atoms: O_2  and  C_3
REMARK    3  A    between atoms: C_6  and  O_7
REMARK    4  A    between atoms: O_7  and  C_8
REMARK    5  A    between atoms: C_9  and  C_10
REMARK    6  A    between atoms: C_10  and  N_11
REMARK    7  A    between atoms: N_11  and  C_12
REMARK    8  A    between atoms: N_11  and  C_13
REMARK                            x       y       z     vdW  Elec       q    Type
REMARK                         _______ _______ _______ _____ _____    ______ ____
ROOT
ATOM      1  C   UNL     1       2.313   6.829  18.722  0.00  0.00    +0.000 A 
ATOM      2  C   UNL     1       3.408   6.705  17.853  0.00  0.00    +0.000 A 
ATOM      3  C   UNL     1       3.919   5.452  17.484  0.00  0.00    +0.000 A 
ATOM      4  C   UNL     1       3.376   4.273  17.970  0.00  0.00    +0.000 A 
ATOM      5  N   UNL     1       3.991   3.114  17.748  0.00  0.00    +0.000 NA
ATOM      6  C   UNL     1       3.438   2.023  18.281  0.00  0.00    +0.000 A 
ATOM      7  N   UNL     1       4.221   0.888  18.411  0.00  0.00    +0.000 N 
ATOM      8  N   UNL     1       2.275   1.973  18.930  0.00  0.00    +0.000 NA
ATOM      9  C   UNL     1       1.689   3.141  19.166  0.00  0.00    +0.000 A 
ATOM     10  N   UNL     1       0.553   3.068  19.983  0.00  0.00    +0.000 N 
ATOM     11  C   UNL     1       2.225   4.365  18.750  0.00  0.00    +0.000 A 
ATOM     12  C   UNL     1       1.708   5.622  19.112  0.00  0.00    +0.000 A 
ATOM     13  H   UNL     1       5.035   1.197  18.933  0.00  0.00    +0.000 HD
ATOM     14  H   UNL     1       3.659   0.243  18.957  0.00  0.00    +0.000 HD
ATOM     15  H   UNL     1       0.339   2.077  20.104  0.00  0.00    +0.000 HD
ATOM     16  H   UNL     1      -0.231   3.582  19.598  0.00  0.00    +0.000 HD
ENDROOT
BRANCH   1  17
ATOM     17  N   UNL     1       1.849   8.055  19.178  0.00  0.00    +0.000 N 
ATOM     18  C   UNL     1       1.692   8.301  20.603  0.00  0.00    +0.000 C 
BRANCH  17  19
ATOM     19  C   UNL     1       1.846   9.237  18.283  0.00  0.00    +0.000 C 
BRANCH  19  24
ATOM     20  C   UNL     1      -1.735  10.432  17.604  0.00  0.00    +0.000 A 
ATOM     21  C   UNL     1      -1.662  11.758  18.016  0.00  0.00    +0.000 A 
ATOM     22  C   UNL     1      -0.494  12.254  18.596  0.00  0.00    +0.000 A 
ATOM     23  C   UNL     1       0.639  11.440  18.725  0.00  0.00    +0.000 A 
ATOM     24  C   UNL     1       0.582  10.090  18.317  0.00  0.00    +0.000 A 
ATOM     25  C   UNL     1      -0.631   9.601  17.789  0.00  0.00    +0.000 A 
BRANCH  20  27
ATOM     26  C   UNL     1      -2.891   9.852  15.608  0.00  0.00    +0.000 C 
ATOM     27  O   UNL     1      -2.916  10.082  17.011  0.00  0.00    +0.000 OA
ENDBRANCH  20  27
BRANCH  23  28
ATOM     28  O   UNL     1       1.835  11.881  19.233  0.00  0.00    +0.000 OA
ATOM     29  C   UNL     1       2.478  12.937  18.522  0.00  0.00    +0.000 C 
ENDBRANCH  23  28
ENDBRANCH  19  24
ENDBRANCH  17  19
ENDBRANCH   1  17
TORSDOF 5
ENDMDL
MODEL 5
REMARK VINA RESULT:      -7.7      4.378      6.486
REMARK  Name = 
REMARK  8 active torsions:
REMARK  status: ('A' for Active; 'I' for Inactive)
REMARK    1  A    between atoms: C_1  and  O_2
REMARK    2  A    between atoms: O_2  and  C_3
REMARK    3  A    between atoms: C_6  and  O_7
REMARK    4  A    between atoms: O_7  and  C_8
REMARK    5  A    between atoms: C_9  and  C_10
REMARK    6  A    between atoms: C_10  and  N_11
REMARK    7  A    between atoms: N_11  and  C_12
REMARK    8  A    between atoms: N_11  and  C_13
REMARK                            x       y       z     vdW  Elec       q    Type
REMARK                         _______ _______ _______ _____ _____    ______ ____
ROOT
ATOM      1  C   UNL     1       2.057   7.714  19.259  0.00  0.00    +0.000 A 
ATOM      2  C   UNL     1       2.073   8.620  18.187  0.00  0.00    +0.000 A 
ATOM      3  C   UNL     1       1.486   9.889  18.285  0.00  0.00    +0.000 A 
ATOM      4  C   UNL     1       0.849  10.310  19.442  0.00  0.00    +0.000 A 
ATOM      5  N   UNL     1       0.148  11.441  19.445  0.00  0.00    +0.000 NA
ATOM      6  C   UNL     1      -0.476  11.764  20.579  0.00  0.00    +0.000 A 
ATOM      7  N   UNL     1      -1.503  12.691  20.521  0.00  0.00    +0.000 N 
ATOM      8  N   UNL     1      -0.383  11.110  21.736  0.00  0.00    +0.000 NA
ATOM      9  C   UNL     1       0.297   9.970  21.709  0.00  0.00    +0.000 A 
ATOM     10  N   UNL     1       0.246   9.232  22.899  0.00  0.00    +0.000 N 
ATOM     11  C   UNL     1       0.909   9.471  20.553  0.00  0.00    +0.000 A 
ATOM     12  C   UNL     1       1.506   8.201  20.456  0.00  0.00    +0.000 A 
ATOM     13  H   UNL     1      -2.143  12.320  19.825  0.00  0.00    +0.000 HD
ATOM     14  H   UNL     1      -1.921  12.678  21.446  0.00  0.00    +0.000 HD
ATOM     15  H   UNL     1      -0.204   9.827  23.596  0.00  0.00    +0.000 HD
ATOM     16  H   UNL     1       1.163   8.922  23.198  0.00  0.00    +0.000 HD
ENDROOT
BRANCH   1  17
ATOM     17  N   UNL     1       2.544   6.419  19.157  0.00  0.00    +0.000 N 
ATOM     18  C   UNL     1       2.631   5.568  20.334  0.00  0.00    +0.000 C 
BRANCH  17  19
ATOM     19  C   UNL     1       2.642   5.755  17.835  0.00  0.00    +0.000 C 
BRANCH  19  24
ATOM     20  C   UNL     1       6.294   6.076  16.706  0.00  0.00    +0.000 A 
ATOM     21  C   UNL     1       6.542   4.798  16.219  0.00  0.00    +0.000 A 
ATOM     22  C   UNL     1       5.573   3.801  16.329  0.00  0.00    +0.000 A 
ATOM     23  C   UNL     1       4.318   4.084  16.884  0.00  0.00    +0.000 A 
ATOM     24  C   UNL     1       4.051   5.373  17.389  0.00  0.00    +0.000 A 
ATOM     25  C   UNL     1       5.071   6.345  17.318  0.00  0.00    +0.000 A 
BRANCH  20  27
ATOM     26  C   UNL     1       7.663   7.809  17.591  0.00  0.00    +0.000 C 
ATOM     27  O   UNL     1       7.305   6.974  16.497  0.00  0.00    +0.000 OA
ENDBRANCH  20  27
BRANCH  23  28
ATOM     28  O   UNL     1       3.303   3.165  16.970  0.00  0.00    +0.000 OA
ATOM     29  C   UNL     1       3.433   2.166  17.980  0.00  0.00    +0.000 C 
ENDBRANCH  23  28
ENDBRANCH  19  24
ENDBRANCH  17  19
ENDBRANCH   1  17
TORSDOF 5
ENDMDL
MODEL 6
REMARK VINA RESULT:      -7.6      2.971      5.483
REMARK  Name = 
REMARK  8 active torsions:
REMARK  status: ('A' for Active; 'I' for Inactive)
REMARK    1  A    between atoms: C_1  and  O_2
REMARK    2  A    between atoms: O_2  and  C_3
REMARK    3  A    between atoms: C_6  and  O_7
REMARK    4  A    between atoms: O_7  and  C_8
REMARK    5  A    between atoms: C_9  and  C_10
REMARK    6  A    between atoms: C_10  and  N_11
REMARK    7  A    between atoms: N_11  and  C_12
REMARK    8  A    between atoms: N_11  and  C_13
REMARK                            x       y       z     vdW  Elec       q    Type
REMARK                         _______ _______ _______ _____ _____    ______ ____
ROOT
ATOM      1  C   UNL     1       2.709   7.025  18.381  0.00  0.00    +0.000 A 
ATOM      2  C   UNL     1       2.179   5.731  18.266  0.00  0.00    +0.000 A 
ATOM      3  C   UNL     1       2.888   4.697  17.639  0.00  0.00    +0.000 A 
ATOM      4  C   UNL     1       4.143   4.904  17.089  0.00  0.00    +0.000 A 
ATOM      5  N   UNL     1       4.711   3.957  16.345  0.00  0.00    +0.000 NA
ATOM      6  C   UNL     1       5.900   4.239  15.810  0.00  0.00    +0.000 A 
ATOM      7  N   UNL     1       6.339   3.470  14.745  0.00  0.00    +0.000 N 
ATOM      8  N   UNL     1       6.616   5.341  16.031  0.00  0.00    +0.000 NA
ATOM      9  C   UNL     1       6.024   6.286  16.752  0.00  0.00    +0.000 A 
ATOM     10  N   UNL     1       6.738   7.489  16.835  0.00  0.00    +0.000 N 
ATOM     11  C   UNL     1       4.735   6.151  17.280  0.00  0.00    +0.000 A 
ATOM     12  C   UNL     1       4.026   7.185  17.918  0.00  0.00    +0.000 A 
ATOM     13  H   UNL     1       5.589   3.529  14.062  0.00  0.00    +0.000 HD
ATOM     14  H   UNL     1       7.176   3.937  14.410  0.00  0.00    +0.000 HD
ATOM     15  H   UNL     1       7.656   7.316  16.424  0.00  0.00    +0.000 HD
ATOM     16  H   UNL     1       6.805   7.830  17.787  0.00  0.00    +0.000 HD
ENDROOT
BRANCH   1  17
ATOM     17  N   UNL     1       1.991   8.088  18.909  0.00  0.00    +0.000 N 
ATOM     18  C   UNL     1       1.657   8.123  20.325  0.00  0.00    +0.000 C 
BRANCH  17  19
ATOM     19  C   UNL     1       1.863   9.357  18.153  0.00  0.00    +0.000 C 
BRANCH  19  24
ATOM     20  C   UNL     1      -1.800  10.268  17.464  0.00  0.00    +0.000 A 
ATOM     21  C   UNL     1      -1.898  11.500  18.099  0.00  0.00    +0.000 A 
ATOM     22  C   UNL     1      -0.821  12.008  18.826  0.00  0.00    +0.000 A 
ATOM     23  C   UNL     1       0.392  11.309  18.885  0.00  0.00    +0.000 A 
ATOM     24  C   UNL     1       0.508  10.053  18.253  0.00  0.00    +0.000 A 
ATOM     25  C   UNL     1      -0.617   9.539  17.575  0.00  0.00    +0.000 A 
BRANCH  20  27
ATOM     26  C   UNL     1      -2.886  10.168  15.350  0.00  0.00    +0.000 C 
ATOM     27  O   UNL     1      -2.906   9.903  16.747  0.00  0.00    +0.000 OA
ENDBRANCH  20  27
BRANCH  23  28
ATOM     28  O   UNL     1       1.506  11.778  19.535  0.00  0.00    +0.000 OA
ATOM     29  C   UNL     1       1.997  13.050  19.118  0.00  0.00    +0.000 C 
ENDBRANCH  23  28
ENDBRANCH  19  24
ENDBRANCH  17  19
ENDBRANCH   1  17
TORSDOF 5
ENDMDL
MODEL 7
REMARK VINA RESULT:      -7.6      4.058      6.255
REMARK  Name = 
REMARK  8 active torsions:
REMARK  status: ('A' for Active; 'I' for Inactive)
REMARK    1  A    between atoms: C_1  and  O_2
REMARK    2  A    between atoms: O_2  and  C_3
REMARK    3  A    between atoms: C_6  and  O_7
REMARK    4  A    between atoms: O_7  and  C_8
REMARK    5  A    between atoms: C_9  and  C_10
REMARK    6  A    between atoms: C_10  and  N_11
REMARK    7  A    between atoms: N_11  and  C_12
REMARK    8  A    between atoms: N_11  and  C_13
REMARK                            x       y       z     vdW  Elec       q    Type
REMARK                         _______ _______ _______ _____ _____    ______ ____
ROOT
ATOM      1  C   UNL     1       2.370   6.848  18.997  0.00  0.00    +0.000 A 
ATOM      2  C   UNL     1       2.462   7.604  17.819  0.00  0.00    +0.000 A 
ATOM      3  C   UNL     1       2.014   8.931  17.757  0.00  0.00    +0.000 A 
ATOM      4  C   UNL     1       1.445   9.559  18.854  0.00  0.00    +0.000 A 
ATOM      5  N   UNL     1       0.867  10.750  18.716  0.00  0.00    +0.000 NA
ATOM      6  C   UNL     1       0.301  11.278  19.802  0.00  0.00    +0.000 A 
ATOM      7  N   UNL     1      -0.624  12.295  19.632  0.00  0.00    +0.000 N 
ATOM      8  N   UNL     1       0.347  10.770  21.033  0.00  0.00    +0.000 NA
ATOM      9  C   UNL     1       0.903   9.569  21.148  0.00  0.00    +0.000 A 
ATOM     10  N   UNL     1       0.796   8.998  22.423  0.00  0.00    +0.000 N 
ATOM     11  C   UNL     1       1.438   8.867  20.063  0.00  0.00    +0.000 A 
ATOM     12  C   UNL     1       1.896   7.538  20.125  0.00  0.00    +0.000 A 
ATOM     13  H   UNL     1      -1.311  11.909  18.991  0.00  0.00    +0.000 HD
ATOM     14  H   UNL     1      -1.024  12.444  20.552  0.00  0.00    +0.000 HD
ATOM     15  H   UNL     1       0.423   9.720  23.040  0.00  0.00    +0.000 HD
ATOM     16  H   UNL     1       1.681   8.632  22.755  0.00  0.00    +0.000 HD
ENDROOT
BRANCH   1  17
ATOM     17  N   UNL     1       2.717   5.505  19.060  0.00  0.00    +0.000 N 
ATOM     18  C   UNL     1       1.862   4.493  18.458  0.00  0.00    +0.000 C 
BRANCH  17  19
ATOM     19  C   UNL     1       4.101   5.103  19.406  0.00  0.00    +0.000 C 
BRANCH  19  24
ATOM     20  C   UNL     1       5.516   4.585  15.878  0.00  0.00    +0.000 A 
ATOM     21  C   UNL     1       6.883   4.582  16.131  0.00  0.00    +0.000 A 
ATOM     22  C   UNL     1       7.364   4.834  17.416  0.00  0.00    +0.000 A 
ATOM     23  C   UNL     1       6.477   5.043  18.481  0.00  0.00    +0.000 A 
ATOM     24  C   UNL     1       5.087   5.055  18.242  0.00  0.00    +0.000 A 
ATOM     25  C   UNL     1       4.632   4.855  16.922  0.00  0.00    +0.000 A 
BRANCH  20  27
ATOM     26  C   UNL     1       6.223   3.888  13.716  0.00  0.00    +0.000 C 
ATOM     27  O   UNL     1       5.172   4.279  14.590  0.00  0.00    +0.000 OA
ENDBRANCH  20  27
BRANCH  23  28
ATOM     28  O   UNL     1       6.883   5.240  19.777  0.00  0.00    +0.000 OA
ATOM     29  C   UNL     1       8.225   5.685  19.963  0.00  0.00    +0.000 C 
ENDBRANCH  23  28
ENDBRANCH  19  24
ENDBRANCH  17  19
ENDBRANCH   1  17
TORSDOF 5
ENDMDL
MODEL 8
REMARK VINA RESULT:      -7.6      3.955      6.346
REMARK  Name = 
REMARK  8 active torsions:
REMARK  status: ('A' for Active; 'I' for Inactive)
REMARK    1  A    between atoms: C_1  and  O_2
REMARK    2  A    between atoms: O_2  and  C_3
REMARK    3  A    between atoms: C_6  and  O_7
REMARK    4  A    between atoms: O_7  and  C_8
REMARK    5  A    between atoms: C_9  and  C_10
REMARK    6  A    between atoms: C_10  and  N_11
REMARK    7  A    between atoms: N_11  and  C_12
REMARK    8  A    between atoms: N_11  and  C_13
REMARK                            x       y       z     vdW  Elec       q    Type
REMARK                         _______ _______ _______ _____ _____    ______ ____
ROOT
ATOM      1  C   UNL     1       1.740   7.453  20.033  0.00  0.00    +0.000 A 
ATOM      2  C   UNL     1       1.104   7.583  21.278  0.00  0.00    +0.000 A 
ATOM      3  C   UNL     1       0.647   8.822  21.746  0.00  0.00    +0.000 A 
ATOM      4  C   UNL     1       0.811   9.985  21.011  0.00  0.00    +0.000 A 
ATOM      5  N   UNL     1       0.533  11.166  21.557  0.00  0.00    +0.000 NA
ATOM      6  C   UNL     1       0.756  12.248  20.808  0.00  0.00    +0.000 A 
ATOM      7  N   UNL     1       0.854  13.475  21.442  0.00  0.00    +0.000 N 
ATOM      8  N   UNL     1       1.138  12.250  19.531  0.00  0.00    +0.000 NA
ATOM      9  C   UNL     1       1.437  11.066  19.011  0.00  0.00    +0.000 A 
ATOM     10  N   UNL     1       1.983  11.118  17.720  0.00  0.00    +0.000 N 
ATOM     11  C   UNL     1       1.345   9.868  19.729  0.00  0.00    +0.000 A 
ATOM     12  C   UNL     1       1.795   8.622  19.256  0.00  0.00    +0.000 A 
ATOM     13  H   UNL     1       1.574  13.343  22.145  0.00  0.00    +0.000 HD
ATOM     14  H   UNL     1       1.161  14.120  20.720  0.00  0.00    +0.000 HD
ATOM     15  H   UNL     1       1.893  12.083  17.401  0.00  0.00    +0.000 HD
ATOM     16  H   UNL     1       1.535  10.464  17.089  0.00  0.00    +0.000 HD
ENDROOT
BRANCH   1  17
ATOM     17  N   UNL     1       2.287   6.258  19.588  0.00  0.00    +0.000 N 
ATOM     18  C   UNL     1       2.465   5.141  20.503  0.00  0.00    +0.000 C 
BRANCH  17  19
ATOM     19  C   UNL     1       2.365   5.963  18.137  0.00  0.00    +0.000 C 
BRANCH  19  24
ATOM     20  C   UNL     1       5.950   6.256  16.803  0.00  0.00    +0.000 A 
ATOM     21  C   UNL     1       6.162   4.974  16.310  0.00  0.00    +0.000 A 
ATOM     22  C   UNL     1       5.195   3.983  16.480  0.00  0.00    +0.000 A 
ATOM     23  C   UNL     1       3.975   4.276  17.103  0.00  0.00    +0.000 A 
ATOM     24  C   UNL     1       3.744   5.571  17.615  0.00  0.00    +0.000 A 
ATOM     25  C   UNL     1       4.764   6.535  17.481  0.00  0.00    +0.000 A 
BRANCH  20  27
ATOM     26  C   UNL     1       7.704   7.629  17.639  0.00  0.00    +0.000 C 
ATOM     27  O   UNL     1       6.952   7.146  16.532  0.00  0.00    +0.000 OA
ENDBRANCH  20  27
BRANCH  23  28
ATOM     28  O   UNL     1       2.961   3.364  17.251  0.00  0.00    +0.000 OA
ATOM     29  C   UNL     1       3.265   2.193  18.006  0.00  0.00    +0.000 C 
ENDBRANCH  23  28
ENDBRANCH  19  24
ENDBRANCH  17  19
ENDBRANCH   1  17
TORSDOF 5
ENDMDL
MODEL 9
REMARK VINA RESULT:      -7.5      3.607      6.245
REMARK  Name = 
REMARK  8 active torsions:
REMARK  status: ('A' for Active; 'I' for Inactive)
REMARK    1  A    between atoms: C_1  and  O_2
REMARK    2  A    between atoms: O_2  and  C_3
REMARK    3  A    between atoms: C_6  and  O_7
REMARK    4  A    between atoms: O_7  and  C_8
REMARK    5  A    between atoms: C_9  and  C_10
REMARK    6  A    between atoms: C_10  and  N_11
REMARK    7  A    between atoms: N_11  and  C_12
REMARK    8  A    between atoms: N_11  and  C_13
REMARK                            x       y       z     vdW  Elec       q    Type
REMARK                         _______ _______ _______ _____ _____    ______ ____
ROOT
ATOM      1  C   UNL     1       1.941   7.215  19.527  0.00  0.00    +0.000 A 
ATOM      2  C   UNL     1       2.800   7.244  18.418  0.00  0.00    +0.000 A 
ATOM      3  C   UNL     1       3.309   6.068  17.848  0.00  0.00    +0.000 A 
ATOM      4  C   UNL     1       3.000   4.818  18.360  0.00  0.00    +0.000 A 
ATOM      5  N   UNL     1       3.637   3.738  17.915  0.00  0.00    +0.000 NA
ATOM      6  C   UNL     1       3.322   2.572  18.482  0.00  0.00    +0.000 A 
ATOM      7  N   UNL     1       4.205   1.514  18.340  0.00  0.00    +0.000 N 
ATOM      8  N   UNL     1       2.359   2.375  19.382  0.00  0.00    +0.000 NA
ATOM      9  C   UNL     1       1.752   3.466  19.835  0.00  0.00    +0.000 A 
ATOM     10  N   UNL     1       0.857   3.239  20.889  0.00  0.00    +0.000 N 
ATOM     11  C   UNL     1       2.068   4.756  19.394  0.00  0.00    +0.000 A 
ATOM     12  C   UNL     1       1.551   5.936  19.959  0.00  0.00    +0.000 A 
ATOM     13  H   UNL     1       5.092   1.875  18.676  0.00  0.00    +0.000 HD
ATOM     14  H   UNL     1       3.848   0.790  18.954  0.00  0.00    +0.000 HD
ATOM     15  H   UNL     1       0.762   2.227  20.983  0.00  0.00    +0.000 HD
ATOM     16  H   UNL     1      -0.036   3.693  20.738  0.00  0.00    +0.000 HD
ENDROOT
BRANCH   1  17
ATOM     17  N   UNL     1       1.500   8.364  20.169  0.00  0.00    +0.000 N 
ATOM     18  C   UNL     1       1.427   8.417  21.621  0.00  0.00    +0.000 C 
BRANCH  17  19
ATOM     19  C   UNL     1       1.442   9.654  19.442  0.00  0.00    +0.000 C 
BRANCH  19  24
ATOM     20  C   UNL     1      -1.719  10.268  17.355  0.00  0.00    +0.000 A 
ATOM     21  C   UNL     1      -2.345  11.263  18.096  0.00  0.00    +0.000 A 
ATOM     22  C   UNL     1      -1.806  11.682  19.313  0.00  0.00    +0.000 A 
ATOM     23  C   UNL     1      -0.600  11.144  19.782  0.00  0.00    +0.000 A 
ATOM     24  C   UNL     1       0.047  10.129  19.046  0.00  0.00    +0.000 A 
ATOM     25  C   UNL     1      -0.553   9.684  17.849  0.00  0.00    +0.000 A 
BRANCH  20  27
ATOM     26  C   UNL     1      -3.315  10.886  15.703  0.00  0.00    +0.000 C 
ATOM     27  O   UNL     1      -2.319   9.979  16.161  0.00  0.00    +0.000 OA
ENDBRANCH  20  27
BRANCH  23  28
ATOM     28  O   UNL     1       0.011  11.552  20.941  0.00  0.00    +0.000 OA
ATOM     29  C   UNL     1      -0.740  11.401  22.144  0.00  0.00    +0.000 C 
ENDBRANCH  23  28
ENDBRANCH  19  24
ENDBRANCH  17  19
ENDBRANCH   1  17
TORSDOF 5
ENDMDL
