MODEL 1
REMARK VINA RESULT:      -6.3      0.000      0.000
REMARK  Name = 
REMARK  14 active torsions:
REMARK  status: ('A' for Active; 'I' for Inactive)
REMARK    1  A    between atoms: C_1  and  C_2
REMARK    2  A    between atoms: C_2  and  C_3
REMARK    3  A    between atoms: C_3  and  C_4
REMARK    4  A    between atoms: C_3  and  N_6
REMARK    5  A    between atoms: C_4  and  C_5
REMARK    6  A    between atoms: N_6  and  C_7
REMARK    7  A    between atoms: C_9  and  C_10
REMARK    8  A    between atoms: C_11  and  C_12
REMARK    9  A    between atoms: C_15  and  O_16
REMARK   10  A    between atoms: O_16  and  C_17
REMARK   11  A    between atoms: C_22  and  O_23
REMARK   12  A    between atoms: O_23  and  C_24
REMARK   13  A    between atoms: C_26  and  O_27
REMARK   14  A    between atoms: O_27  and  C_28
REMARK                            x       y       z     vdW  Elec       q    Type
REMARK                         _______ _______ _______ _____ _____    ______ ____
ROOT
ATOM      1  C   UNL     1      -2.279  12.389  19.608  0.00  0.00    +0.000 A 
ATOM      2  N   UNL     1      -1.095  12.653  20.184  0.00  0.00    +0.000 NA
ATOM      3  C   UNL     1      -0.059  11.817  19.893  0.00  0.00    +0.000 A 
ATOM      4  C   UNL     1       1.270  12.312  20.392  0.00  0.00    +0.000 C 
ATOM      5  C   UNL     1      -0.221  10.633  19.120  0.00  0.00    +0.000 A 
ATOM      6  N   UNL     1      -1.403  10.416  18.487  0.00  0.00    +0.000 NA
ATOM      7  C   UNL     1      -2.383  11.325  18.695  0.00  0.00    +0.000 A 
ENDROOT
BRANCH   5   8
ATOM      8  C   UNL     1       0.781   9.531  19.025  0.00  0.00    +0.000 A 
ATOM      9  C   UNL     1       1.543   9.395  17.843  0.00  0.00    +0.000 A 
ATOM     10  C   UNL     1       2.472   8.369  17.653  0.00  0.00    +0.000 A 
ATOM     11  C   UNL     1       2.731   7.469  18.673  0.00  0.00    +0.000 A 
ATOM     12  C   UNL     1       2.027   7.582  19.867  0.00  0.00    +0.000 A 
ATOM     13  C   UNL     1       1.100   8.629  20.071  0.00  0.00    +0.000 A 
BRANCH  13  14
ATOM     14  O   UNL     1       0.467   8.765  21.289  0.00  0.00    +0.000 OA
ATOM     15  C   UNL     1       1.322   9.120  22.381  0.00  0.00    +0.000 C 
ENDBRANCH  13  14
BRANCH  11  16
ATOM     16  O   UNL     1       3.624   6.485  18.383  0.00  0.00    +0.000 OA
BRANCH  16  17
ATOM     17  C   UNL     1       3.115   5.200  18.048  0.00  0.00    +0.000 C 
ATOM     18  F   UNL     1       3.731   4.611  17.000  0.00  0.00    +0.000 F 
ATOM     19  F   UNL     1       3.228   4.390  19.122  0.00  0.00    +0.000 F 
ATOM     20  F   UNL     1       1.803   5.320  17.747  0.00  0.00    +0.000 F 
ENDBRANCH  16  17
ENDBRANCH  11  16
ENDBRANCH   5   8
BRANCH   1  21
ATOM     21  N   UNL     1      -3.410  13.150  19.924  0.00  0.00    +0.000 N 
ATOM     22  H   UNL     1      -3.137  14.129  19.959  0.00  0.00    +0.000 HD
BRANCH  21  23
ATOM     23  C   UNL     1      -4.306  12.715  20.994  0.00  0.00    +0.000 C 
BRANCH  23  25
ATOM     24  C   UNL     1      -3.266  12.819  23.357  0.00  0.00    +0.000 C 
ATOM     25  C   UNL     1      -3.967  13.572  22.237  0.00  0.00    +0.000 C 
ENDBRANCH  23  25
BRANCH  23  26
ATOM     26  C   UNL     1      -5.790  12.836  20.566  0.00  0.00    +0.000 C 
ATOM     27  C   UNL     1      -6.807  12.818  21.702  0.00  0.00    +0.000 C 
ENDBRANCH  23  26
ENDBRANCH  21  23
ENDBRANCH   1  21
BRANCH   7  28
ATOM     28  O   UNL     1      -3.577  11.214  18.001  0.00  0.00    +0.000 OA
ATOM     29  C   UNL     1      -3.402  11.123  16.595  0.00  0.00    +0.000 C 
ENDBRANCH   7  28
TORSDOF 9
ENDMDL
MODEL 2
REMARK VINA RESULT:      -6.3      3.073      5.077
REMARK  Name = 
REMARK  14 active torsions:
REMARK  status: ('A' for Active; 'I' for Inactive)
REMARK    1  A    between atoms: C_1  and  C_2
REMARK    2  A    between atoms: C_2  and  C_3
REMARK    3  A    between atoms: C_3  and  C_4
REMARK    4  A    between atoms: C_3  and  N_6
REMARK    5  A    between atoms: C_4  and  C_5
REMARK    6  A    between atoms: N_6  and  C_7
REMARK    7  A    between atoms: C_9  and  C_10
REMARK    8  A    between atoms: C_11  and  C_12
REMARK    9  A    between atoms: C_15  and  O_16
REMARK   10  A    between atoms: O_16  and  C_17
REMARK   11  A    between atoms: C_22  and  O_23
REMARK   12  A    between atoms: O_23  and  C_24
REMARK   13  A    between atoms: C_26  and  O_27
REMARK   14  A    between atoms: O_27  and  C_28
REMARK                            x       y       z     vdW  Elec       q    Type
REMARK                         _______ _______ _______ _____ _____    ______ ____
ROOT
ATOM      1  C   UNL     1       0.790   8.963  19.866  0.00  0.00    +0.000 A 
ATOM      2  N   UNL     1       1.112   7.858  20.559  0.00  0.00    +0.000 NA
ATOM      3  C   UNL     1       2.057   7.037  20.022  0.00  0.00    +0.000 A 
ATOM      4  C   UNL     1       2.517   5.958  20.961  0.00  0.00    +0.000 C 
ATOM      5  C   UNL     1       2.605   7.243  18.725  0.00  0.00    +0.000 A 
ATOM      6  N   UNL     1       2.326   8.397  18.067  0.00  0.00    +0.000 NA
ATOM      7  C   UNL     1       1.475   9.255  18.673  0.00  0.00    +0.000 A 
ENDROOT
BRANCH   5   8
ATOM      8  C   UNL     1       3.397   6.233  17.963  0.00  0.00    +0.000 A 
ATOM      9  C   UNL     1       4.751   6.504  17.663  0.00  0.00    +0.000 A 
ATOM     10  C   UNL     1       5.552   5.635  16.919  0.00  0.00    +0.000 A 
ATOM     11  C   UNL     1       5.050   4.414  16.500  0.00  0.00    +0.000 A 
ATOM     12  C   UNL     1       3.731   4.090  16.798  0.00  0.00    +0.000 A 
ATOM     13  C   UNL     1       2.922   4.958  17.566  0.00  0.00    +0.000 A 
BRANCH  13  14
ATOM     14  O   UNL     1       1.641   4.583  17.911  0.00  0.00    +0.000 OA
ATOM     15  C   UNL     1       1.499   3.224  18.338  0.00  0.00    +0.000 C 
ENDBRANCH  13  14
BRANCH  11  16
ATOM     16  O   UNL     1       5.892   3.651  15.753  0.00  0.00    +0.000 OA
BRANCH  16  17
ATOM     17  C   UNL     1       6.135   4.047  14.408  0.00  0.00    +0.000 C 
ATOM     18  F   UNL     1       5.125   4.739  13.839  0.00  0.00    +0.000 F 
ATOM     19  F   UNL     1       7.250   4.808  14.371  0.00  0.00    +0.000 F 
ATOM     20  F   UNL     1       6.355   2.941  13.664  0.00  0.00    +0.000 F 
ENDBRANCH  16  17
ENDBRANCH  11  16
ENDBRANCH   5   8
BRANCH   1  21
ATOM     21  N   UNL     1      -0.233   9.809  20.309  0.00  0.00    +0.000 N 
ATOM     22  H   UNL     1      -0.715  10.181  19.494  0.00  0.00    +0.000 HD
BRANCH  21  23
ATOM     23  C   UNL     1       0.032  10.778  21.371  0.00  0.00    +0.000 C 
BRANCH  23  25
ATOM     24  C   UNL     1      -1.405  12.100  19.680  0.00  0.00    +0.000 C 
ATOM     25  C   UNL     1      -0.427  12.158  20.842  0.00  0.00    +0.000 C 
ENDBRANCH  23  25
BRANCH  23  26
ATOM     26  C   UNL     1      -0.675  10.371  22.688  0.00  0.00    +0.000 C 
ATOM     27  C   UNL     1      -1.671  11.385  23.242  0.00  0.00    +0.000 C 
ENDBRANCH  23  26
ENDBRANCH  21  23
ENDBRANCH   1  21
BRANCH   7  28
ATOM     28  O   UNL     1       1.227  10.492  18.100  0.00  0.00    +0.000 OA
ATOM     29  C   UNL     1       2.314  11.397  18.226  0.00  0.00    +0.000 C 
ENDBRANCH   7  28
TORSDOF 9
ENDMDL
MODEL 3
REMARK VINA RESULT:      -6.2      0.957      1.496
REMARK  Name = 
REMARK  14 active torsions:
REMARK  status: ('A' for Active; 'I' for Inactive)
REMARK    1  A    between atoms: C_1  and  C_2
REMARK    2  A    between atoms: C_2  and  C_3
REMARK    3  A    between atoms: C_3  and  C_4
REMARK    4  A    between atoms: C_3  and  N_6
REMARK    5  A    between atoms: C_4  and  C_5
REMARK    6  A    between atoms: N_6  and  C_7
REMARK    7  A    between atoms: C_9  and  C_10
REMARK    8  A    between atoms: C_11  and  C_12
REMARK    9  A    between atoms: C_15  and  O_16
REMARK   10  A    between atoms: O_16  and  C_17
REMARK   11  A    between atoms: C_22  and  O_23
REMARK   12  A    between atoms: O_23  and  C_24
REMARK   13  A    between atoms: C_26  and  O_27
REMARK   14  A    between atoms: O_27  and  C_28
REMARK                            x       y       z     vdW  Elec       q    Type
REMARK                         _______ _______ _______ _____ _____    ______ ____
ROOT
ATOM      1  C   UNL     1      -1.859  12.789  19.776  0.00  0.00    +0.000 A 
ATOM      2  N   UNL     1      -0.581  13.018  20.122  0.00  0.00    +0.000 NA
ATOM      3  C   UNL     1       0.338  12.073  19.779  0.00  0.00    +0.000 A 
ATOM      4  C   UNL     1       1.759  12.512  19.997  0.00  0.00    +0.000 C 
ATOM      5  C   UNL     1      -0.023  10.827  19.195  0.00  0.00    +0.000 A 
ATOM      6  N   UNL     1      -1.304  10.637  18.786  0.00  0.00    +0.000 NA
ATOM      7  C   UNL     1      -2.178  11.640  19.031  0.00  0.00    +0.000 A 
ENDROOT
BRANCH   5   8
ATOM      8  C   UNL     1       0.879   9.644  19.082  0.00  0.00    +0.000 A 
ATOM      9  C   UNL     1       1.613   9.450  17.890  0.00  0.00    +0.000 A 
ATOM     10  C   UNL     1       2.447   8.349  17.683  0.00  0.00    +0.000 A 
ATOM     11  C   UNL     1       2.640   7.423  18.695  0.00  0.00    +0.000 A 
ATOM     12  C   UNL     1       1.962   7.589  19.897  0.00  0.00    +0.000 A 
ATOM     13  C   UNL     1       1.132   8.711  20.119  0.00  0.00    +0.000 A 
BRANCH  13  14
ATOM     14  O   UNL     1       0.528   8.893  21.345  0.00  0.00    +0.000 OA
ATOM     15  C   UNL     1       1.414   9.242  22.413  0.00  0.00    +0.000 C 
ENDBRANCH  13  14
BRANCH  11  16
ATOM     16  O   UNL     1       3.442   6.368  18.389  0.00  0.00    +0.000 OA
BRANCH  16  17
ATOM     17  C   UNL     1       2.827   5.104  18.175  0.00  0.00    +0.000 C 
ATOM     18  F   UNL     1       2.706   4.346  19.286  0.00  0.00    +0.000 F 
ATOM     19  F   UNL     1       1.597   5.298  17.653  0.00  0.00    +0.000 F 
ATOM     20  F   UNL     1       3.561   4.412  17.276  0.00  0.00    +0.000 F 
ENDBRANCH  16  17
ENDBRANCH  11  16
ENDBRANCH   5   8
BRANCH   1  21
ATOM     21  N   UNL     1      -2.873  13.670  20.168  0.00  0.00    +0.000 N 
ATOM     22  H   UNL     1      -2.830  14.493  19.571  0.00  0.00    +0.000 HD
BRANCH  21  23
ATOM     23  C   UNL     1      -3.094  13.941  21.587  0.00  0.00    +0.000 C 
BRANCH  23  25
ATOM     24  C   UNL     1      -4.193  15.757  23.060  0.00  0.00    +0.000 C 
ATOM     25  C   UNL     1      -4.027  15.174  21.666  0.00  0.00    +0.000 C 
ENDBRANCH  23  25
BRANCH  23  26
ATOM     26  C   UNL     1      -3.673  12.700  22.311  0.00  0.00    +0.000 C 
ATOM     27  C   UNL     1      -2.778  12.084  23.382  0.00  0.00    +0.000 C 
ENDBRANCH  23  26
ENDBRANCH  21  23
ENDBRANCH   1  21
BRANCH   7  28
ATOM     28  O   UNL     1      -3.475  11.549  18.551  0.00  0.00    +0.000 OA
ATOM     29  C   UNL     1      -3.542  11.378  17.144  0.00  0.00    +0.000 C 
ENDBRANCH   7  28
TORSDOF 9
ENDMDL
MODEL 4
REMARK VINA RESULT:      -6.2      4.894      8.350
REMARK  Name = 
REMARK  14 active torsions:
REMARK  status: ('A' for Active; 'I' for Inactive)
REMARK    1  A    between atoms: C_1  and  C_2
REMARK    2  A    between atoms: C_2  and  C_3
REMARK    3  A    between atoms: C_3  and  C_4
REMARK    4  A    between atoms: C_3  and  N_6
REMARK    5  A    between atoms: C_4  and  C_5
REMARK    6  A    between atoms: N_6  and  C_7
REMARK    7  A    between atoms: C_9  and  C_10
REMARK    8  A    between atoms: C_11  and  C_12
REMARK    9  A    between atoms: C_15  and  O_16
REMARK   10  A    between atoms: O_16  and  C_17
REMARK   11  A    between atoms: C_22  and  O_23
REMARK   12  A    between atoms: O_23  and  C_24
REMARK   13  A    between atoms: C_26  and  O_27
REMARK   14  A    between atoms: O_27  and  C_28
REMARK                            x       y       z     vdW  Elec       q    Type
REMARK                         _______ _______ _______ _____ _____    ______ ____
ROOT
ATOM      1  C   UNL     1       2.220   7.066  19.883  0.00  0.00    +0.000 A 
ATOM      2  N   UNL     1       1.516   7.653  20.864  0.00  0.00    +0.000 NA
ATOM      3  C   UNL     1       0.881   8.821  20.564  0.00  0.00    +0.000 A 
ATOM      4  C   UNL     1      -0.060   9.285  21.640  0.00  0.00    +0.000 C 
ATOM      5  C   UNL     1       1.041   9.483  19.314  0.00  0.00    +0.000 A 
ATOM      6  N   UNL     1       1.695   8.846  18.310  0.00  0.00    +0.000 NA
ATOM      7  C   UNL     1       2.218   7.632  18.595  0.00  0.00    +0.000 A 
ENDROOT
BRANCH   5   8
ATOM      8  C   UNL     1       0.633  10.891  19.036  0.00  0.00    +0.000 A 
ATOM      9  C   UNL     1       1.604  11.915  19.106  0.00  0.00    +0.000 A 
ATOM     10  C   UNL     1       1.301  13.264  18.902  0.00  0.00    +0.000 A 
ATOM     11  C   UNL     1       0.016  13.641  18.547  0.00  0.00    +0.000 A 
ATOM     12  C   UNL     1      -0.966  12.664  18.437  0.00  0.00    +0.000 A 
ATOM     13  C   UNL     1      -0.661  11.297  18.624  0.00  0.00    +0.000 A 
BRANCH  13  14
ATOM     14  O   UNL     1      -1.636  10.339  18.438  0.00  0.00    +0.000 OA
ATOM     15  C   UNL     1      -1.929  10.030  17.072  0.00  0.00    +0.000 C 
ENDBRANCH  13  14
BRANCH  11  16
ATOM     16  O   UNL     1      -0.190  14.978  18.404  0.00  0.00    +0.000 OA
BRANCH  16  17
ATOM     17  C   UNL     1      -0.655  15.706  19.535  0.00  0.00    +0.000 C 
ATOM     18  F   UNL     1      -1.604  15.071  20.255  0.00  0.00    +0.000 F 
ATOM     19  F   UNL     1       0.393  15.971  20.344  0.00  0.00    +0.000 F 
ATOM     20  F   UNL     1      -1.168  16.882  19.111  0.00  0.00    +0.000 F 
ENDBRANCH  16  17
ENDBRANCH  11  16
ENDBRANCH   5   8
BRANCH   1  21
ATOM     21  N   UNL     1       2.970   5.912  20.136  0.00  0.00    +0.000 N 
ATOM     22  H   UNL     1       3.848   5.983  19.628  0.00  0.00    +0.000 HD
BRANCH  21  23
ATOM     23  C   UNL     1       2.328   4.600  20.087  0.00  0.00    +0.000 C 
BRANCH  23  25
ATOM     24  C   UNL     1       2.437   3.435  17.783  0.00  0.00    +0.000 C 
ATOM     25  C   UNL     1       3.145   3.739  19.094  0.00  0.00    +0.000 C 
ENDBRANCH  23  25
BRANCH  23  26
ATOM     26  C   UNL     1       2.236   3.968  21.498  0.00  0.00    +0.000 C 
ATOM     27  C   UNL     1       1.539   2.613  21.570  0.00  0.00    +0.000 C 
ENDBRANCH  23  26
ENDBRANCH  21  23
ENDBRANCH   1  21
BRANCH   7  28
ATOM     28  O   UNL     1       2.811   6.888  17.587  0.00  0.00    +0.000 OA
ATOM     29  C   UNL     1       4.157   7.260  17.333  0.00  0.00    +0.000 C 
ENDBRANCH   7  28
TORSDOF 9
ENDMDL
MODEL 5
REMARK VINA RESULT:      -6.2      5.272      9.941
REMARK  Name = 
REMARK  14 active torsions:
REMARK  status: ('A' for Active; 'I' for Inactive)
REMARK    1  A    between atoms: C_1  and  C_2
REMARK    2  A    between atoms: C_2  and  C_3
REMARK    3  A    between atoms: C_3  and  C_4
REMARK    4  A    between atoms: C_3  and  N_6
REMARK    5  A    between atoms: C_4  and  C_5
REMARK    6  A    between atoms: N_6  and  C_7
REMARK    7  A    between atoms: C_9  and  C_10
REMARK    8  A    between atoms: C_11  and  C_12
REMARK    9  A    between atoms: C_15  and  O_16
REMARK   10  A    between atoms: O_16  and  C_17
REMARK   11  A    between atoms: C_22  and  O_23
REMARK   12  A    between atoms: O_23  and  C_24
REMARK   13  A    between atoms: C_26  and  O_27
REMARK   14  A    between atoms: O_27  and  C_28
REMARK                            x       y       z     vdW  Elec       q    Type
REMARK                         _______ _______ _______ _____ _____    ______ ____
ROOT
ATOM      1  C   UNL     1       5.375   4.995  16.297  0.00  0.00    +0.000 A 
ATOM      2  N   UNL     1       4.261   4.281  16.526  0.00  0.00    +0.000 NA
ATOM      3  C   UNL     1       3.292   4.861  17.288  0.00  0.00    +0.000 A 
ATOM      4  C   UNL     1       2.000   4.094  17.302  0.00  0.00    +0.000 C 
ATOM      5  C   UNL     1       3.473   6.116  17.935  0.00  0.00    +0.000 A 
ATOM      6  N   UNL     1       4.571   6.858  17.640  0.00  0.00    +0.000 NA
ATOM      7  C   UNL     1       5.466   6.311  16.786  0.00  0.00    +0.000 A 
ENDROOT
BRANCH   5   8
ATOM      8  C   UNL     1       2.593   6.654  19.013  0.00  0.00    +0.000 A 
ATOM      9  C   UNL     1       1.970   7.909  18.830  0.00  0.00    +0.000 A 
ATOM     10  C   UNL     1       1.165   8.507  19.803  0.00  0.00    +0.000 A 
ATOM     11  C   UNL     1       0.890   7.837  20.984  0.00  0.00    +0.000 A 
ATOM     12  C   UNL     1       1.456   6.585  21.196  0.00  0.00    +0.000 A 
ATOM     13  C   UNL     1       2.255   5.968  20.207  0.00  0.00    +0.000 A 
BRANCH  13  14
ATOM     14  O   UNL     1       2.746   4.696  20.409  0.00  0.00    +0.000 OA
ATOM     15  C   UNL     1       1.878   3.818  21.134  0.00  0.00    +0.000 C 
ENDBRANCH  13  14
BRANCH  11  16
ATOM     16  O   UNL     1       0.126   8.512  21.885  0.00  0.00    +0.000 OA
BRANCH  16  17
ATOM     17  C   UNL     1       0.760   9.501  22.687  0.00  0.00    +0.000 C 
ATOM     18  F   UNL     1       2.094   9.339  22.822  0.00  0.00    +0.000 F 
ATOM     19  F   UNL     1       0.528  10.717  22.148  0.00  0.00    +0.000 F 
ATOM     20  F   UNL     1       0.209   9.475  23.921  0.00  0.00    +0.000 F 
ENDBRANCH  16  17
ENDBRANCH  11  16
ENDBRANCH   5   8
BRANCH   1  21
ATOM     21  N   UNL     1       6.450   4.436  15.597  0.00  0.00    +0.000 N 
ATOM     22  H   UNL     1       7.304   4.631  16.114  0.00  0.00    +0.000 HD
BRANCH  21  23
ATOM     23  C   UNL     1       6.545   4.607  14.149  0.00  0.00    +0.000 C 
BRANCH  23  25
ATOM     24  C   UNL     1       8.160   5.733  12.477  0.00  0.00    +0.000 C 
ATOM     25  C   UNL     1       7.978   5.111  13.852  0.00  0.00    +0.000 C 
ENDBRANCH  23  25
BRANCH  23  26
ATOM     26  C   UNL     1       6.203   3.291  13.406  0.00  0.00    +0.000 C 
ATOM     27  C   UNL     1       5.264   3.433  12.212  0.00  0.00    +0.000 C 
ENDBRANCH  23  26
ENDBRANCH  21  23
ENDBRANCH   1  21
BRANCH   7  28
ATOM     28  O   UNL     1       6.556   7.057  16.368  0.00  0.00    +0.000 OA
ATOM     29  C   UNL     1       7.427   7.421  17.428  0.00  0.00    +0.000 C 
ENDBRANCH   7  28
TORSDOF 9
ENDMDL
MODEL 6
REMARK VINA RESULT:      -6.1      4.794      9.911
REMARK  Name = 
REMARK  14 active torsions:
REMARK  status: ('A' for Active; 'I' for Inactive)
REMARK    1  A    between atoms: C_1  and  C_2
REMARK    2  A    between atoms: C_2  and  C_3
REMARK    3  A    between atoms: C_3  and  C_4
REMARK    4  A    between atoms: C_3  and  N_6
REMARK    5  A    between atoms: C_4  and  C_5
REMARK    6  A    between atoms: N_6  and  C_7
REMARK    7  A    between atoms: C_9  and  C_10
REMARK    8  A    between atoms: C_11  and  C_12
REMARK    9  A    between atoms: C_15  and  O_16
REMARK   10  A    between atoms: O_16  and  C_17
REMARK   11  A    between atoms: C_22  and  O_23
REMARK   12  A    between atoms: O_23  and  C_24
REMARK   13  A    between atoms: C_26  and  O_27
REMARK   14  A    between atoms: O_27  and  C_28
REMARK                            x       y       z     vdW  Elec       q    Type
REMARK                         _______ _______ _______ _____ _____    ______ ____
ROOT
ATOM      1  C   UNL     1       5.458   4.239  16.243  0.00  0.00    +0.000 A 
ATOM      2  N   UNL     1       6.014   5.444  16.448  0.00  0.00    +0.000 NA
ATOM      3  C   UNL     1       5.327   6.325  17.229  0.00  0.00    +0.000 A 
ATOM      4  C   UNL     1       6.119   7.550  17.591  0.00  0.00    +0.000 C 
ATOM      5  C   UNL     1       4.017   6.059  17.717  0.00  0.00    +0.000 A 
ATOM      6  N   UNL     1       3.497   4.814  17.563  0.00  0.00    +0.000 NA
ATOM      7  C   UNL     1       4.248   3.917  16.884  0.00  0.00    +0.000 A 
ENDROOT
BRANCH   5   8
ATOM      8  C   UNL     1       3.102   7.080  18.304  0.00  0.00    +0.000 A 
ATOM      9  C   UNL     1       2.756   8.215  17.538  0.00  0.00    +0.000 A 
ATOM     10  C   UNL     1       1.939   9.240  18.025  0.00  0.00    +0.000 A 
ATOM     11  C   UNL     1       1.372   9.137  19.285  0.00  0.00    +0.000 A 
ATOM     12  C   UNL     1       1.660   8.022  20.064  0.00  0.00    +0.000 A 
ATOM     13  C   UNL     1       2.470   6.974  19.569  0.00  0.00    +0.000 A 
BRANCH  13  14
ATOM     14  O   UNL     1       2.682   5.845  20.331  0.00  0.00    +0.000 OA
ATOM     15  C   UNL     1       1.520   5.043  20.564  0.00  0.00    +0.000 C 
ENDBRANCH  13  14
BRANCH  11  16
ATOM     16  O   UNL     1       0.621  10.198  19.685  0.00  0.00    +0.000 OA
BRANCH  16  17
ATOM     17  C   UNL     1      -0.489  10.571  18.879  0.00  0.00    +0.000 C 
ATOM     18  F   UNL     1      -0.845   9.649  17.958  0.00  0.00    +0.000 F 
ATOM     19  F   UNL     1      -1.550  10.810  19.679  0.00  0.00    +0.000 F 
ATOM     20  F   UNL     1      -0.185  11.716  18.228  0.00  0.00    +0.000 F 
ENDBRANCH  16  17
ENDBRANCH  11  16
ENDBRANCH   5   8
BRANCH   1  21
ATOM     21  N   UNL     1       6.059   3.314  15.383  0.00  0.00    +0.000 N 
ATOM     22  H   UNL     1       6.793   2.831  15.896  0.00  0.00    +0.000 HD
BRANCH  21  23
ATOM     23  C   UNL     1       6.407   3.705  14.018  0.00  0.00    +0.000 C 
BRANCH  23  25
ATOM     24  C   UNL     1       5.003   3.178  11.915  0.00  0.00    +0.000 C 
ATOM     25  C   UNL     1       5.075   3.894  13.254  0.00  0.00    +0.000 C 
ENDBRANCH  23  25
BRANCH  23  26
ATOM     26  C   UNL     1       7.293   4.976  14.009  0.00  0.00    +0.000 C 
ATOM     27  C   UNL     1       7.917   5.336  12.664  0.00  0.00    +0.000 C 
ENDBRANCH  23  26
ENDBRANCH  21  23
ENDBRANCH   1  21
BRANCH   7  28
ATOM     28  O   UNL     1       3.818   2.604  16.779  0.00  0.00    +0.000 OA
ATOM     29  C   UNL     1       3.448   2.033  18.025  0.00  0.00    +0.000 C 
ENDBRANCH   7  28
TORSDOF 9
ENDMDL
MODEL 7
REMARK VINA RESULT:      -6.1      5.347     10.038
REMARK  Name = 
REMARK  14 active torsions:
REMARK  status: ('A' for Active; 'I' for Inactive)
REMARK    1  A    between atoms: C_1  and  C_2
REMARK    2  A    between atoms: C_2  and  C_3
REMARK    3  A    between atoms: C_3  and  C_4
REMARK    4  A    between atoms: C_3  and  N_6
REMARK    5  A    between atoms: C_4  and  C_5
REMARK    6  A    between atoms: N_6  and  C_7
REMARK    7  A    between atoms: C_9  and  C_10
REMARK    8  A    between atoms: C_11  and  C_12
REMARK    9  A    between atoms: C_15  and  O_16
REMARK   10  A    between atoms: O_16  and  C_17
REMARK   11  A    between atoms: C_22  and  O_23
REMARK   12  A    between atoms: O_23  and  C_24
REMARK   13  A    between atoms: C_26  and  O_27
REMARK   14  A    between atoms: O_27  and  C_28
REMARK                            x       y       z     vdW  Elec       q    Type
REMARK                         _______ _______ _______ _____ _____    ______ ____
ROOT
ATOM      1  C   UNL     1       5.686   4.648  16.364  0.00  0.00    +0.000 A 
ATOM      2  N   UNL     1       4.521   4.001  16.529  0.00  0.00    +0.000 NA
ATOM      3  C   UNL     1       3.546   4.640  17.235  0.00  0.00    +0.000 A 
ATOM      4  C   UNL     1       2.212   3.950  17.175  0.00  0.00    +0.000 C 
ATOM      5  C   UNL     1       3.764   5.883  17.893  0.00  0.00    +0.000 A 
ATOM      6  N   UNL     1       4.919   6.558  17.661  0.00  0.00    +0.000 NA
ATOM      7  C   UNL     1       5.827   5.957  16.859  0.00  0.00    +0.000 A 
ENDROOT
BRANCH   5   8
ATOM      8  C   UNL     1       2.858   6.476  18.920  0.00  0.00    +0.000 A 
ATOM      9  C   UNL     1       2.271   7.737  18.672  0.00  0.00    +0.000 A 
ATOM     10  C   UNL     1       1.445   8.383  19.596  0.00  0.00    +0.000 A 
ATOM     11  C   UNL     1       1.112   7.759  20.787  0.00  0.00    +0.000 A 
ATOM     12  C   UNL     1       1.642   6.504  21.060  0.00  0.00    +0.000 A 
ATOM     13  C   UNL     1       2.463   5.837  20.122  0.00  0.00    +0.000 A 
BRANCH  13  14
ATOM     14  O   UNL     1       2.918   4.562  20.384  0.00  0.00    +0.000 OA
ATOM     15  C   UNL     1       2.078   3.782  21.241  0.00  0.00    +0.000 C 
ENDBRANCH  13  14
BRANCH  11  16
ATOM     16  O   UNL     1       0.332   8.480  21.636  0.00  0.00    +0.000 OA
BRANCH  16  17
ATOM     17  C   UNL     1       0.934   9.557  22.343  0.00  0.00    +0.000 C 
ATOM     18  F   UNL     1       0.997  10.714  21.649  0.00  0.00    +0.000 F 
ATOM     19  F   UNL     1       0.242   9.776  23.481  0.00  0.00    +0.000 F 
ATOM     20  F   UNL     1       2.195   9.203  22.678  0.00  0.00    +0.000 F 
ENDBRANCH  16  17
ENDBRANCH  11  16
ENDBRANCH   5   8
BRANCH   1  21
ATOM     21  N   UNL     1       6.764   4.023  15.726  0.00  0.00    +0.000 N 
ATOM     22  H   UNL     1       7.613   4.251  16.237  0.00  0.00    +0.000 HD
BRANCH  21  23
ATOM     23  C   UNL     1       6.879   4.077  14.270  0.00  0.00    +0.000 C 
BRANCH  23  25
ATOM     24  C   UNL     1       5.306   3.291  12.378  0.00  0.00    +0.000 C 
ATOM     25  C   UNL     1       5.440   4.020  13.705  0.00  0.00    +0.000 C 
ENDBRANCH  23  25
BRANCH  23  26
ATOM     26  C   UNL     1       7.656   5.338  13.816  0.00  0.00    +0.000 C 
ATOM     27  C   UNL     1       7.972   5.417  12.326  0.00  0.00    +0.000 C 
ENDBRANCH  23  26
ENDBRANCH  21  23
ENDBRANCH   1  21
BRANCH   7  28
ATOM     28  O   UNL     1       6.982   6.636  16.504  0.00  0.00    +0.000 OA
ATOM     29  C   UNL     1       7.332   7.664  17.418  0.00  0.00    +0.000 C 
ENDBRANCH   7  28
TORSDOF 9
ENDMDL
MODEL 8
REMARK VINA RESULT:      -6.0      2.796      4.116
REMARK  Name = 
REMARK  14 active torsions:
REMARK  status: ('A' for Active; 'I' for Inactive)
REMARK    1  A    between atoms: C_1  and  C_2
REMARK    2  A    between atoms: C_2  and  C_3
REMARK    3  A    between atoms: C_3  and  C_4
REMARK    4  A    between atoms: C_3  and  N_6
REMARK    5  A    between atoms: C_4  and  C_5
REMARK    6  A    between atoms: N_6  and  C_7
REMARK    7  A    between atoms: C_9  and  C_10
REMARK    8  A    between atoms: C_11  and  C_12
REMARK    9  A    between atoms: C_15  and  O_16
REMARK   10  A    between atoms: O_16  and  C_17
REMARK   11  A    between atoms: C_22  and  O_23
REMARK   12  A    between atoms: O_23  and  C_24
REMARK   13  A    between atoms: C_26  and  O_27
REMARK   14  A    between atoms: O_27  and  C_28
REMARK                            x       y       z     vdW  Elec       q    Type
REMARK                         _______ _______ _______ _____ _____    ______ ____
ROOT
ATOM      1  C   UNL     1      -0.101  13.479  19.806  0.00  0.00    +0.000 A 
ATOM      2  N   UNL     1      -0.835  12.664  19.032  0.00  0.00    +0.000 NA
ATOM      3  C   UNL     1      -0.461  11.355  18.972  0.00  0.00    +0.000 A 
ATOM      4  C   UNL     1      -1.461  10.477  18.273  0.00  0.00    +0.000 C 
ATOM      5  C   UNL     1       0.725  10.867  19.587  0.00  0.00    +0.000 A 
ATOM      6  N   UNL     1       1.418  11.682  20.424  0.00  0.00    +0.000 NA
ATOM      7  C   UNL     1       0.960  12.947  20.561  0.00  0.00    +0.000 A 
ENDROOT
BRANCH   5   8
ATOM      8  C   UNL     1       1.347   9.539  19.308  0.00  0.00    +0.000 A 
ATOM      9  C   UNL     1       1.926   9.304  18.041  0.00  0.00    +0.000 A 
ATOM     10  C   UNL     1       2.492   8.078  17.681  0.00  0.00    +0.000 A 
ATOM     11  C   UNL     1       2.566   7.049  18.605  0.00  0.00    +0.000 A 
ATOM     12  C   UNL     1       2.037   7.245  19.875  0.00  0.00    +0.000 A 
ATOM     13  C   UNL     1       1.480   8.489  20.251  0.00  0.00    +0.000 A 
BRANCH  13  14
ATOM     14  O   UNL     1       1.027   8.683  21.538  0.00  0.00    +0.000 OA
ATOM     15  C   UNL     1      -0.371   8.448  21.732  0.00  0.00    +0.000 C 
ENDBRANCH  13  14
BRANCH  11  16
ATOM     16  O   UNL     1       3.102   5.883  18.152  0.00  0.00    +0.000 OA
BRANCH  16  17
ATOM     17  C   UNL     1       2.223   4.785  17.939  0.00  0.00    +0.000 C 
ATOM     18  F   UNL     1       1.057   5.111  17.341  0.00  0.00    +0.000 F 
ATOM     19  F   UNL     1       2.852   3.864  17.178  0.00  0.00    +0.000 F 
ATOM     20  F   UNL     1       1.938   4.221  19.133  0.00  0.00    +0.000 F 
ENDBRANCH  16  17
ENDBRANCH  11  16
ENDBRANCH   5   8
BRANCH   1  21
ATOM     21  N   UNL     1      -0.369  14.852  19.852  0.00  0.00    +0.000 N 
ATOM     22  H   UNL     1      -1.296  14.984  20.249  0.00  0.00    +0.000 HD
BRANCH  21  23
ATOM     23  C   UNL     1      -0.062  15.693  18.697  0.00  0.00    +0.000 C 
BRANCH  23  25
ATOM     24  C   UNL     1      -1.888  16.967  20.007  0.00  0.00    +0.000 C 
ATOM     25  C   UNL     1      -1.023  16.905  18.758  0.00  0.00    +0.000 C 
ENDBRANCH  23  25
BRANCH  23  26
ATOM     26  C   UNL     1       1.430  16.108  18.687  0.00  0.00    +0.000 C 
ATOM     27  C   UNL     1       1.768  17.335  17.845  0.00  0.00    +0.000 C 
ENDBRANCH  23  26
ENDBRANCH  21  23
ENDBRANCH   1  21
BRANCH   7  28
ATOM     28  O   UNL     1       1.563  13.797  21.474  0.00  0.00    +0.000 OA
ATOM     29  C   UNL     1       2.947  13.995  21.228  0.00  0.00    +0.000 C 
ENDBRANCH   7  28
TORSDOF 9
ENDMDL
MODEL 9
REMARK VINA RESULT:      -6.0      4.789      9.791
REMARK  Name = 
REMARK  14 active torsions:
REMARK  status: ('A' for Active; 'I' for Inactive)
REMARK    1  A    between atoms: C_1  and  C_2
REMARK    2  A    between atoms: C_2  and  C_3
REMARK    3  A    between atoms: C_3  and  C_4
REMARK    4  A    between atoms: C_3  and  N_6
REMARK    5  A    between atoms: C_4  and  C_5
REMARK    6  A    between atoms: N_6  and  C_7
REMARK    7  A    between atoms: C_9  and  C_10
REMARK    8  A    between atoms: C_11  and  C_12
REMARK    9  A    between atoms: C_15  and  O_16
REMARK   10  A    between atoms: O_16  and  C_17
REMARK   11  A    between atoms: C_22  and  O_23
REMARK   12  A    between atoms: O_23  and  C_24
REMARK   13  A    between atoms: C_26  and  O_27
REMARK   14  A    between atoms: O_27  and  C_28
REMARK                            x       y       z     vdW  Elec       q    Type
REMARK                         _______ _______ _______ _____ _____    ______ ____
ROOT
ATOM      1  C   UNL     1       5.165   4.601  16.026  0.00  0.00    +0.000 A 
ATOM      2  N   UNL     1       5.703   5.809  16.258  0.00  0.00    +0.000 NA
ATOM      3  C   UNL     1       5.054   6.624  17.136  0.00  0.00    +0.000 A 
ATOM      4  C   UNL     1       5.838   7.851  17.508  0.00  0.00    +0.000 C 
ATOM      5  C   UNL     1       3.791   6.292  17.703  0.00  0.00    +0.000 A 
ATOM      6  N   UNL     1       3.294   5.042  17.517  0.00  0.00    +0.000 NA
ATOM      7  C   UNL     1       4.016   4.207  16.735  0.00  0.00    +0.000 A 
ENDROOT
BRANCH   5   8
ATOM      8  C   UNL     1       2.896   7.251  18.413  0.00  0.00    +0.000 A 
ATOM      9  C   UNL     1       2.469   8.419  17.742  0.00  0.00    +0.000 A 
ATOM     10  C   UNL     1       1.665   9.390  18.346  0.00  0.00    +0.000 A 
ATOM     11  C   UNL     1       1.192   9.198  19.633  0.00  0.00    +0.000 A 
ATOM     12  C   UNL     1       1.562   8.049  20.322  0.00  0.00    +0.000 A 
ATOM     13  C   UNL     1       2.359   7.055  19.710  0.00  0.00    +0.000 A 
BRANCH  13  14
ATOM     14  O   UNL     1       2.652   5.890  20.387  0.00  0.00    +0.000 OA
ATOM     15  C   UNL     1       1.532   5.036  20.640  0.00  0.00    +0.000 C 
ENDBRANCH  13  14
BRANCH  11  16
ATOM     16  O   UNL     1       0.446  10.212  20.148  0.00  0.00    +0.000 OA
BRANCH  16  17
ATOM     17  C   UNL     1      -0.639  10.703  19.371  0.00  0.00    +0.000 C 
ATOM     18  F   UNL     1      -0.278  11.526  18.364  0.00  0.00    +0.000 F 
ATOM     19  F   UNL     1      -1.311   9.655  18.848  0.00  0.00    +0.000 F 
ATOM     20  F   UNL     1      -1.481  11.380  20.183  0.00  0.00    +0.000 F 
ENDBRANCH  16  17
ENDBRANCH  11  16
ENDBRANCH   5   8
BRANCH   1  21
ATOM     21  N   UNL     1       5.724   3.742  15.073  0.00  0.00    +0.000 N 
ATOM     22  H   UNL     1       6.487   3.232  15.512  0.00  0.00    +0.000 HD
BRANCH  21  23
ATOM     23  C   UNL     1       5.996   4.230  13.723  0.00  0.00    +0.000 C 
BRANCH  23  25
ATOM     24  C   UNL     1       7.868   5.464  12.437  0.00  0.00    +0.000 C 
ATOM     25  C   UNL     1       7.436   4.798  13.734  0.00  0.00    +0.000 C 
ENDBRANCH  23  25
BRANCH  23  26
ATOM     26  C   UNL     1       5.799   3.110  12.672  0.00  0.00    +0.000 C 
ATOM     27  C   UNL     1       4.653   3.322  11.688  0.00  0.00    +0.000 C 
ENDBRANCH  23  26
ENDBRANCH  21  23
ENDBRANCH   1  21
BRANCH   7  28
ATOM     28  O   UNL     1       3.614   2.890  16.588  0.00  0.00    +0.000 OA
ATOM     29  C   UNL     1       2.744   2.449  17.620  0.00  0.00    +0.000 C 
ENDBRANCH   7  28
TORSDOF 9
ENDMDL
