MODEL 1
REMARK VINA RESULT:      -7.3      0.000      0.000
REMARK  Name = 
REMARK  13 active torsions:
REMARK  status: ('A' for Active; 'I' for Inactive)
REMARK    1  A    between atoms: C_1  and  O_2
REMARK    2  A    between atoms: O_2  and  C_3
REMARK    3  A    between atoms: C_5  and  C_6
REMARK    4  A    between atoms: C_6  and  C_7
REMARK    5  A    between atoms: C_7  and  O_9
REMARK    6  A    between atoms: O_9  and  C_10
REMARK    7  A    between atoms: C_10  and  C_11
REMARK    8  A    between atoms: C_15  and  C_16
REMARK    9  A    between atoms: C_18  and  C_19
REMARK   10  A    between atoms: C_22  and  O_23
REMARK   11  A    between atoms: O_23  and  C_24
REMARK   12  A    between atoms: C_25  and  O_26
REMARK   13  A    between atoms: O_26  and  C_27
REMARK                            x       y       z     vdW  Elec       q    Type
REMARK                         _______ _______ _______ _____ _____    ______ ____
ROOT
ATOM      1  C   UNL     1       1.647   9.317  18.236  0.00  0.00    +0.000 C 
ATOM      2  O   UNL     1       2.114  10.013  17.344  0.00  0.00    +0.000 OA
ENDROOT
BRANCH   1   3
ATOM      3  C   UNL     1       0.624   9.792  19.252  0.00  0.00    +0.000 C 
BRANCH   3   6
ATOM      4  C   UNL     1      -2.560  10.203  17.108  0.00  0.00    +0.000 A 
ATOM      5  C   UNL     1      -1.276   9.802  17.528  0.00  0.00    +0.000 A 
ATOM      6  C   UNL     1      -0.693  10.298  18.695  0.00  0.00    +0.000 A 
ATOM      7  C   UNL     1      -1.396  11.284  19.395  0.00  0.00    +0.000 A 
ATOM      8  C   UNL     1      -2.656  11.749  18.968  0.00  0.00    +0.000 A 
ATOM      9  C   UNL     1      -3.254  11.213  17.808  0.00  0.00    +0.000 A 
BRANCH   4  11
ATOM     10  C   UNL     1      -2.999  10.383  14.787  0.00  0.00    +0.000 C 
ATOM     11  O   UNL     1      -3.130   9.630  15.994  0.00  0.00    +0.000 OA
ENDBRANCH   4  11
BRANCH   8  12
ATOM     12  O   UNL     1      -3.150  12.709  19.820  0.00  0.00    +0.000 OA
ATOM     13  C   UNL     1      -2.594  12.842  21.118  0.00  0.00    +0.000 C 
ENDBRANCH   8  12
BRANCH   9  14
ATOM     14  O   UNL     1      -4.453  11.761  17.442  0.00  0.00    +0.000 OA
ATOM     15  C   UNL     1      -5.676  11.185  17.865  0.00  0.00    +0.000 C 
ENDBRANCH   9  14
ENDBRANCH   3   6
ENDBRANCH   1   3
BRANCH   1  16
ATOM     16  O   UNL     1       1.925   7.993  18.407  0.00  0.00    +0.000 OA
BRANCH  16  17
ATOM     17  C   UNL     1       2.143   7.605  19.767  0.00  0.00    +0.000 C 
BRANCH  17  18
ATOM     18  C   UNL     1       2.277   6.087  19.970  0.00  0.00    +0.000 C 
ATOM     19  O   UNL     1       1.509   5.488  20.725  0.00  0.00    +0.000 OA
ATOM     20  N   UNL     1       3.251   5.420  19.224  0.00  0.00    +0.000 N 
ATOM     21  C   UNL     1       3.337   3.965  19.309  0.00  0.00    +0.000 C 
ATOM     22  C   UNL     1       3.277   3.348  17.902  0.00  0.00    +0.000 C 
ATOM     23  C   UNL     1       3.383   1.825  17.956  0.00  0.00    +0.000 C 
ATOM     24  C   UNL     1       4.382   3.941  17.017  0.00  0.00    +0.000 C 
ATOM     25  C   UNL     1       4.301   5.475  16.984  0.00  0.00    +0.000 C 
ATOM     26  C   UNL     1       5.457   6.054  16.168  0.00  0.00    +0.000 C 
ATOM     27  C   UNL     1       4.286   6.057  18.406  0.00  0.00    +0.000 C 
ENDBRANCH  17  18
ENDBRANCH  16  17
ENDBRANCH   1  16
TORSDOF 8
ENDMDL
MODEL 2
REMARK VINA RESULT:      -7.2      6.774     10.220
REMARK  Name = 
REMARK  13 active torsions:
REMARK  status: ('A' for Active; 'I' for Inactive)
REMARK    1  A    between atoms: C_1  and  O_2
REMARK    2  A    between atoms: O_2  and  C_3
REMARK    3  A    between atoms: C_5  and  C_6
REMARK    4  A    between atoms: C_6  and  C_7
REMARK    5  A    between atoms: C_7  and  O_9
REMARK    6  A    between atoms: O_9  and  C_10
REMARK    7  A    between atoms: C_10  and  C_11
REMARK    8  A    between atoms: C_15  and  C_16
REMARK    9  A    between atoms: C_18  and  C_19
REMARK   10  A    between atoms: C_22  and  O_23
REMARK   11  A    between atoms: O_23  and  C_24
REMARK   12  A    between atoms: C_25  and  O_26
REMARK   13  A    between atoms: O_26  and  C_27
REMARK                            x       y       z     vdW  Elec       q    Type
REMARK                         _______ _______ _______ _____ _____    ______ ____
ROOT
ATOM      1  C   UNL     1       8.012   7.600  17.985  0.00  0.00    +0.000 C 
ATOM      2  O   UNL     1       7.677   7.761  16.819  0.00  0.00    +0.000 OA
ENDROOT
BRANCH   1   3
ATOM      3  C   UNL     1       7.761   6.334  18.786  0.00  0.00    +0.000 C 
BRANCH   3   6
ATOM      4  C   UNL     1       4.143   4.988  18.764  0.00  0.00    +0.000 A 
ATOM      5  C   UNL     1       5.329   5.623  19.185  0.00  0.00    +0.000 A 
ATOM      6  C   UNL     1       6.507   5.556  18.439  0.00  0.00    +0.000 A 
ATOM      7  C   UNL     1       6.496   4.754  17.293  0.00  0.00    +0.000 A 
ATOM      8  C   UNL     1       5.344   4.059  16.878  0.00  0.00    +0.000 A 
ATOM      9  C   UNL     1       4.147   4.164  17.619  0.00  0.00    +0.000 A 
BRANCH   4  11
ATOM     10  C   UNL     1       2.835   4.262  20.601  0.00  0.00    +0.000 C 
ATOM     11  O   UNL     1       2.984   5.144  19.488  0.00  0.00    +0.000 OA
ENDBRANCH   4  11
BRANCH   8  12
ATOM     12  O   UNL     1       5.577   3.347  15.724  0.00  0.00    +0.000 OA
ATOM     13  C   UNL     1       6.271   3.964  14.653  0.00  0.00    +0.000 C 
ENDBRANCH   8  12
BRANCH   9  14
ATOM     14  O   UNL     1       3.094   3.413  17.169  0.00  0.00    +0.000 OA
ATOM     15  C   UNL     1       2.866   2.107  17.668  0.00  0.00    +0.000 C 
ENDBRANCH   9  14
ENDBRANCH   3   6
ENDBRANCH   1   3
BRANCH   1  16
ATOM     16  O   UNL     1       8.720   8.507  18.716  0.00  0.00    +0.000 OA
BRANCH  16  17
ATOM     17  C   UNL     1       8.406   9.873  18.428  0.00  0.00    +0.000 C 
BRANCH  17  18
ATOM     18  C   UNL     1       9.615  10.821  18.502  0.00  0.00    +0.000 C 
ATOM     19  O   UNL     1      10.297  11.041  17.499  0.00  0.00    +0.000 OA
ATOM     20  N   UNL     1       9.861  11.459  19.719  0.00  0.00    +0.000 N 
ATOM     21  C   UNL     1      10.934  12.447  19.798  0.00  0.00    +0.000 C 
ATOM     22  C   UNL     1      10.395  13.770  20.366  0.00  0.00    +0.000 C 
ATOM     23  C   UNL     1      11.498  14.819  20.479  0.00  0.00    +0.000 C 
ATOM     24  C   UNL     1       9.729  13.528  21.729  0.00  0.00    +0.000 C 
ATOM     25  C   UNL     1       8.640  12.449  21.630  0.00  0.00    +0.000 C 
ATOM     26  C   UNL     1       8.047  12.160  23.009  0.00  0.00    +0.000 C 
ATOM     27  C   UNL     1       9.192  11.166  20.989  0.00  0.00    +0.000 C 
ENDBRANCH  17  18
ENDBRANCH  16  17
ENDBRANCH   1  16
TORSDOF 8
ENDMDL
MODEL 3
REMARK VINA RESULT:      -7.2      1.545      3.493
REMARK  Name = 
REMARK  13 active torsions:
REMARK  status: ('A' for Active; 'I' for Inactive)
REMARK    1  A    between atoms: C_1  and  O_2
REMARK    2  A    between atoms: O_2  and  C_3
REMARK    3  A    between atoms: C_5  and  C_6
REMARK    4  A    between atoms: C_6  and  C_7
REMARK    5  A    between atoms: C_7  and  O_9
REMARK    6  A    between atoms: O_9  and  C_10
REMARK    7  A    between atoms: C_10  and  C_11
REMARK    8  A    between atoms: C_15  and  C_16
REMARK    9  A    between atoms: C_18  and  C_19
REMARK   10  A    between atoms: C_22  and  O_23
REMARK   11  A    between atoms: O_23  and  C_24
REMARK   12  A    between atoms: C_25  and  O_26
REMARK   13  A    between atoms: O_26  and  C_27
REMARK                            x       y       z     vdW  Elec       q    Type
REMARK                         _______ _______ _______ _____ _____    ______ ____
ROOT
ATOM      1  C   UNL     1       0.762  10.027  20.945  0.00  0.00    +0.000 C 
ATOM      2  O   UNL     1       1.179  10.514  21.988  0.00  0.00    +0.000 OA
ENDROOT
BRANCH   1   3
ATOM      3  C   UNL     1       0.534  10.806  19.662  0.00  0.00    +0.000 C 
BRANCH   3   6
ATOM      4  C   UNL     1      -3.053  12.216  19.468  0.00  0.00    +0.000 A 
ATOM      5  C   UNL     1      -1.758  11.923  19.938  0.00  0.00    +0.000 A 
ATOM      6  C   UNL     1      -0.910  11.043  19.266  0.00  0.00    +0.000 A 
ATOM      7  C   UNL     1      -1.426  10.385  18.144  0.00  0.00    +0.000 A 
ATOM      8  C   UNL     1      -2.738  10.611  17.683  0.00  0.00    +0.000 A 
ATOM      9  C   UNL     1      -3.575  11.532  18.349  0.00  0.00    +0.000 A 
BRANCH   4  11
ATOM     10  C   UNL     1      -4.401  12.714  21.351  0.00  0.00    +0.000 C 
ATOM     11  O   UNL     1      -3.828  13.149  20.118  0.00  0.00    +0.000 OA
ENDBRANCH   4  11
BRANCH   8  12
ATOM     12  O   UNL     1      -3.013   9.858  16.565  0.00  0.00    +0.000 OA
ATOM     13  C   UNL     1      -2.847  10.432  15.279  0.00  0.00    +0.000 C 
ENDBRANCH   8  12
BRANCH   9  14
ATOM     14  O   UNL     1      -4.848  11.649  17.860  0.00  0.00    +0.000 OA
ATOM     15  C   UNL     1      -5.905  10.869  18.390  0.00  0.00    +0.000 C 
ENDBRANCH   9  14
ENDBRANCH   3   6
ENDBRANCH   1   3
BRANCH   1  16
ATOM     16  O   UNL     1       0.507   8.700  20.762  0.00  0.00    +0.000 OA
BRANCH  16  17
ATOM     17  C   UNL     1       1.656   7.855  20.879  0.00  0.00    +0.000 C 
BRANCH  17  18
ATOM     18  C   UNL     1       2.120   7.243  19.547  0.00  0.00    +0.000 C 
ATOM     19  O   UNL     1       2.552   7.964  18.646  0.00  0.00    +0.000 OA
ATOM     20  N   UNL     1       2.089   5.852  19.432  0.00  0.00    +0.000 N 
ATOM     21  C   UNL     1       2.623   5.228  18.223  0.00  0.00    +0.000 C 
ATOM     22  C   UNL     1       3.670   4.166  18.593  0.00  0.00    +0.000 C 
ATOM     23  C   UNL     1       4.234   3.482  17.350  0.00  0.00    +0.000 C 
ATOM     24  C   UNL     1       3.062   3.136  19.555  0.00  0.00    +0.000 C 
ATOM     25  C   UNL     1       2.463   3.820  20.794  0.00  0.00    +0.000 C 
ATOM     26  C   UNL     1       1.788   2.791  21.700  0.00  0.00    +0.000 C 
ATOM     27  C   UNL     1       1.478   4.927  20.389  0.00  0.00    +0.000 C 
ENDBRANCH  17  18
ENDBRANCH  16  17
ENDBRANCH   1  16
TORSDOF 8
ENDMDL
MODEL 4
REMARK VINA RESULT:      -7.1      3.157      8.841
REMARK  Name = 
REMARK  13 active torsions:
REMARK  status: ('A' for Active; 'I' for Inactive)
REMARK    1  A    between atoms: C_1  and  O_2
REMARK    2  A    between atoms: O_2  and  C_3
REMARK    3  A    between atoms: C_5  and  C_6
REMARK    4  A    between atoms: C_6  and  C_7
REMARK    5  A    between atoms: C_7  and  O_9
REMARK    6  A    between atoms: O_9  and  C_10
REMARK    7  A    between atoms: C_10  and  C_11
REMARK    8  A    between atoms: C_15  and  C_16
REMARK    9  A    between atoms: C_18  and  C_19
REMARK   10  A    between atoms: C_22  and  O_23
REMARK   11  A    between atoms: O_23  and  C_24
REMARK   12  A    between atoms: C_25  and  O_26
REMARK   13  A    between atoms: O_26  and  C_27
REMARK                            x       y       z     vdW  Elec       q    Type
REMARK                         _______ _______ _______ _____ _____    ______ ____
ROOT
ATOM      1  C   UNL     1       2.349   3.971  19.922  0.00  0.00    +0.000 C 
ATOM      2  O   UNL     1       2.359   3.400  21.004  0.00  0.00    +0.000 OA
ENDROOT
BRANCH   1   3
ATOM      3  C   UNL     1       3.049   3.464  18.674  0.00  0.00    +0.000 C 
BRANCH   3   6
ATOM      4  C   UNL     1       5.576   5.481  16.566  0.00  0.00    +0.000 A 
ATOM      5  C   UNL     1       4.489   4.657  16.918  0.00  0.00    +0.000 A 
ATOM      6  C   UNL     1       4.277   4.235  18.231  0.00  0.00    +0.000 A 
ATOM      7  C   UNL     1       5.242   4.586  19.181  0.00  0.00    +0.000 A 
ATOM      8  C   UNL     1       6.372   5.359  18.849  0.00  0.00    +0.000 A 
ATOM      9  C   UNL     1       6.556   5.813  17.525  0.00  0.00    +0.000 A 
BRANCH   4  11
ATOM     10  C   UNL     1       6.342   5.039  14.368  0.00  0.00    +0.000 C 
ATOM     11  O   UNL     1       5.703   5.939  15.275  0.00  0.00    +0.000 OA
ENDBRANCH   4  11
BRANCH   8  12
ATOM     12  O   UNL     1       7.168   5.580  19.948  0.00  0.00    +0.000 OA
ATOM     13  C   UNL     1       8.513   5.131  19.937  0.00  0.00    +0.000 C 
ENDBRANCH   8  12
BRANCH   9  14
ATOM     14  O   UNL     1       7.707   6.513  17.285  0.00  0.00    +0.000 OA
ATOM     15  C   UNL     1       7.769   7.912  17.507  0.00  0.00    +0.000 C 
ENDBRANCH   9  14
ENDBRANCH   3   6
ENDBRANCH   1   3
BRANCH   1  16
ATOM     16  O   UNL     1       1.649   5.112  19.658  0.00  0.00    +0.000 OA
BRANCH  16  17
ATOM     17  C   UNL     1       2.264   6.309  20.145  0.00  0.00    +0.000 C 
BRANCH  17  18
ATOM     18  C   UNL     1       1.997   7.547  19.274  0.00  0.00    +0.000 C 
ATOM     19  O   UNL     1       2.230   7.521  18.064  0.00  0.00    +0.000 OA
ATOM     20  N   UNL     1       1.428   8.661  19.894  0.00  0.00    +0.000 N 
ATOM     21  C   UNL     1       1.061   9.817  19.080  0.00  0.00    +0.000 C 
ATOM     22  C   UNL     1      -0.410  10.190  19.322  0.00  0.00    +0.000 C 
ATOM     23  C   UNL     1      -0.819  11.408  18.497  0.00  0.00    +0.000 C 
ATOM     24  C   UNL     1      -0.654  10.436  20.818  0.00  0.00    +0.000 C 
ATOM     25  C   UNL     1      -0.213   9.227  21.657  0.00  0.00    +0.000 C 
ATOM     26  C   UNL     1      -0.383   9.520  23.148  0.00  0.00    +0.000 C 
ATOM     27  C   UNL     1       1.237   8.832  21.336  0.00  0.00    +0.000 C 
ENDBRANCH  17  18
ENDBRANCH  16  17
ENDBRANCH   1  16
TORSDOF 8
ENDMDL
MODEL 5
REMARK VINA RESULT:      -7.1      1.325      1.822
REMARK  Name = 
REMARK  13 active torsions:
REMARK  status: ('A' for Active; 'I' for Inactive)
REMARK    1  A    between atoms: C_1  and  O_2
REMARK    2  A    between atoms: O_2  and  C_3
REMARK    3  A    between atoms: C_5  and  C_6
REMARK    4  A    between atoms: C_6  and  C_7
REMARK    5  A    between atoms: C_7  and  O_9
REMARK    6  A    between atoms: O_9  and  C_10
REMARK    7  A    between atoms: C_10  and  C_11
REMARK    8  A    between atoms: C_15  and  C_16
REMARK    9  A    between atoms: C_18  and  C_19
REMARK   10  A    between atoms: C_22  and  O_23
REMARK   11  A    between atoms: O_23  and  C_24
REMARK   12  A    between atoms: C_25  and  O_26
REMARK   13  A    between atoms: O_26  and  C_27
REMARK                            x       y       z     vdW  Elec       q    Type
REMARK                         _______ _______ _______ _____ _____    ______ ____
ROOT
ATOM      1  C   UNL     1       1.124  10.034  18.339  0.00  0.00    +0.000 C 
ATOM      2  O   UNL     1       1.817  10.946  17.906  0.00  0.00    +0.000 OA
ENDROOT
BRANCH   1   3
ATOM      3  C   UNL     1       0.002  10.210  19.347  0.00  0.00    +0.000 C 
BRANCH   3   6
ATOM      4  C   UNL     1      -3.170  10.632  17.187  0.00  0.00    +0.000 A 
ATOM      5  C   UNL     1      -1.879  10.248  17.603  0.00  0.00    +0.000 A 
ATOM      6  C   UNL     1      -1.323  10.703  18.799  0.00  0.00    +0.000 A 
ATOM      7  C   UNL     1      -2.062  11.635  19.537  0.00  0.00    +0.000 A 
ATOM      8  C   UNL     1      -3.330  12.083  19.118  0.00  0.00    +0.000 A 
ATOM      9  C   UNL     1      -3.899  11.587  17.926  0.00  0.00    +0.000 A 
BRANCH   4  11
ATOM     10  C   UNL     1      -2.885  10.183  14.879  0.00  0.00    +0.000 C 
ATOM     11  O   UNL     1      -3.711  10.098  16.041  0.00  0.00    +0.000 OA
ENDBRANCH   4  11
BRANCH   8  12
ATOM     12  O   UNL     1      -3.860  12.988  20.009  0.00  0.00    +0.000 OA
ATOM     13  C   UNL     1      -4.644  12.520  21.094  0.00  0.00    +0.000 C 
ENDBRANCH   8  12
BRANCH   9  14
ATOM     14  O   UNL     1      -5.111  12.118  17.573  0.00  0.00    +0.000 OA
ATOM     15  C   UNL     1      -6.320  11.467  17.920  0.00  0.00    +0.000 C 
ENDBRANCH   9  14
ENDBRANCH   3   6
ENDBRANCH   1   3
BRANCH   1  16
ATOM     16  O   UNL     1       1.213   8.737  17.929  0.00  0.00    +0.000 OA
BRANCH  16  17
ATOM     17  C   UNL     1       2.420   8.075  18.319  0.00  0.00    +0.000 C 
BRANCH  17  18
ATOM     18  C   UNL     1       2.285   7.229  19.595  0.00  0.00    +0.000 C 
ATOM     19  O   UNL     1       1.892   7.741  20.645  0.00  0.00    +0.000 OA
ATOM     20  N   UNL     1       2.560   5.863  19.496  0.00  0.00    +0.000 N 
ATOM     21  C   UNL     1       2.339   5.008  20.660  0.00  0.00    +0.000 C 
ATOM     22  C   UNL     1       1.432   3.825  20.283  0.00  0.00    +0.000 C 
ATOM     23  C   UNL     1       1.197   2.902  21.476  0.00  0.00    +0.000 C 
ATOM     24  C   UNL     1       2.036   3.051  19.103  0.00  0.00    +0.000 C 
ATOM     25  C   UNL     1       2.306   3.981  17.910  0.00  0.00    +0.000 C 
ATOM     26  C   UNL     1       2.984   3.213  16.776  0.00  0.00    +0.000 C 
ATOM     27  C   UNL     1       3.151   5.192  18.336  0.00  0.00    +0.000 C 
ENDBRANCH  17  18
ENDBRANCH  16  17
ENDBRANCH   1  16
TORSDOF 8
ENDMDL
MODEL 6
REMARK VINA RESULT:      -7.0      3.288      9.474
REMARK  Name = 
REMARK  13 active torsions:
REMARK  status: ('A' for Active; 'I' for Inactive)
REMARK    1  A    between atoms: C_1  and  O_2
REMARK    2  A    between atoms: O_2  and  C_3
REMARK    3  A    between atoms: C_5  and  C_6
REMARK    4  A    between atoms: C_6  and  C_7
REMARK    5  A    between atoms: C_7  and  O_9
REMARK    6  A    between atoms: O_9  and  C_10
REMARK    7  A    between atoms: C_10  and  C_11
REMARK    8  A    between atoms: C_15  and  C_16
REMARK    9  A    between atoms: C_18  and  C_19
REMARK   10  A    between atoms: C_22  and  O_23
REMARK   11  A    between atoms: O_23  and  C_24
REMARK   12  A    between atoms: C_25  and  O_26
REMARK   13  A    between atoms: O_26  and  C_27
REMARK                            x       y       z     vdW  Elec       q    Type
REMARK                         _______ _______ _______ _____ _____    ______ ____
ROOT
ATOM      1  C   UNL     1       3.631   4.675  19.009  0.00  0.00    +0.000 C 
ATOM      2  O   UNL     1       3.646   3.733  19.791  0.00  0.00    +0.000 OA
ENDROOT
BRANCH   1   3
ATOM      3  C   UNL     1       3.465   4.543  17.506  0.00  0.00    +0.000 C 
BRANCH   3   6
ATOM      4  C   UNL     1       6.872   5.856  16.252  0.00  0.00    +0.000 A 
ATOM      5  C   UNL     1       5.670   5.744  16.978  0.00  0.00    +0.000 A 
ATOM      6  C   UNL     1       4.706   4.784  16.668  0.00  0.00    +0.000 A 
ATOM      7  C   UNL     1       4.936   3.984  15.543  0.00  0.00    +0.000 A 
ATOM      8  C   UNL     1       6.101   4.111  14.762  0.00  0.00    +0.000 A 
ATOM      9  C   UNL     1       7.086   5.060  15.107  0.00  0.00    +0.000 A 
BRANCH   4  11
ATOM     10  C   UNL     1       7.359   7.832  17.464  0.00  0.00    +0.000 C 
ATOM     11  O   UNL     1       7.829   6.764  16.640  0.00  0.00    +0.000 OA
ENDBRANCH   4  11
BRANCH   8  12
ATOM     12  O   UNL     1       6.103   3.215  13.718  0.00  0.00    +0.000 OA
ATOM     13  C   UNL     1       5.375   3.516  12.539  0.00  0.00    +0.000 C 
ENDBRANCH   8  12
BRANCH   9  14
ATOM     14  O   UNL     1       8.159   5.147  14.260  0.00  0.00    +0.000 OA
ATOM     15  C   UNL     1       8.035   5.759  12.988  0.00  0.00    +0.000 C 
ENDBRANCH   9  14
ENDBRANCH   3   6
ENDBRANCH   1   3
BRANCH   1  16
ATOM     16  O   UNL     1       3.690   5.986  19.380  0.00  0.00    +0.000 OA
BRANCH  16  17
ATOM     17  C   UNL     1       2.421   6.570  19.690  0.00  0.00    +0.000 C 
BRANCH  17  18
ATOM     18  C   UNL     1       2.136   7.881  18.939  0.00  0.00    +0.000 C 
ATOM     19  O   UNL     1       2.416   7.989  17.744  0.00  0.00    +0.000 OA
ATOM     20  N   UNL     1       1.499   8.904  19.645  0.00  0.00    +0.000 N 
ATOM     21  C   UNL     1       1.116  10.123  18.937  0.00  0.00    +0.000 C 
ATOM     22  C   UNL     1      -0.378  10.414  19.154  0.00  0.00    +0.000 C 
ATOM     23  C   UNL     1      -0.806  11.694  18.441  0.00  0.00    +0.000 C 
ATOM     24  C   UNL     1      -0.688  10.495  20.656  0.00  0.00    +0.000 C 
ATOM     25  C   UNL     1      -0.229   9.223  21.386  0.00  0.00    +0.000 C 
ATOM     26  C   UNL     1      -0.468   9.355  22.890  0.00  0.00    +0.000 C 
ATOM     27  C   UNL     1       1.247   8.918  21.088  0.00  0.00    +0.000 C 
ENDBRANCH  17  18
ENDBRANCH  16  17
ENDBRANCH   1  16
TORSDOF 8
ENDMDL
MODEL 7
REMARK VINA RESULT:      -7.0      3.231      8.916
REMARK  Name = 
REMARK  13 active torsions:
REMARK  status: ('A' for Active; 'I' for Inactive)
REMARK    1  A    between atoms: C_1  and  O_2
REMARK    2  A    between atoms: O_2  and  C_3
REMARK    3  A    between atoms: C_5  and  C_6
REMARK    4  A    between atoms: C_6  and  C_7
REMARK    5  A    between atoms: C_7  and  O_9
REMARK    6  A    between atoms: O_9  and  C_10
REMARK    7  A    between atoms: C_10  and  C_11
REMARK    8  A    between atoms: C_15  and  C_16
REMARK    9  A    between atoms: C_18  and  C_19
REMARK   10  A    between atoms: C_22  and  O_23
REMARK   11  A    between atoms: O_23  and  C_24
REMARK   12  A    between atoms: C_25  and  O_26
REMARK   13  A    between atoms: O_26  and  C_27
REMARK                            x       y       z     vdW  Elec       q    Type
REMARK                         _______ _______ _______ _____ _____    ______ ____
ROOT
ATOM      1  C   UNL     1       1.656   8.540  19.042  0.00  0.00    +0.000 C 
ATOM      2  O   UNL     1       1.672   8.183  20.213  0.00  0.00    +0.000 OA
ENDROOT
BRANCH   1   3
ATOM      3  C   UNL     1       2.422   7.856  17.924  0.00  0.00    +0.000 C 
BRANCH   3   6
ATOM      4  C   UNL     1       2.551   4.001  18.081  0.00  0.00    +0.000 A 
ATOM      5  C   UNL     1       2.062   5.316  17.948  0.00  0.00    +0.000 A 
ATOM      6  C   UNL     1       2.867   6.431  18.187  0.00  0.00    +0.000 A 
ATOM      7  C   UNL     1       4.164   6.196  18.656  0.00  0.00    +0.000 A 
ATOM      8  C   UNL     1       4.663   4.895  18.857  0.00  0.00    +0.000 A 
ATOM      9  C   UNL     1       3.853   3.773  18.575  0.00  0.00    +0.000 A 
BRANCH   4  11
ATOM     10  C   UNL     1       0.797   2.560  18.759  0.00  0.00    +0.000 C 
ATOM     11  O   UNL     1       1.747   2.932  17.759  0.00  0.00    +0.000 OA
ENDBRANCH   4  11
BRANCH   8  12
ATOM     12  O   UNL     1       5.960   4.920  19.314  0.00  0.00    +0.000 OA
ATOM     13  C   UNL     1       7.020   5.122  18.393  0.00  0.00    +0.000 C 
ENDBRANCH   8  12
BRANCH   9  14
ATOM     14  O   UNL     1       4.404   2.551  18.849  0.00  0.00    +0.000 OA
ATOM     15  C   UNL     1       4.370   2.014  20.160  0.00  0.00    +0.000 C 
ENDBRANCH   9  14
ENDBRANCH   3   6
ENDBRANCH   1   3
BRANCH   1  16
ATOM     16  O   UNL     1       0.894   9.561  18.558  0.00  0.00    +0.000 OA
BRANCH  16  17
ATOM     17  C   UNL     1       1.540  10.839  18.572  0.00  0.00    +0.000 C 
BRANCH  17  18
ATOM     18  C   UNL     1       0.639  11.989  19.051  0.00  0.00    +0.000 C 
ATOM     19  O   UNL     1       0.260  12.855  18.261  0.00  0.00    +0.000 OA
ATOM     20  N   UNL     1       0.224  11.971  20.384  0.00  0.00    +0.000 N 
ATOM     21  C   UNL     1      -0.717  12.986  20.848  0.00  0.00    +0.000 C 
ATOM     22  C   UNL     1      -1.931  12.318  21.514  0.00  0.00    +0.000 C 
ATOM     23  C   UNL     1      -2.927  13.356  22.027  0.00  0.00    +0.000 C 
ATOM     24  C   UNL     1      -1.469  11.396  22.651  0.00  0.00    +0.000 C 
ATOM     25  C   UNL     1      -0.441  10.370  22.149  0.00  0.00    +0.000 C 
ATOM     26  C   UNL     1       0.071   9.515  23.308  0.00  0.00    +0.000 C 
ATOM     27  C   UNL     1       0.721  11.064  21.422  0.00  0.00    +0.000 C 
ENDBRANCH  17  18
ENDBRANCH  16  17
ENDBRANCH   1  16
TORSDOF 8
ENDMDL
MODEL 8
REMARK VINA RESULT:      -7.0      2.046      3.176
REMARK  Name = 
REMARK  13 active torsions:
REMARK  status: ('A' for Active; 'I' for Inactive)
REMARK    1  A    between atoms: C_1  and  O_2
REMARK    2  A    between atoms: O_2  and  C_3
REMARK    3  A    between atoms: C_5  and  C_6
REMARK    4  A    between atoms: C_6  and  C_7
REMARK    5  A    between atoms: C_7  and  O_9
REMARK    6  A    between atoms: O_9  and  C_10
REMARK    7  A    between atoms: C_10  and  C_11
REMARK    8  A    between atoms: C_15  and  C_16
REMARK    9  A    between atoms: C_18  and  C_19
REMARK   10  A    between atoms: C_22  and  O_23
REMARK   11  A    between atoms: O_23  and  C_24
REMARK   12  A    between atoms: C_25  and  O_26
REMARK   13  A    between atoms: O_26  and  C_27
REMARK                            x       y       z     vdW  Elec       q    Type
REMARK                         _______ _______ _______ _____ _____    ______ ____
ROOT
ATOM      1  C   UNL     1       2.490   7.189  18.799  0.00  0.00    +0.000 C 
ATOM      2  O   UNL     1       3.216   7.778  18.009  0.00  0.00    +0.000 OA
ENDROOT
BRANCH   1   3
ATOM      3  C   UNL     1       1.946   7.791  20.082  0.00  0.00    +0.000 C 
BRANCH   3   6
ATOM      4  C   UNL     1      -0.423  10.482  18.650  0.00  0.00    +0.000 A 
ATOM      5  C   UNL     1       0.480   9.403  18.728  0.00  0.00    +0.000 A 
ATOM      6  C   UNL     1       1.077   9.025  19.931  0.00  0.00    +0.000 A 
ATOM      7  C   UNL     1       0.816   9.817  21.054  0.00  0.00    +0.000 A 
ATOM      8  C   UNL     1      -0.036  10.937  20.997  0.00  0.00    +0.000 A 
ATOM      9  C   UNL     1      -0.665  11.288  19.783  0.00  0.00    +0.000 A 
BRANCH   4  11
ATOM     10  C   UNL     1      -2.155   9.929  17.132  0.00  0.00    +0.000 C 
ATOM     11  O   UNL     1      -1.049  10.772  17.461  0.00  0.00    +0.000 OA
ENDBRANCH   4  11
BRANCH   8  12
ATOM     12  O   UNL     1      -0.143  11.548  22.224  0.00  0.00    +0.000 OA
ATOM     13  C   UNL     1      -1.158  11.133  23.124  0.00  0.00    +0.000 C 
ENDBRANCH   8  12
BRANCH   9  14
ATOM     14  O   UNL     1      -1.434  12.420  19.811  0.00  0.00    +0.000 OA
ATOM     15  C   UNL     1      -2.838  12.343  19.986  0.00  0.00    +0.000 C 
ENDBRANCH   9  14
ENDBRANCH   3   6
ENDBRANCH   1   3
BRANCH   1  16
ATOM     16  O   UNL     1       2.007   5.928  18.609  0.00  0.00    +0.000 OA
BRANCH  16  17
ATOM     17  C   UNL     1       2.932   4.885  18.934  0.00  0.00    +0.000 C 
BRANCH  17  18
ATOM     18  C   UNL     1       3.418   4.080  17.718  0.00  0.00    +0.000 C 
ATOM     19  O   UNL     1       2.657   3.303  17.139  0.00  0.00    +0.000 OA
ATOM     20  N   UNL     1       4.719   4.315  17.268  0.00  0.00    +0.000 N 
ATOM     21  C   UNL     1       5.181   3.649  16.052  0.00  0.00    +0.000 C 
ATOM     22  C   UNL     1       5.729   4.685  15.058  0.00  0.00    +0.000 C 
ATOM     23  C   UNL     1       6.237   4.018  13.782  0.00  0.00    +0.000 C 
ATOM     24  C   UNL     1       6.838   5.517  15.718  0.00  0.00    +0.000 C 
ATOM     25  C   UNL     1       6.343   6.165  17.020  0.00  0.00    +0.000 C 
ATOM     26  C   UNL     1       7.481   6.920  17.708  0.00  0.00    +0.000 C 
ATOM     27  C   UNL     1       5.732   5.115  17.961  0.00  0.00    +0.000 C 
ENDBRANCH  17  18
ENDBRANCH  16  17
ENDBRANCH   1  16
TORSDOF 8
ENDMDL
MODEL 9
REMARK VINA RESULT:      -7.0      2.552      9.176
REMARK  Name = 
REMARK  13 active torsions:
REMARK  status: ('A' for Active; 'I' for Inactive)
REMARK    1  A    between atoms: C_1  and  O_2
REMARK    2  A    between atoms: O_2  and  C_3
REMARK    3  A    between atoms: C_5  and  C_6
REMARK    4  A    between atoms: C_6  and  C_7
REMARK    5  A    between atoms: C_7  and  O_9
REMARK    6  A    between atoms: O_9  and  C_10
REMARK    7  A    between atoms: C_10  and  C_11
REMARK    8  A    between atoms: C_15  and  C_16
REMARK    9  A    between atoms: C_18  and  C_19
REMARK   10  A    between atoms: C_22  and  O_23
REMARK   11  A    between atoms: O_23  and  C_24
REMARK   12  A    between atoms: C_25  and  O_26
REMARK   13  A    between atoms: O_26  and  C_27
REMARK                            x       y       z     vdW  Elec       q    Type
REMARK                         _______ _______ _______ _____ _____    ______ ____
ROOT
ATOM      1  C   UNL     1       1.892   8.594  18.804  0.00  0.00    +0.000 C 
ATOM      2  O   UNL     1       1.647   8.173  19.927  0.00  0.00    +0.000 OA
ENDROOT
BRANCH   1   3
ATOM      3  C   UNL     1       2.724   7.855  17.771  0.00  0.00    +0.000 C 
BRANCH   3   6
ATOM      4  C   UNL     1       2.376   4.027  18.125  0.00  0.00    +0.000 A 
ATOM      5  C   UNL     1       2.048   5.389  17.977  0.00  0.00    +0.000 A 
ATOM      6  C   UNL     1       3.012   6.394  18.058  0.00  0.00    +0.000 A 
ATOM      7  C   UNL     1       4.316   6.007  18.385  0.00  0.00    +0.000 A 
ATOM      8  C   UNL     1       4.665   4.659  18.597  0.00  0.00    +0.000 A 
ATOM      9  C   UNL     1       3.690   3.647  18.475  0.00  0.00    +0.000 A 
BRANCH   4  11
ATOM     10  C   UNL     1       0.715   2.684  19.149  0.00  0.00    +0.000 C 
ATOM     11  O   UNL     1       1.409   3.063  17.960  0.00  0.00    +0.000 OA
ENDBRANCH   4  11
BRANCH   8  12
ATOM     12  O   UNL     1       6.001   4.529  18.897  0.00  0.00    +0.000 OA
ATOM     13  C   UNL     1       6.795   5.693  19.063  0.00  0.00    +0.000 C 
ENDBRANCH   8  12
BRANCH   9  14
ATOM     14  O   UNL     1       4.109   2.373  18.750  0.00  0.00    +0.000 OA
ATOM     15  C   UNL     1       4.360   1.960  20.082  0.00  0.00    +0.000 C 
ENDBRANCH   9  14
ENDBRANCH   3   6
ENDBRANCH   1   3
BRANCH   1  16
ATOM     16  O   UNL     1       1.397   9.756  18.290  0.00  0.00    +0.000 OA
BRANCH  16  17
ATOM     17  C   UNL     1       0.238  10.254  18.966  0.00  0.00    +0.000 C 
BRANCH  17  18
ATOM     18  C   UNL     1      -1.007  10.366  18.070  0.00  0.00    +0.000 C 
ATOM     19  O   UNL     1      -1.193   9.561  17.156  0.00  0.00    +0.000 OA
ATOM     20  N   UNL     1      -1.934  11.365  18.377  0.00  0.00    +0.000 N 
ATOM     21  C   UNL     1      -3.179  11.434  17.616  0.00  0.00    +0.000 C 
ATOM     22  C   UNL     1      -4.384  11.429  18.571  0.00  0.00    +0.000 C 
ATOM     23  C   UNL     1      -5.702  11.520  17.807  0.00  0.00    +0.000 C 
ATOM     24  C   UNL     1      -4.260  12.576  19.585  0.00  0.00    +0.000 C 
ATOM     25  C   UNL     1      -2.921  12.510  20.335  0.00  0.00    +0.000 C 
ATOM     26  C   UNL     1      -2.777  13.704  21.279  0.00  0.00    +0.000 C 
ATOM     27  C   UNL     1      -1.741  12.440  19.353  0.00  0.00    +0.000 C 
ENDBRANCH  17  18
ENDBRANCH  16  17
ENDBRANCH   1  16
TORSDOF 8
ENDMDL
