MODEL 1
REMARK VINA RESULT:      -8.3      0.000      0.000
REMARK  Name = 
REMARK  4 active torsions:
REMARK  status: ('A' for Active; 'I' for Inactive)
REMARK    1  A    between atoms: C_1  and  O_2
REMARK    2  A    between atoms: O_2  and  C_3
REMARK    3  A    between atoms: C_6  and  N_7
REMARK    4  A    between atoms: N_13  and  C_14
REMARK                            x       y       z     vdW  Elec       q    Type
REMARK                         _______ _______ _______ _____ _____    ______ ____
ROOT
ATOM      1  N   UNL     1      -0.872  11.244  22.243  0.00  0.00    +0.000 N 
ATOM      2  C   UNL     1      -0.855  11.256  20.770  0.00  0.00    +0.000 C 
ATOM      3  C   UNL     1       0.576  10.926  20.282  0.00  0.00    +0.000 C 
ATOM      4  N   UNL     1       1.075   9.654  20.850  0.00  0.00    +0.000 N 
ATOM      5  C   UNL     1       1.554   8.691  19.980  0.00  0.00    +0.000 C 
ATOM      6  O   UNL     1       1.596   8.915  18.765  0.00  0.00    +0.000 OA
ATOM      7  N   UNL     1       1.918   7.473  20.517  0.00  0.00    +0.000 N 
ATOM      8  C   UNL     1       1.009   9.626  22.324  0.00  0.00    +0.000 C 
ATOM      9  C   UNL     1      -0.414   9.975  22.838  0.00  0.00    +0.000 C 
ATOM     10  H   UNL     1       1.520   7.227  21.411  0.00  0.00    +0.000 HD
ENDROOT
BRANCH   7  11
ATOM     11  C   UNL     1       2.372   6.393  19.743  0.00  0.00    +0.000 A 
ATOM     12  C   UNL     1       3.209   6.523  18.704  0.00  0.00    +0.000 A 
ATOM     13  N   UNL     1       3.727   5.533  17.933  0.00  0.00    +0.000 NA
ATOM     14  C   UNL     1       3.386   4.303  18.233  0.00  0.00    +0.000 A 
ATOM     15  C   UNL     1       3.982   3.185  17.450  0.00  0.00    +0.000 A 
ATOM     16  C   UNL     1       3.605   1.928  17.690  0.00  0.00    +0.000 A 
ATOM     17  C   UNL     1       2.619   1.652  18.705  0.00  0.00    +0.000 A 
ATOM     18  C   UNL     1       2.111   2.649  19.430  0.00  0.00    +0.000 A 
ATOM     19  N   UNL     1       2.493   3.983  19.241  0.00  0.00    +0.000 N 
ATOM     20  C   UNL     1       1.869   4.991  19.983  0.00  0.00    +0.000 A 
ATOM     21  O   UNL     1       0.914   4.807  20.741  0.00  0.00    +0.000 OA
ENDBRANCH   7  11
BRANCH   1  25
ATOM     22  C   UNL     1      -3.059  14.273  24.242  0.00  0.00    +0.000 A 
ATOM     23  C   UNL     1      -3.614  13.011  24.047  0.00  0.00    +0.000 A 
ATOM     24  C   UNL     1      -2.873  11.986  23.433  0.00  0.00    +0.000 A 
ATOM     25  C   UNL     1      -1.571  12.196  22.962  0.00  0.00    +0.000 A 
ATOM     26  C   UNL     1      -1.029  13.473  23.179  0.00  0.00    +0.000 A 
ATOM     27  C   UNL     1      -1.762  14.507  23.795  0.00  0.00    +0.000 A 
BRANCH  22  29
ATOM     28  C   UNL     1      -4.895  15.767  24.083  0.00  0.00    +0.000 C 
ATOM     29  O   UNL     1      -3.863  15.183  24.871  0.00  0.00    +0.000 OA
ENDBRANCH  22  29
ENDBRANCH   1  25
TORSDOF 3
ENDMDL
MODEL 2
REMARK VINA RESULT:      -7.8      2.337     10.802
REMARK  Name = 
REMARK  4 active torsions:
REMARK  status: ('A' for Active; 'I' for Inactive)
REMARK    1  A    between atoms: C_1  and  O_2
REMARK    2  A    between atoms: O_2  and  C_3
REMARK    3  A    between atoms: C_6  and  N_7
REMARK    4  A    between atoms: N_13  and  C_14
REMARK                            x       y       z     vdW  Elec       q    Type
REMARK                         _______ _______ _______ _____ _____    ______ ____
ROOT
ATOM      1  N   UNL     1       1.451   8.766  19.627  0.00  0.00    +0.000 N 
ATOM      2  C   UNL     1       1.192  10.024  18.903  0.00  0.00    +0.000 C 
ATOM      3  C   UNL     1      -0.287  10.428  19.114  0.00  0.00    +0.000 C 
ATOM      4  N   UNL     1      -0.639  10.510  20.548  0.00  0.00    +0.000 N 
ATOM      5  C   UNL     1      -1.220  11.676  21.014  0.00  0.00    +0.000 C 
ATOM      6  O   UNL     1      -1.469  12.603  20.236  0.00  0.00    +0.000 OA
ATOM      7  N   UNL     1      -1.447  11.775  22.372  0.00  0.00    +0.000 N 
ATOM      8  C   UNL     1      -0.332   9.267  21.281  0.00  0.00    +0.000 C 
ATOM      9  C   UNL     1       1.143   8.829  21.067  0.00  0.00    +0.000 C 
ATOM     10  H   UNL     1      -0.899  11.179  22.975  0.00  0.00    +0.000 HD
ENDROOT
BRANCH   7  11
ATOM     11  C   UNL     1      -1.983  12.919  22.984  0.00  0.00    +0.000 A 
ATOM     12  C   UNL     1      -1.241  13.840  23.615  0.00  0.00    +0.000 A 
ATOM     13  N   UNL     1      -1.671  14.991  24.194  0.00  0.00    +0.000 NA
ATOM     14  C   UNL     1      -2.955  15.247  24.129  0.00  0.00    +0.000 A 
ATOM     15  C   UNL     1      -3.458  16.529  24.697  0.00  0.00    +0.000 A 
ATOM     16  C   UNL     1      -4.766  16.788  24.703  0.00  0.00    +0.000 A 
ATOM     17  C   UNL     1      -5.694  15.827  24.161  0.00  0.00    +0.000 A 
ATOM     18  C   UNL     1      -5.242  14.696  23.620  0.00  0.00    +0.000 A 
ATOM     19  N   UNL     1      -3.877  14.386  23.561  0.00  0.00    +0.000 N 
ATOM     20  C   UNL     1      -3.472  13.150  23.047  0.00  0.00    +0.000 A 
ATOM     21  O   UNL     1      -4.244  12.244  22.724  0.00  0.00    +0.000 OA
ENDBRANCH   7  11
BRANCH   1  25
ATOM     22  C   UNL     1       4.010   5.808  17.999  0.00  0.00    +0.000 A 
ATOM     23  C   UNL     1       3.307   5.566  19.177  0.00  0.00    +0.000 A 
ATOM     24  C   UNL     1       2.416   6.522  19.692  0.00  0.00    +0.000 A 
ATOM     25  C   UNL     1       2.224   7.763  19.072  0.00  0.00    +0.000 A 
ATOM     26  C   UNL     1       2.934   7.980  17.880  0.00  0.00    +0.000 A 
ATOM     27  C   UNL     1       3.830   7.027  17.354  0.00  0.00    +0.000 A 
BRANCH  22  29
ATOM     28  C   UNL     1       4.259   3.492  17.549  0.00  0.00    +0.000 C 
ATOM     29  O   UNL     1       4.829   4.797  17.581  0.00  0.00    +0.000 OA
ENDBRANCH  22  29
ENDBRANCH   1  25
TORSDOF 3
ENDMDL
MODEL 3
REMARK VINA RESULT:      -7.7      2.489     10.775
REMARK  Name = 
REMARK  4 active torsions:
REMARK  status: ('A' for Active; 'I' for Inactive)
REMARK    1  A    between atoms: C_1  and  O_2
REMARK    2  A    between atoms: O_2  and  C_3
REMARK    3  A    between atoms: C_6  and  N_7
REMARK    4  A    between atoms: N_13  and  C_14
REMARK                            x       y       z     vdW  Elec       q    Type
REMARK                         _______ _______ _______ _____ _____    ______ ____
ROOT
ATOM      1  N   UNL     1       1.645   8.394  19.594  0.00  0.00    +0.000 N 
ATOM      2  C   UNL     1       1.328   9.627  18.851  0.00  0.00    +0.000 C 
ATOM      3  C   UNL     1      -0.152   9.999  19.104  0.00  0.00    +0.000 C 
ATOM      4  N   UNL     1      -0.457  10.107  20.548  0.00  0.00    +0.000 N 
ATOM      5  C   UNL     1      -1.050  11.269  21.008  0.00  0.00    +0.000 C 
ATOM      6  O   UNL     1      -1.350  12.170  20.217  0.00  0.00    +0.000 OA
ATOM      7  N   UNL     1      -1.232  11.395  22.370  0.00  0.00    +0.000 N 
ATOM      8  C   UNL     1      -0.092   8.889  21.298  0.00  0.00    +0.000 C 
ATOM      9  C   UNL     1       1.386   8.483  21.042  0.00  0.00    +0.000 C 
ATOM     10  H   UNL     1      -0.648  10.827  22.967  0.00  0.00    +0.000 HD
ENDROOT
BRANCH   7  11
ATOM     11  C   UNL     1      -1.775  12.540  22.974  0.00  0.00    +0.000 A 
ATOM     12  C   UNL     1      -3.060  12.649  23.337  0.00  0.00    +0.000 A 
ATOM     13  N   UNL     1      -3.655  13.699  23.961  0.00  0.00    +0.000 NA
ATOM     14  C   UNL     1      -2.894  14.725  24.256  0.00  0.00    +0.000 A 
ATOM     15  C   UNL     1      -3.495  15.870  24.996  0.00  0.00    +0.000 A 
ATOM     16  C   UNL     1      -2.763  16.955  25.254  0.00  0.00    +0.000 A 
ATOM     17  C   UNL     1      -1.392  17.021  24.813  0.00  0.00    +0.000 A 
ATOM     18  C   UNL     1      -0.843  15.983  24.183  0.00  0.00    +0.000 A 
ATOM     19  N   UNL     1      -1.556  14.808  23.913  0.00  0.00    +0.000 N 
ATOM     20  C   UNL     1      -0.946  13.783  23.183  0.00  0.00    +0.000 A 
ATOM     21  O   UNL     1       0.165  13.870  22.656  0.00  0.00    +0.000 OA
ENDBRANCH   7  11
BRANCH   1  25
ATOM     22  C   UNL     1       4.219   5.450  17.964  0.00  0.00    +0.000 A 
ATOM     23  C   UNL     1       3.473   5.183  19.109  0.00  0.00    +0.000 A 
ATOM     24  C   UNL     1       2.578   6.136  19.624  0.00  0.00    +0.000 A 
ATOM     25  C   UNL     1       2.422   7.397  19.034  0.00  0.00    +0.000 A 
ATOM     26  C   UNL     1       3.176   7.639  17.874  0.00  0.00    +0.000 A 
ATOM     27  C   UNL     1       4.076   6.690  17.350  0.00  0.00    +0.000 A 
BRANCH  22  29
ATOM     28  C   UNL     1       6.403   4.783  17.322  0.00  0.00    +0.000 C 
ATOM     29  O   UNL     1       5.039   4.440  17.543  0.00  0.00    +0.000 OA
ENDBRANCH  22  29
ENDBRANCH   1  25
TORSDOF 3
ENDMDL
MODEL 4
REMARK VINA RESULT:      -7.6      3.722     10.498
REMARK  Name = 
REMARK  4 active torsions:
REMARK  status: ('A' for Active; 'I' for Inactive)
REMARK    1  A    between atoms: C_1  and  O_2
REMARK    2  A    between atoms: O_2  and  C_3
REMARK    3  A    between atoms: C_6  and  N_7
REMARK    4  A    between atoms: N_13  and  C_14
REMARK                            x       y       z     vdW  Elec       q    Type
REMARK                         _______ _______ _______ _____ _____    ______ ____
ROOT
ATOM      1  N   UNL     1       2.589   7.637  18.620  0.00  0.00    +0.000 N 
ATOM      2  C   UNL     1       1.808   7.423  19.851  0.00  0.00    +0.000 C 
ATOM      3  C   UNL     1       1.453   8.798  20.466  0.00  0.00    +0.000 C 
ATOM      4  N   UNL     1       0.763   9.676  19.496  0.00  0.00    +0.000 N 
ATOM      5  C   UNL     1      -0.447  10.237  19.865  0.00  0.00    +0.000 C 
ATOM      6  O   UNL     1      -0.909  10.035  20.993  0.00  0.00    +0.000 OA
ATOM      7  N   UNL     1      -1.126  10.969  18.912  0.00  0.00    +0.000 N 
ATOM      8  C   UNL     1       1.524   9.848  18.244  0.00  0.00    +0.000 C 
ATOM      9  C   UNL     1       1.911   8.480  17.619  0.00  0.00    +0.000 C 
ATOM     10  H   UNL     1      -0.901  10.787  17.945  0.00  0.00    +0.000 HD
ENDROOT
BRANCH   7  11
ATOM     11  C   UNL     1      -2.385  11.549  19.137  0.00  0.00    +0.000 A 
ATOM     12  C   UNL     1      -2.622  12.461  20.090  0.00  0.00    +0.000 A 
ATOM     13  N   UNL     1      -3.793  13.100  20.346  0.00  0.00    +0.000 NA
ATOM     14  C   UNL     1      -4.813  12.808  19.576  0.00  0.00    +0.000 A 
ATOM     15  C   UNL     1      -6.097  13.533  19.785  0.00  0.00    +0.000 A 
ATOM     16  C   UNL     1      -7.170  13.213  19.060  0.00  0.00    +0.000 A 
ATOM     17  C   UNL     1      -7.087  12.162  18.076  0.00  0.00    +0.000 A 
ATOM     18  C   UNL     1      -5.929  11.538  17.863  0.00  0.00    +0.000 A 
ATOM     19  N   UNL     1      -4.765  11.855  18.575  0.00  0.00    +0.000 N 
ATOM     20  C   UNL     1      -3.600  11.112  18.357  0.00  0.00    +0.000 A 
ATOM     21  O   UNL     1      -3.537  10.109  17.642  0.00  0.00    +0.000 OA
ENDBRANCH   7  11
BRANCH   1  25
ATOM     22  C   UNL     1       5.783   5.041  17.616  0.00  0.00    +0.000 A 
ATOM     23  C   UNL     1       5.444   6.102  16.781  0.00  0.00    +0.000 A 
ATOM     24  C   UNL     1       4.421   6.998  17.135  0.00  0.00    +0.000 A 
ATOM     25  C   UNL     1       3.680   6.846  18.314  0.00  0.00    +0.000 A 
ATOM     26  C   UNL     1       4.048   5.776  19.146  0.00  0.00    +0.000 A 
ATOM     27  C   UNL     1       5.073   4.872  18.801  0.00  0.00    +0.000 A 
BRANCH  22  29
ATOM     28  C   UNL     1       7.137   4.340  15.798  0.00  0.00    +0.000 C 
ATOM     29  O   UNL     1       6.809   4.249  17.181  0.00  0.00    +0.000 OA
ENDBRANCH  22  29
ENDBRANCH   1  25
TORSDOF 3
ENDMDL
MODEL 5
REMARK VINA RESULT:      -7.6      2.558     10.924
REMARK  Name = 
REMARK  4 active torsions:
REMARK  status: ('A' for Active; 'I' for Inactive)
REMARK    1  A    between atoms: C_1  and  O_2
REMARK    2  A    between atoms: O_2  and  C_3
REMARK    3  A    between atoms: C_6  and  N_7
REMARK    4  A    between atoms: N_13  and  C_14
REMARK                            x       y       z     vdW  Elec       q    Type
REMARK                         _______ _______ _______ _____ _____    ______ ____
ROOT
ATOM      1  N   UNL     1       1.489   8.435  19.978  0.00  0.00    +0.000 N 
ATOM      2  C   UNL     1       0.793   8.134  21.242  0.00  0.00    +0.000 C 
ATOM      3  C   UNL     1       0.944   9.341  22.198  0.00  0.00    +0.000 C 
ATOM      4  N   UNL     1       0.481  10.601  21.576  0.00  0.00    +0.000 N 
ATOM      5  C   UNL     1      -0.453  11.363  22.255  0.00  0.00    +0.000 C 
ATOM      6  O   UNL     1      -0.853  11.010  23.369  0.00  0.00    +0.000 OA
ATOM      7  N   UNL     1      -0.949  12.480  21.615  0.00  0.00    +0.000 N 
ATOM      8  C   UNL     1       1.145  10.874  20.286  0.00  0.00    +0.000 C 
ATOM      9  C   UNL     1       1.025   9.667  19.316  0.00  0.00    +0.000 C 
ATOM     10  H   UNL     1      -0.879  12.503  20.608  0.00  0.00    +0.000 HD
ENDROOT
BRANCH   7  11
ATOM     11  C   UNL     1      -1.936  13.312  22.167  0.00  0.00    +0.000 A 
ATOM     12  C   UNL     1      -3.238  13.225  21.859  0.00  0.00    +0.000 A 
ATOM     13  N   UNL     1      -4.258  13.958  22.375  0.00  0.00    +0.000 NA
ATOM     14  C   UNL     1      -3.950  14.850  23.286  0.00  0.00    +0.000 A 
ATOM     15  C   UNL     1      -5.048  15.630  23.921  0.00  0.00    +0.000 A 
ATOM     16  C   UNL     1      -4.762  16.588  24.804  0.00  0.00    +0.000 A 
ATOM     17  C   UNL     1      -3.388  16.870  25.140  0.00  0.00    +0.000 A 
ATOM     18  C   UNL     1      -2.408  16.148  24.599  0.00  0.00    +0.000 A 
ATOM     19  N   UNL     1      -2.654  15.111  23.691  0.00  0.00    +0.000 N 
ATOM     20  C   UNL     1      -1.577  14.440  23.102  0.00  0.00    +0.000 A 
ATOM     21  O   UNL     1      -0.395  14.760  23.245  0.00  0.00    +0.000 OA
ENDBRANCH   7  11
BRANCH   1  25
ATOM     22  C   UNL     1       3.999   5.609  18.063  0.00  0.00    +0.000 A 
ATOM     23  C   UNL     1       3.329   5.279  19.238  0.00  0.00    +0.000 A 
ATOM     24  C   UNL     1       2.453   6.193  19.848  0.00  0.00    +0.000 A 
ATOM     25  C   UNL     1       2.245   7.477  19.328  0.00  0.00    +0.000 A 
ATOM     26  C   UNL     1       2.922   7.783  18.137  0.00  0.00    +0.000 A 
ATOM     27  C   UNL     1       3.802   6.874  17.516  0.00  0.00    +0.000 A 
BRANCH  22  29
ATOM     28  C   UNL     1       6.208   4.821  17.705  0.00  0.00    +0.000 C 
ATOM     29  O   UNL     1       4.805   4.633  17.546  0.00  0.00    +0.000 OA
ENDBRANCH  22  29
ENDBRANCH   1  25
TORSDOF 3
ENDMDL
MODEL 6
REMARK VINA RESULT:      -7.6      2.341     10.954
REMARK  Name = 
REMARK  4 active torsions:
REMARK  status: ('A' for Active; 'I' for Inactive)
REMARK    1  A    between atoms: C_1  and  O_2
REMARK    2  A    between atoms: O_2  and  C_3
REMARK    3  A    between atoms: C_6  and  N_7
REMARK    4  A    between atoms: N_13  and  C_14
REMARK                            x       y       z     vdW  Elec       q    Type
REMARK                         _______ _______ _______ _____ _____    ______ ____
ROOT
ATOM      1  N   UNL     1       1.451   8.462  19.997  0.00  0.00    +0.000 N 
ATOM      2  C   UNL     1       0.757   8.177  21.266  0.00  0.00    +0.000 C 
ATOM      3  C   UNL     1       0.910   9.396  22.207  0.00  0.00    +0.000 C 
ATOM      4  N   UNL     1       0.446  10.648  21.570  0.00  0.00    +0.000 N 
ATOM      5  C   UNL     1      -0.486  11.418  22.241  0.00  0.00    +0.000 C 
ATOM      6  O   UNL     1      -0.885  11.079  23.360  0.00  0.00    +0.000 OA
ATOM      7  N   UNL     1      -0.984  12.528  21.588  0.00  0.00    +0.000 N 
ATOM      8  C   UNL     1       1.107  10.906  20.276  0.00  0.00    +0.000 C 
ATOM      9  C   UNL     1       0.986   9.686  19.321  0.00  0.00    +0.000 C 
ATOM     10  H   UNL     1      -0.915  12.538  20.581  0.00  0.00    +0.000 HD
ENDROOT
BRANCH   7  11
ATOM     11  C   UNL     1      -1.970  13.367  22.131  0.00  0.00    +0.000 A 
ATOM     12  C   UNL     1      -3.260  13.325  21.772  0.00  0.00    +0.000 A 
ATOM     13  N   UNL     1      -4.281  14.068  22.275  0.00  0.00    +0.000 NA
ATOM     14  C   UNL     1      -3.985  14.919  23.227  0.00  0.00    +0.000 A 
ATOM     15  C   UNL     1      -5.087  15.707  23.848  0.00  0.00    +0.000 A 
ATOM     16  C   UNL     1      -4.809  16.627  24.773  0.00  0.00    +0.000 A 
ATOM     17  C   UNL     1      -3.443  16.860  25.170  0.00  0.00    +0.000 A 
ATOM     18  C   UNL     1      -2.461  16.131  24.641  0.00  0.00    +0.000 A 
ATOM     19  N   UNL     1      -2.699  15.132  23.689  0.00  0.00    +0.000 N 
ATOM     20  C   UNL     1      -1.618  14.453  23.118  0.00  0.00    +0.000 A 
ATOM     21  O   UNL     1      -0.434  14.736  23.316  0.00  0.00    +0.000 OA
ENDBRANCH   7  11
BRANCH   1  25
ATOM     22  C   UNL     1       3.561   5.411  17.952  0.00  0.00    +0.000 A 
ATOM     23  C   UNL     1       3.548   6.714  17.461  0.00  0.00    +0.000 A 
ATOM     24  C   UNL     1       2.895   7.741  18.163  0.00  0.00    +0.000 A 
ATOM     25  C   UNL     1       2.205   7.496  19.357  0.00  0.00    +0.000 A 
ATOM     26  C   UNL     1       2.242   6.178  19.839  0.00  0.00    +0.000 A 
ATOM     27  C   UNL     1       2.894   5.140  19.143  0.00  0.00    +0.000 A 
BRANCH  22  29
ATOM     28  C   UNL     1       4.094   3.132  17.561  0.00  0.00    +0.000 C 
ATOM     29  O   UNL     1       4.247   4.500  17.197  0.00  0.00    +0.000 OA
ENDBRANCH  22  29
ENDBRANCH   1  25
TORSDOF 3
ENDMDL
MODEL 7
REMARK VINA RESULT:      -7.6      2.302     10.833
REMARK  Name = 
REMARK  4 active torsions:
REMARK  status: ('A' for Active; 'I' for Inactive)
REMARK    1  A    between atoms: C_1  and  O_2
REMARK    2  A    between atoms: O_2  and  C_3
REMARK    3  A    between atoms: C_6  and  N_7
REMARK    4  A    between atoms: N_13  and  C_14
REMARK                            x       y       z     vdW  Elec       q    Type
REMARK                         _______ _______ _______ _____ _____    ______ ____
ROOT
ATOM      1  N   UNL     1       1.489   8.397  19.966  0.00  0.00    +0.000 N 
ATOM      2  C   UNL     1       1.183   9.599  19.169  0.00  0.00    +0.000 C 
ATOM      3  C   UNL     1      -0.291  10.001  19.415  0.00  0.00    +0.000 C 
ATOM      4  N   UNL     1      -0.584  10.178  20.854  0.00  0.00    +0.000 N 
ATOM      5  C   UNL     1      -1.160  11.367  21.264  0.00  0.00    +0.000 C 
ATOM      6  O   UNL     1      -1.455  12.235  20.436  0.00  0.00    +0.000 OA
ATOM      7  N   UNL     1      -1.332  11.557  22.621  0.00  0.00    +0.000 N 
ATOM      8  C   UNL     1      -0.229   8.991  21.657  0.00  0.00    +0.000 C 
ATOM      9  C   UNL     1       1.241   8.555  21.410  0.00  0.00    +0.000 C 
ATOM     10  H   UNL     1      -0.750  11.010  23.239  0.00  0.00    +0.000 HD
ENDROOT
BRANCH   7  11
ATOM     11  C   UNL     1      -1.856  12.735  23.175  0.00  0.00    +0.000 A 
ATOM     12  C   UNL     1      -3.144  12.887  23.515  0.00  0.00    +0.000 A 
ATOM     13  N   UNL     1      -3.722  13.971  24.092  0.00  0.00    +0.000 NA
ATOM     14  C   UNL     1      -2.943  14.990  24.361  0.00  0.00    +0.000 A 
ATOM     15  C   UNL     1      -3.527  16.174  25.051  0.00  0.00    +0.000 A 
ATOM     16  C   UNL     1      -2.774  17.251  25.281  0.00  0.00    +0.000 A 
ATOM     17  C   UNL     1      -1.396  17.270  24.858  0.00  0.00    +0.000 A 
ATOM     18  C   UNL     1      -0.863  16.198  24.273  0.00  0.00    +0.000 A 
ATOM     19  N   UNL     1      -1.599  15.030  24.035  0.00  0.00    +0.000 N 
ATOM     20  C   UNL     1      -1.002  13.967  23.351  0.00  0.00    +0.000 A 
ATOM     21  O   UNL     1       0.118  14.010  22.838  0.00  0.00    +0.000 OA
ENDBRANCH   7  11
BRANCH   1  25
ATOM     22  C   UNL     1       3.623   5.133  18.310  0.00  0.00    +0.000 A 
ATOM     23  C   UNL     1       3.578   6.358  17.649  0.00  0.00    +0.000 A 
ATOM     24  C   UNL     1       2.917   7.459  18.219  0.00  0.00    +0.000 A 
ATOM     25  C   UNL     1       2.251   7.367  19.448  0.00  0.00    +0.000 A 
ATOM     26  C   UNL     1       2.321   6.126  20.101  0.00  0.00    +0.000 A 
ATOM     27  C   UNL     1       2.981   5.015  19.539  0.00  0.00    +0.000 A 
BRANCH  22  29
ATOM     28  C   UNL     1       3.799   2.820  17.811  0.00  0.00    +0.000 C 
ATOM     29  O   UNL     1       4.314   4.141  17.672  0.00  0.00    +0.000 OA
ENDBRANCH  22  29
ENDBRANCH   1  25
TORSDOF 3
ENDMDL
MODEL 8
REMARK VINA RESULT:      -7.5      0.986      1.834
REMARK  Name = 
REMARK  4 active torsions:
REMARK  status: ('A' for Active; 'I' for Inactive)
REMARK    1  A    between atoms: C_1  and  O_2
REMARK    2  A    between atoms: O_2  and  C_3
REMARK    3  A    between atoms: C_6  and  N_7
REMARK    4  A    between atoms: N_13  and  C_14
REMARK                            x       y       z     vdW  Elec       q    Type
REMARK                         _______ _______ _______ _____ _____    ______ ____
ROOT
ATOM      1  N   UNL     1      -0.891  11.204  22.319  0.00  0.00    +0.000 N 
ATOM      2  C   UNL     1      -0.801  11.091  20.852  0.00  0.00    +0.000 C 
ATOM      3  C   UNL     1       0.599  10.551  20.475  0.00  0.00    +0.000 C 
ATOM      4  N   UNL     1       0.906   9.279  21.166  0.00  0.00    +0.000 N 
ATOM      5  C   UNL     1       1.302   8.196  20.402  0.00  0.00    +0.000 C 
ATOM      6  O   UNL     1       1.430   8.311  19.179  0.00  0.00    +0.000 OA
ATOM      7  N   UNL     1       1.484   6.992  21.051  0.00  0.00    +0.000 N 
ATOM      8  C   UNL     1       0.766   9.382  22.632  0.00  0.00    +0.000 C 
ATOM      9  C   UNL     1      -0.625   9.943  23.035  0.00  0.00    +0.000 C 
ATOM     10  H   UNL     1       1.015   6.871  21.937  0.00  0.00    +0.000 HD
ENDROOT
BRANCH   7  11
ATOM     11  C   UNL     1       1.835   5.804  20.390  0.00  0.00    +0.000 A 
ATOM     12  C   UNL     1       1.172   4.648  20.537  0.00  0.00    +0.000 A 
ATOM     13  N   UNL     1       1.418   3.471  19.908  0.00  0.00    +0.000 NA
ATOM     14  C   UNL     1       2.408   3.449  19.049  0.00  0.00    +0.000 A 
ATOM     15  C   UNL     1       2.670   2.193  18.292  0.00  0.00    +0.000 A 
ATOM     16  C   UNL     1       3.710   2.122  17.459  0.00  0.00    +0.000 A 
ATOM     17  C   UNL     1       4.581   3.258  17.294  0.00  0.00    +0.000 A 
ATOM     18  C   UNL     1       4.326   4.394  17.943  0.00  0.00    +0.000 A 
ATOM     19  N   UNL     1       3.232   4.534  18.806  0.00  0.00    +0.000 N 
ATOM     20  C   UNL     1       3.062   5.727  19.516  0.00  0.00    +0.000 A 
ATOM     21  O   UNL     1       3.872   6.657  19.520  0.00  0.00    +0.000 OA
ENDBRANCH   7  11
BRANCH   1  25
ATOM     22  C   UNL     1      -2.718  14.429  24.371  0.00  0.00    +0.000 A 
ATOM     23  C   UNL     1      -1.426  14.553  23.865  0.00  0.00    +0.000 A 
ATOM     24  C   UNL     1      -0.835  13.506  23.137  0.00  0.00    +0.000 A 
ATOM     25  C   UNL     1      -1.498  12.291  22.920  0.00  0.00    +0.000 A 
ATOM     26  C   UNL     1      -2.803  12.194  23.429  0.00  0.00    +0.000 A 
ATOM     27  C   UNL     1      -3.405  13.238  24.160  0.00  0.00    +0.000 A 
BRANCH  22  29
ATOM     28  C   UNL     1      -4.132  16.334  24.340  0.00  0.00    +0.000 C 
ATOM     29  O   UNL     1      -3.198  15.520  25.042  0.00  0.00    +0.000 OA
ENDBRANCH  22  29
ENDBRANCH   1  25
TORSDOF 3
ENDMDL
MODEL 9
REMARK VINA RESULT:      -7.4      2.667     10.734
REMARK  Name = 
REMARK  4 active torsions:
REMARK  status: ('A' for Active; 'I' for Inactive)
REMARK    1  A    between atoms: C_1  and  O_2
REMARK    2  A    between atoms: O_2  and  C_3
REMARK    3  A    between atoms: C_6  and  N_7
REMARK    4  A    between atoms: N_13  and  C_14
REMARK                            x       y       z     vdW  Elec       q    Type
REMARK                         _______ _______ _______ _____ _____    ______ ____
ROOT
ATOM      1  N   UNL     1       2.683   7.128  18.286  0.00  0.00    +0.000 N 
ATOM      2  C   UNL     1       1.849   6.707  19.426  0.00  0.00    +0.000 C 
ATOM      3  C   UNL     1       1.806   7.853  20.466  0.00  0.00    +0.000 C 
ATOM      4  N   UNL     1       1.356   9.128  19.867  0.00  0.00    +0.000 N 
ATOM      5  C   UNL     1       0.300   9.795  20.462  0.00  0.00    +0.000 C 
ATOM      6  O   UNL     1      -0.219   9.348  21.490  0.00  0.00    +0.000 OA
ATOM      7  N   UNL     1      -0.174  10.928  19.831  0.00  0.00    +0.000 N 
ATOM      8  C   UNL     1       2.162   9.521  18.695  0.00  0.00    +0.000 C 
ATOM      9  C   UNL     1       2.237   8.378  17.645  0.00  0.00    +0.000 C 
ATOM     10  H   UNL     1       0.024  11.022  18.846  0.00  0.00    +0.000 HD
ENDROOT
BRANCH   7  11
ATOM     11  C   UNL     1      -1.270  11.670  20.299  0.00  0.00    +0.000 A 
ATOM     12  C   UNL     1      -2.401  11.844  19.601  0.00  0.00    +0.000 A 
ATOM     13  N   UNL     1      -3.518  12.509  19.993  0.00  0.00    +0.000 NA
ATOM     14  C   UNL     1      -3.507  13.038  21.193  0.00  0.00    +0.000 A 
ATOM     15  C   UNL     1      -4.736  13.721  21.684  0.00  0.00    +0.000 A 
ATOM     16  C   UNL     1      -4.733  14.324  22.874  0.00  0.00    +0.000 A 
ATOM     17  C   UNL     1      -3.540  14.317  23.683  0.00  0.00    +0.000 A 
ATOM     18  C   UNL     1      -2.451  13.675  23.260  0.00  0.00    +0.000 A 
ATOM     19  N   UNL     1      -2.408  13.000  22.033  0.00  0.00    +0.000 N 
ATOM     20  C   UNL     1      -1.213  12.409  21.613  0.00  0.00    +0.000 A 
ATOM     21  O   UNL     1      -0.135  12.520  22.203  0.00  0.00    +0.000 OA
ENDBRANCH   7  11
BRANCH   1  25
ATOM     22  C   UNL     1       5.239   4.416  16.270  0.00  0.00    +0.000 A 
ATOM     23  C   UNL     1       5.467   5.788  16.202  0.00  0.00    +0.000 A 
ATOM     24  C   UNL     1       4.655   6.689  16.912  0.00  0.00    +0.000 A 
ATOM     25  C   UNL     1       3.569   6.255  17.684  0.00  0.00    +0.000 A 
ATOM     26  C   UNL     1       3.366   4.867  17.746  0.00  0.00    +0.000 A 
ATOM     27  C   UNL     1       4.174   3.955  17.038  0.00  0.00    +0.000 A 
BRANCH  22  29
ATOM     28  C   UNL     1       6.303   3.991  14.193  0.00  0.00    +0.000 C 
ATOM     29  O   UNL     1       6.106   3.635  15.557  0.00  0.00    +0.000 OA
ENDBRANCH  22  29
ENDBRANCH   1  25
TORSDOF 3
ENDMDL
