MODEL 1
REMARK VINA RESULT:     -10.3      0.000      0.000
REMARK  Name = 
REMARK  7 active torsions:
REMARK  status: ('A' for Active; 'I' for Inactive)
REMARK    1  A    between atoms: C_1  and  C_2
REMARK    2  A    between atoms: C_2  and  C_3
REMARK    3  A    between atoms: C_6  and  C_7
REMARK    4  A    between atoms: C_9  and  C_10
REMARK    5  A    between atoms: N_13  and  C_14
REMARK    6  A    between atoms: C_20  and  C_21
REMARK    7  A    between atoms: C_26  and  C_27
REMARK                            x       y       z     vdW  Elec       q    Type
REMARK                         _______ _______ _______ _____ _____    ______ ____
ROOT
ATOM      1  C   UNL     1       0.228  10.937  20.240  0.00  0.00    +0.000 C 
ATOM      2  C   UNL     1       1.321  11.996  20.064  0.00  0.00    +0.000 C 
ATOM      3  C   UNL     1       2.090  11.945  18.739  0.00  0.00    +0.000 C 
ATOM      4  C   UNL     1       1.770  10.825  17.746  0.00  0.00    +0.000 C 
ATOM      5  C   UNL     1       1.433   9.528  18.420  0.00  0.00    +0.000 A 
ATOM      6  C   UNL     1       2.103   8.374  17.866  0.00  0.00    +0.000 A 
ATOM      7  C   UNL     1       2.536   7.265  18.606  0.00  0.00    +0.000 A 
ATOM      8  C   UNL     1       2.091   7.331  19.937  0.00  0.00    +0.000 A 
ATOM      9  C   UNL     1       1.225   8.427  20.447  0.00  0.00    +0.000 A 
ATOM     10  C   UNL     1       0.803   9.553  19.666  0.00  0.00    +0.000 A 
ENDROOT
BRANCH   1  21
ATOM     11  C   UNL     1      -2.009  11.263  18.930  0.00  0.00    +0.000 A 
ATOM     12  N   UNL     1      -3.159  11.893  18.944  0.00  0.00    +0.000 NA
ATOM     13  C   UNL     1      -3.238  12.498  20.135  0.00  0.00    +0.000 A 
ATOM     14  C   UNL     1      -4.369  13.188  20.623  0.00  0.00    +0.000 A 
ATOM     15  C   UNL     1      -5.628  13.459  19.840  0.00  0.00    +0.000 C 
ATOM     16  C   UNL     1      -4.270  13.602  21.936  0.00  0.00    +0.000 A 
ATOM     17  C   UNL     1      -3.105  13.327  22.665  0.00  0.00    +0.000 A 
ATOM     18  C   UNL     1      -3.157  13.764  24.113  0.00  0.00    +0.000 C 
ATOM     19  N   UNL     1      -1.958  12.691  22.196  0.00  0.00    +0.000 NA
ATOM     20  C   UNL     1      -2.065  12.304  20.894  0.00  0.00    +0.000 A 
ATOM     21  N   UNL     1      -1.149  11.635  20.016  0.00  0.00    +0.000 N 
BRANCH  11  23
ATOM     22  C   UNL     1      -3.173   9.822  17.320  0.00  0.00    +0.000 C 
ATOM     23  C   UNL     1      -1.820  10.310  17.798  0.00  0.00    +0.000 C 
ENDBRANCH  11  23
ENDBRANCH   1  21
BRANCH   7  24
ATOM     24  C   UNL     1       3.537   6.291  17.919  0.00  0.00    +0.000 A 
ATOM     25  C   UNL     1       4.660   6.866  17.244  0.00  0.00    +0.000 A 
ATOM     26  C   UNL     1       5.540   6.169  16.378  0.00  0.00    +0.000 A 
ATOM     27  C   UNL     1       5.357   4.819  16.180  0.00  0.00    +0.000 A 
ATOM     28  C   UNL     1       4.341   4.177  16.854  0.00  0.00    +0.000 A 
ATOM     29  C   UNL     1       3.432   4.887  17.725  0.00  0.00    +0.000 A 
BRANCH  29  30
ATOM     30  C   UNL     1       2.433   4.045  18.350  0.00  0.00    +0.000 A 
ATOM     31  N   UNL     1       2.671   3.333  19.497  0.00  0.00    +0.000 NA
ATOM     32  N   UNL     1       1.648   2.504  19.651  0.00  0.00    +0.000 NA
ATOM     33  N   UNL     1       0.870   2.727  18.587  0.00  0.00    +0.000 N 
ATOM     34  N   UNL     1       1.307   3.648  17.721  0.00  0.00    +0.000 NA
ATOM     35  H   UNL     1       0.005   2.216  18.437  0.00  0.00    +0.000 HD
ENDBRANCH  29  30
ENDBRANCH   7  24
TORSDOF 4
ENDMDL
MODEL 2
REMARK VINA RESULT:     -10.2      1.275      2.951
REMARK  Name = 
REMARK  7 active torsions:
REMARK  status: ('A' for Active; 'I' for Inactive)
REMARK    1  A    between atoms: C_1  and  C_2
REMARK    2  A    between atoms: C_2  and  C_3
REMARK    3  A    between atoms: C_6  and  C_7
REMARK    4  A    between atoms: C_9  and  C_10
REMARK    5  A    between atoms: N_13  and  C_14
REMARK    6  A    between atoms: C_20  and  C_21
REMARK    7  A    between atoms: C_26  and  C_27
REMARK                            x       y       z     vdW  Elec       q    Type
REMARK                         _______ _______ _______ _____ _____    ______ ____
ROOT
ATOM      1  C   UNL     1       0.258  10.295  20.025  0.00  0.00    +0.000 C 
ATOM      2  C   UNL     1       1.226  11.468  19.834  0.00  0.00    +0.000 C 
ATOM      3  C   UNL     1       2.012  11.474  18.517  0.00  0.00    +0.000 C 
ATOM      4  C   UNL     1       1.833  10.302  17.549  0.00  0.00    +0.000 C 
ATOM      5  C   UNL     1       1.638   8.990  18.251  0.00  0.00    +0.000 A 
ATOM      6  C   UNL     1       2.442   7.908  17.732  0.00  0.00    +0.000 A 
ATOM      7  C   UNL     1       2.988   6.873  18.502  0.00  0.00    +0.000 A 
ATOM      8  C   UNL     1       2.522   6.918  19.828  0.00  0.00    +0.000 A 
ATOM      9  C   UNL     1       1.531   7.920  20.302  0.00  0.00    +0.000 A 
ATOM     10  C   UNL     1       0.994   8.973  19.490  0.00  0.00    +0.000 A 
ENDROOT
BRANCH   1  21
ATOM     11  C   UNL     1      -1.754  11.868  20.576  0.00  0.00    +0.000 A 
ATOM     12  N   UNL     1      -2.942  12.246  20.167  0.00  0.00    +0.000 NA
ATOM     13  C   UNL     1      -3.116  11.691  18.962  0.00  0.00    +0.000 A 
ATOM     14  C   UNL     1      -4.209  11.937  18.104  0.00  0.00    +0.000 A 
ATOM     15  C   UNL     1      -5.417  12.770  18.450  0.00  0.00    +0.000 C 
ATOM     16  C   UNL     1      -4.100  11.368  16.851  0.00  0.00    +0.000 A 
ATOM     17  C   UNL     1      -2.964  10.614  16.528  0.00  0.00    +0.000 A 
ATOM     18  C   UNL     1      -2.932  10.113  15.101  0.00  0.00    +0.000 C 
ATOM     19  N   UNL     1      -1.894  10.315  17.369  0.00  0.00    +0.000 NA
ATOM     20  C   UNL     1      -2.025  10.870  18.607  0.00  0.00    +0.000 A 
ATOM     21  N   UNL     1      -1.187  10.826  19.770  0.00  0.00    +0.000 N 
BRANCH  11  23
ATOM     22  C   UNL     1      -1.565  11.754  23.020  0.00  0.00    +0.000 C 
ATOM     23  C   UNL     1      -1.243  12.574  21.786  0.00  0.00    +0.000 C 
ENDBRANCH  11  23
ENDBRANCH   1  21
BRANCH   7  24
ATOM     24  C   UNL     1       4.102   6.004  17.850  0.00  0.00    +0.000 A 
ATOM     25  C   UNL     1       5.235   6.684  17.302  0.00  0.00    +0.000 A 
ATOM     26  C   UNL     1       6.225   6.095  16.476  0.00  0.00    +0.000 A 
ATOM     27  C   UNL     1       6.146   4.749  16.191  0.00  0.00    +0.000 A 
ATOM     28  C   UNL     1       5.125   4.009  16.743  0.00  0.00    +0.000 A 
ATOM     29  C   UNL     1       4.104   4.610  17.572  0.00  0.00    +0.000 A 
BRANCH  29  30
ATOM     30  C   UNL     1       3.117   3.673  18.066  0.00  0.00    +0.000 A 
ATOM     31  N   UNL     1       3.104   3.215  19.358  0.00  0.00    +0.000 NA
ATOM     32  N   UNL     1       2.236   2.213  19.400  0.00  0.00    +0.000 NA
ATOM     33  N   UNL     1       1.798   2.094  18.143  0.00  0.00    +0.000 N 
ATOM     34  N   UNL     1       2.322   2.946  17.254  0.00  0.00    +0.000 NA
ATOM     35  H   UNL     1       1.119   1.387  17.875  0.00  0.00    +0.000 HD
ENDBRANCH  29  30
ENDBRANCH   7  24
TORSDOF 4
ENDMDL
MODEL 3
REMARK VINA RESULT:      -9.4      2.762      4.256
REMARK  Name = 
REMARK  7 active torsions:
REMARK  status: ('A' for Active; 'I' for Inactive)
REMARK    1  A    between atoms: C_1  and  C_2
REMARK    2  A    between atoms: C_2  and  C_3
REMARK    3  A    between atoms: C_6  and  C_7
REMARK    4  A    between atoms: C_9  and  C_10
REMARK    5  A    between atoms: N_13  and  C_14
REMARK    6  A    between atoms: C_20  and  C_21
REMARK    7  A    between atoms: C_26  and  C_27
REMARK                            x       y       z     vdW  Elec       q    Type
REMARK                         _______ _______ _______ _____ _____    ______ ____
ROOT
ATOM      1  C   UNL     1       0.652  10.801  19.505  0.00  0.00    +0.000 C 
ATOM      2  C   UNL     1      -0.648  10.318  20.157  0.00  0.00    +0.000 C 
ATOM      3  C   UNL     1      -0.507   9.137  21.126  0.00  0.00    +0.000 C 
ATOM      4  C   UNL     1       0.871   8.498  21.310  0.00  0.00    +0.000 C 
ATOM      5  C   UNL     1       1.677   8.475  20.044  0.00  0.00    +0.000 A 
ATOM      6  C   UNL     1       2.307   7.207  19.759  0.00  0.00    +0.000 A 
ATOM      7  C   UNL     1       2.501   6.678  18.476  0.00  0.00    +0.000 A 
ATOM      8  C   UNL     1       2.157   7.608  17.479  0.00  0.00    +0.000 A 
ATOM      9  C   UNL     1       1.700   8.989  17.786  0.00  0.00    +0.000 A 
ATOM     10  C   UNL     1       1.505   9.500  19.112  0.00  0.00    +0.000 A 
ENDROOT
BRANCH   1  21
ATOM     11  C   UNL     1       2.002  13.036  19.619  0.00  0.00    +0.000 A 
ATOM     12  N   UNL     1       2.183  14.125  20.326  0.00  0.00    +0.000 NA
ATOM     13  C   UNL     1       1.236  14.119  21.270  0.00  0.00    +0.000 A 
ATOM     14  C   UNL     1       0.984  15.171  22.177  0.00  0.00    +0.000 A 
ATOM     15  C   UNL     1       1.814  16.423  22.309  0.00  0.00    +0.000 C 
ATOM     16  C   UNL     1      -0.139  15.001  22.961  0.00  0.00    +0.000 A 
ATOM     17  C   UNL     1      -0.919  13.846  22.817  0.00  0.00    +0.000 A 
ATOM     18  C   UNL     1      -2.163  13.821  23.677  0.00  0.00    +0.000 C 
ATOM     19  N   UNL     1      -0.668  12.771  21.966  0.00  0.00    +0.000 NA
ATOM     20  C   UNL     1       0.453  12.947  21.211  0.00  0.00    +0.000 A 
ATOM     21  N   UNL     1       1.082  12.118  20.224  0.00  0.00    +0.000 N 
BRANCH  11  23
ATOM     22  C   UNL     1       3.536  14.264  18.147  0.00  0.00    +0.000 C 
ATOM     23  C   UNL     1       2.787  12.961  18.352  0.00  0.00    +0.000 C 
ENDBRANCH  11  23
ENDBRANCH   1  21
BRANCH   7  24
ATOM     24  C   UNL     1       2.869   5.169  18.369  0.00  0.00    +0.000 A 
ATOM     25  C   UNL     1       1.801   4.244  18.145  0.00  0.00    +0.000 A 
ATOM     26  C   UNL     1       1.903   2.834  18.248  0.00  0.00    +0.000 A 
ATOM     27  C   UNL     1       3.125   2.270  18.544  0.00  0.00    +0.000 A 
ATOM     28  C   UNL     1       4.219   3.092  18.701  0.00  0.00    +0.000 A 
ATOM     29  C   UNL     1       4.114   4.531  18.613  0.00  0.00    +0.000 A 
BRANCH  29  30
ATOM     30  C   UNL     1       5.371   5.227  18.799  0.00  0.00    +0.000 A 
ATOM     31  N   UNL     1       5.906   6.064  17.856  0.00  0.00    +0.000 NA
ATOM     32  N   UNL     1       7.146   6.333  18.242  0.00  0.00    +0.000 NA
ATOM     33  N   UNL     1       7.309   5.628  19.366  0.00  0.00    +0.000 N 
ATOM     34  N   UNL     1       6.261   4.895  19.757  0.00  0.00    +0.000 NA
ATOM     35  H   UNL     1       8.183   5.637  19.885  0.00  0.00    +0.000 HD
ENDBRANCH  29  30
ENDBRANCH   7  24
TORSDOF 4
ENDMDL
MODEL 4
REMARK VINA RESULT:      -9.2      1.836      2.949
REMARK  Name = 
REMARK  7 active torsions:
REMARK  status: ('A' for Active; 'I' for Inactive)
REMARK    1  A    between atoms: C_1  and  C_2
REMARK    2  A    between atoms: C_2  and  C_3
REMARK    3  A    between atoms: C_6  and  C_7
REMARK    4  A    between atoms: C_9  and  C_10
REMARK    5  A    between atoms: N_13  and  C_14
REMARK    6  A    between atoms: C_20  and  C_21
REMARK    7  A    between atoms: C_26  and  C_27
REMARK                            x       y       z     vdW  Elec       q    Type
REMARK                         _______ _______ _______ _____ _____    ______ ____
ROOT
ATOM      1  C   UNL     1      -0.156  10.452  20.274  0.00  0.00    +0.000 C 
ATOM      2  C   UNL     1      -1.088   9.464  20.984  0.00  0.00    +0.000 C 
ATOM      3  C   UNL     1      -0.401   8.279  21.674  0.00  0.00    +0.000 C 
ATOM      4  C   UNL     1       1.117   8.133  21.544  0.00  0.00    +0.000 C 
ATOM      5  C   UNL     1       1.632   8.567  20.204  0.00  0.00    +0.000 A 
ATOM      6  C   UNL     1       2.563   7.646  19.593  0.00  0.00    +0.000 A 
ATOM      7  C   UNL     1       2.664   7.403  18.217  0.00  0.00    +0.000 A 
ATOM      8  C   UNL     1       1.861   8.289  17.477  0.00  0.00    +0.000 A 
ATOM      9  C   UNL     1       1.061   9.371  18.108  0.00  0.00    +0.000 A 
ATOM     10  C   UNL     1       0.971   9.592  19.522  0.00  0.00    +0.000 A 
ENDROOT
BRANCH   1  21
ATOM     11  C   UNL     1       0.879  12.779  20.855  0.00  0.00    +0.000 A 
ATOM     12  N   UNL     1       0.787  13.801  21.673  0.00  0.00    +0.000 NA
ATOM     13  C   UNL     1      -0.323  13.606  22.392  0.00  0.00    +0.000 A 
ATOM     14  C   UNL     1      -0.871  14.528  23.309  0.00  0.00    +0.000 A 
ATOM     15  C   UNL     1      -0.234  15.831  23.718  0.00  0.00    +0.000 C 
ATOM     16  C   UNL     1      -2.102  14.170  23.822  0.00  0.00    +0.000 A 
ATOM     17  C   UNL     1      -2.699  12.968  23.421  0.00  0.00    +0.000 A 
ATOM     18  C   UNL     1      -4.079  12.734  23.995  0.00  0.00    +0.000 C 
ATOM     19  N   UNL     1      -2.161  12.017  22.556  0.00  0.00    +0.000 NA
ATOM     20  C   UNL     1      -0.939  12.377  22.071  0.00  0.00    +0.000 A 
ATOM     21  N   UNL     1      -0.034  11.720  21.174  0.00  0.00    +0.000 N 
BRANCH  11  23
ATOM     22  C   UNL     1       1.236  13.376  18.501  0.00  0.00    +0.000 C 
ATOM     23  C   UNL     1       1.905  12.913  19.781  0.00  0.00    +0.000 C 
ENDBRANCH  11  23
ENDBRANCH   1  21
BRANCH   7  24
ATOM     24  C   UNL     1       3.461   6.143  17.768  0.00  0.00    +0.000 A 
ATOM     25  C   UNL     1       4.626   6.350  16.964  0.00  0.00    +0.000 A 
ATOM     26  C   UNL     1       5.339   5.336  16.277  0.00  0.00    +0.000 A 
ATOM     27  C   UNL     1       4.932   4.026  16.405  0.00  0.00    +0.000 A 
ATOM     28  C   UNL     1       3.862   3.737  17.222  0.00  0.00    +0.000 A 
ATOM     29  C   UNL     1       3.123   4.771  17.911  0.00  0.00    +0.000 A 
BRANCH  29  30
ATOM     30  C   UNL     1       2.035   4.274  18.729  0.00  0.00    +0.000 A 
ATOM     31  N   UNL     1       2.056   4.309  20.099  0.00  0.00    +0.000 NA
ATOM     32  N   UNL     1       1.036   3.572  20.516  0.00  0.00    +0.000 NA
ATOM     33  N   UNL     1       0.476   3.106  19.395  0.00  0.00    +0.000 N 
ATOM     34  N   UNL     1       1.060   3.475  18.249  0.00  0.00    +0.000 NA
ATOM     35  H   UNL     1      -0.335   2.495  19.413  0.00  0.00    +0.000 HD
ENDBRANCH  29  30
ENDBRANCH   7  24
TORSDOF 4
ENDMDL
MODEL 5
REMARK VINA RESULT:      -9.2      2.736      4.252
REMARK  Name = 
REMARK  7 active torsions:
REMARK  status: ('A' for Active; 'I' for Inactive)
REMARK    1  A    between atoms: C_1  and  C_2
REMARK    2  A    between atoms: C_2  and  C_3
REMARK    3  A    between atoms: C_6  and  C_7
REMARK    4  A    between atoms: C_9  and  C_10
REMARK    5  A    between atoms: N_13  and  C_14
REMARK    6  A    between atoms: C_20  and  C_21
REMARK    7  A    between atoms: C_26  and  C_27
REMARK                            x       y       z     vdW  Elec       q    Type
REMARK                         _______ _______ _______ _____ _____    ______ ____
ROOT
ATOM      1  C   UNL     1       0.547  10.895  19.622  0.00  0.00    +0.000 C 
ATOM      2  C   UNL     1      -0.705  10.372  20.336  0.00  0.00    +0.000 C 
ATOM      3  C   UNL     1      -0.487   9.180  21.276  0.00  0.00    +0.000 C 
ATOM      4  C   UNL     1       0.913   8.569  21.373  0.00  0.00    +0.000 C 
ATOM      5  C   UNL     1       1.648   8.584  20.066  0.00  0.00    +0.000 A 
ATOM      6  C   UNL     1       2.289   7.335  19.725  0.00  0.00    +0.000 A 
ATOM      7  C   UNL     1       2.423   6.830  18.425  0.00  0.00    +0.000 A 
ATOM      8  C   UNL     1       2.005   7.767  17.464  0.00  0.00    +0.000 A 
ATOM      9  C   UNL     1       1.537   9.133  17.819  0.00  0.00    +0.000 A 
ATOM     10  C   UNL     1       1.404   9.619  19.161  0.00  0.00    +0.000 A 
ENDROOT
BRANCH   1  21
ATOM     11  C   UNL     1       1.918  13.116  19.733  0.00  0.00    +0.000 A 
ATOM     12  N   UNL     1       2.107  14.206  20.437  0.00  0.00    +0.000 NA
ATOM     13  C   UNL     1       1.157  14.212  21.379  0.00  0.00    +0.000 A 
ATOM     14  C   UNL     1       0.913  15.269  22.282  0.00  0.00    +0.000 A 
ATOM     15  C   UNL     1       1.755  16.513  22.413  0.00  0.00    +0.000 C 
ATOM     16  C   UNL     1      -0.213  15.113  23.063  0.00  0.00    +0.000 A 
ATOM     17  C   UNL     1      -1.004  13.965  22.920  0.00  0.00    +0.000 A 
ATOM     18  C   UNL     1      -2.250  13.954  23.777  0.00  0.00    +0.000 C 
ATOM     19  N   UNL     1      -0.762  12.885  22.073  0.00  0.00    +0.000 NA
ATOM     20  C   UNL     1       0.363  13.047  21.321  0.00  0.00    +0.000 A 
ATOM     21  N   UNL     1       0.987  12.209  20.339  0.00  0.00    +0.000 N 
BRANCH  11  23
ATOM     22  C   UNL     1       3.216  14.409  18.100  0.00  0.00    +0.000 C 
ATOM     23  C   UNL     1       2.705  13.030  18.469  0.00  0.00    +0.000 C 
ENDBRANCH  11  23
ENDBRANCH   1  21
BRANCH   7  24
ATOM     24  C   UNL     1       2.816   5.332  18.274  0.00  0.00    +0.000 A 
ATOM     25  C   UNL     1       1.992   4.363  18.929  0.00  0.00    +0.000 A 
ATOM     26  C   UNL     1       2.313   2.993  19.098  0.00  0.00    +0.000 A 
ATOM     27  C   UNL     1       3.486   2.508  18.562  0.00  0.00    +0.000 A 
ATOM     28  C   UNL     1       4.298   3.363  17.851  0.00  0.00    +0.000 A 
ATOM     29  C   UNL     1       3.982   4.765  17.692  0.00  0.00    +0.000 A 
BRANCH  29  30
ATOM     30  C   UNL     1       4.950   5.504  16.908  0.00  0.00    +0.000 A 
ATOM     31  N   UNL     1       5.308   5.146  15.635  0.00  0.00    +0.000 NA
ATOM     32  N   UNL     1       6.366   5.878  15.314  0.00  0.00    +0.000 NA
ATOM     33  N   UNL     1       6.614   6.608  16.407  0.00  0.00    +0.000 N 
ATOM     34  N   UNL     1       5.796   6.408  17.446  0.00  0.00    +0.000 NA
ATOM     35  H   UNL     1       7.389   7.264  16.451  0.00  0.00    +0.000 HD
ENDBRANCH  29  30
ENDBRANCH   7  24
TORSDOF 4
ENDMDL
MODEL 6
REMARK VINA RESULT:      -9.1      1.331      2.903
REMARK  Name = 
REMARK  7 active torsions:
REMARK  status: ('A' for Active; 'I' for Inactive)
REMARK    1  A    between atoms: C_1  and  C_2
REMARK    2  A    between atoms: C_2  and  C_3
REMARK    3  A    between atoms: C_6  and  C_7
REMARK    4  A    between atoms: C_9  and  C_10
REMARK    5  A    between atoms: N_13  and  C_14
REMARK    6  A    between atoms: C_20  and  C_21
REMARK    7  A    between atoms: C_26  and  C_27
REMARK                            x       y       z     vdW  Elec       q    Type
REMARK                         _______ _______ _______ _____ _____    ______ ____
ROOT
ATOM      1  C   UNL     1      -0.167  11.360  21.318  0.00  0.00    +0.000 C 
ATOM      2  C   UNL     1       0.794  12.415  20.758  0.00  0.00    +0.000 C 
ATOM      3  C   UNL     1       1.257  12.193  19.313  0.00  0.00    +0.000 C 
ATOM      4  C   UNL     1       0.798  10.930  18.580  0.00  0.00    +0.000 C 
ATOM      5  C   UNL     1       0.697   9.736  19.482  0.00  0.00    +0.000 A 
ATOM      6  C   UNL     1       1.300   8.534  18.954  0.00  0.00    +0.000 A 
ATOM      7  C   UNL     1       1.951   7.559  19.722  0.00  0.00    +0.000 A 
ATOM      8  C   UNL     1       1.804   7.806  21.098  0.00  0.00    +0.000 A 
ATOM      9  C   UNL     1       1.005   8.938  21.634  0.00  0.00    +0.000 A 
ATOM     10  C   UNL     1       0.354   9.925  20.823  0.00  0.00    +0.000 A 
ENDROOT
BRANCH   1  21
ATOM     11  C   UNL     1      -1.954  13.051  22.197  0.00  0.00    +0.000 A 
ATOM     12  N   UNL     1      -3.171  13.498  22.000  0.00  0.00    +0.000 NA
ATOM     13  C   UNL     1      -3.588  12.954  20.851  0.00  0.00    +0.000 A 
ATOM     14  C   UNL     1      -4.799  13.264  20.197  0.00  0.00    +0.000 A 
ATOM     15  C   UNL     1      -5.876  14.168  20.741  0.00  0.00    +0.000 C 
ATOM     16  C   UNL     1      -4.946  12.688  18.951  0.00  0.00    +0.000 A 
ATOM     17  C   UNL     1      -3.931  11.867  18.441  0.00  0.00    +0.000 A 
ATOM     18  C   UNL     1      -4.181  11.364  17.036  0.00  0.00    +0.000 C 
ATOM     19  N   UNL     1      -2.749  11.506  19.084  0.00  0.00    +0.000 NA
ATOM     20  C   UNL     1      -2.627  12.069  20.319  0.00  0.00    +0.000 A 
ATOM     21  N   UNL     1      -1.600  11.976  21.316  0.00  0.00    +0.000 N 
BRANCH  11  23
ATOM     22  C   UNL     1      -1.151  15.218  23.022  0.00  0.00    +0.000 C 
ATOM     23  C   UNL     1      -1.197  13.726  23.290  0.00  0.00    +0.000 C 
ENDBRANCH  11  23
ENDBRANCH   1  21
BRANCH   7  24
ATOM     24  C   UNL     1       2.836   6.525  18.967  0.00  0.00    +0.000 A 
ATOM     25  C   UNL     1       3.690   7.019  17.931  0.00  0.00    +0.000 A 
ATOM     26  C   UNL     1       4.387   6.218  16.991  0.00  0.00    +0.000 A 
ATOM     27  C   UNL     1       4.293   4.846  17.079  0.00  0.00    +0.000 A 
ATOM     28  C   UNL     1       3.549   4.292  18.097  0.00  0.00    +0.000 A 
ATOM     29  C   UNL     1       2.824   5.107  19.046  0.00  0.00    +0.000 A 
BRANCH  29  30
ATOM     30  C   UNL     1       2.104   4.347  20.047  0.00  0.00    +0.000 A 
ATOM     31  N   UNL     1       2.638   4.028  21.268  0.00  0.00    +0.000 NA
ATOM     32  N   UNL     1       1.821   3.144  21.824  0.00  0.00    +0.000 NA
ATOM     33  N   UNL     1       0.863   2.949  20.911  0.00  0.00    +0.000 N 
ATOM     34  N   UNL     1       0.988   3.639  19.772  0.00  0.00    +0.000 NA
ATOM     35  H   UNL     1       0.094   2.304  21.068  0.00  0.00    +0.000 HD
ENDBRANCH  29  30
ENDBRANCH   7  24
TORSDOF 4
ENDMDL
MODEL 7
REMARK VINA RESULT:      -9.1      2.566      4.388
REMARK  Name = 
REMARK  7 active torsions:
REMARK  status: ('A' for Active; 'I' for Inactive)
REMARK    1  A    between atoms: C_1  and  C_2
REMARK    2  A    between atoms: C_2  and  C_3
REMARK    3  A    between atoms: C_6  and  C_7
REMARK    4  A    between atoms: C_9  and  C_10
REMARK    5  A    between atoms: N_13  and  C_14
REMARK    6  A    between atoms: C_20  and  C_21
REMARK    7  A    between atoms: C_26  and  C_27
REMARK                            x       y       z     vdW  Elec       q    Type
REMARK                         _______ _______ _______ _____ _____    ______ ____
ROOT
ATOM      1  C   UNL     1       1.023  10.946  19.310  0.00  0.00    +0.000 C 
ATOM      2  C   UNL     1      -0.499  10.780  19.392  0.00  0.00    +0.000 C 
ATOM      3  C   UNL     1      -1.004   9.789  20.447  0.00  0.00    +0.000 C 
ATOM      4  C   UNL     1       0.021   9.004  21.268  0.00  0.00    +0.000 C 
ATOM      5  C   UNL     1       1.243   8.636  20.478  0.00  0.00    +0.000 A 
ATOM      6  C   UNL     1       1.658   7.260  20.626  0.00  0.00    +0.000 A 
ATOM      7  C   UNL     1       2.236   6.484  19.612  0.00  0.00    +0.000 A 
ATOM      8  C   UNL     1       2.519   7.255  18.471  0.00  0.00    +0.000 A 
ATOM      9  C   UNL     1       2.273   8.720  18.406  0.00  0.00    +0.000 A 
ATOM     10  C   UNL     1       1.674   9.487  19.458  0.00  0.00    +0.000 A 
ENDROOT
BRANCH   1  21
ATOM     11  C   UNL     1       2.221  13.268  19.348  0.00  0.00    +0.000 A 
ATOM     12  N   UNL     1       2.355  14.376  20.038  0.00  0.00    +0.000 NA
ATOM     13  C   UNL     1       1.449  14.316  21.020  0.00  0.00    +0.000 A 
ATOM     14  C   UNL     1       1.162  15.360  21.927  0.00  0.00    +0.000 A 
ATOM     15  C   UNL     1       1.910  16.666  22.014  0.00  0.00    +0.000 C 
ATOM     16  C   UNL     1       0.086  15.123  22.757  0.00  0.00    +0.000 A 
ATOM     17  C   UNL     1      -0.618  13.916  22.655  0.00  0.00    +0.000 A 
ATOM     18  C   UNL     1      -1.822  13.817  23.566  0.00  0.00    +0.000 C 
ATOM     19  N   UNL     1      -0.330  12.851  21.804  0.00  0.00    +0.000 NA
ATOM     20  C   UNL     1       0.746  13.093  21.003  0.00  0.00    +0.000 A 
ATOM     21  N   UNL     1       1.390  12.297  19.999  0.00  0.00    +0.000 N 
BRANCH  11  23
ATOM     22  C   UNL     1       3.701  14.540  17.860  0.00  0.00    +0.000 C 
ATOM     23  C   UNL     1       2.958  13.232  18.052  0.00  0.00    +0.000 C 
ENDBRANCH  11  23
ENDBRANCH   1  21
BRANCH   7  24
ATOM     24  C   UNL     1       2.296   4.944  19.834  0.00  0.00    +0.000 A 
ATOM     25  C   UNL     1       1.202   4.334  20.524  0.00  0.00    +0.000 A 
ATOM     26  C   UNL     1       1.183   3.005  21.017  0.00  0.00    +0.000 A 
ATOM     27  C   UNL     1       2.271   2.191  20.793  0.00  0.00    +0.000 A 
ATOM     28  C   UNL     1       3.335   2.683  20.070  0.00  0.00    +0.000 A 
ATOM     29  C   UNL     1       3.364   4.043  19.581  0.00  0.00    +0.000 A 
BRANCH  29  30
ATOM     30  C   UNL     1       4.561   4.377  18.837  0.00  0.00    +0.000 A 
ATOM     31  N   UNL     1       4.573   4.534  17.476  0.00  0.00    +0.000 NA
ATOM     32  N   UNL     1       5.846   4.595  17.109  0.00  0.00    +0.000 NA
ATOM     33  N   UNL     1       6.533   4.439  18.246  0.00  0.00    +0.000 N 
ATOM     34  N   UNL     1       5.803   4.269  19.354  0.00  0.00    +0.000 NA
ATOM     35  H   UNL     1       7.548   4.435  18.265  0.00  0.00    +0.000 HD
ENDBRANCH  29  30
ENDBRANCH   7  24
TORSDOF 4
ENDMDL
MODEL 8
REMARK VINA RESULT:      -8.6      2.811      5.209
REMARK  Name = 
REMARK  7 active torsions:
REMARK  status: ('A' for Active; 'I' for Inactive)
REMARK    1  A    between atoms: C_1  and  C_2
REMARK    2  A    between atoms: C_2  and  C_3
REMARK    3  A    between atoms: C_6  and  C_7
REMARK    4  A    between atoms: C_9  and  C_10
REMARK    5  A    between atoms: N_13  and  C_14
REMARK    6  A    between atoms: C_20  and  C_21
REMARK    7  A    between atoms: C_26  and  C_27
REMARK                            x       y       z     vdW  Elec       q    Type
REMARK                         _______ _______ _______ _____ _____    ______ ____
ROOT
ATOM      1  C   UNL     1       0.936  11.122  18.893  0.00  0.00    +0.000 C 
ATOM      2  C   UNL     1      -0.581  10.901  18.908  0.00  0.00    +0.000 C 
ATOM      3  C   UNL     1      -1.104   9.949  19.990  0.00  0.00    +0.000 C 
ATOM      4  C   UNL     1      -0.095   9.250  20.903  0.00  0.00    +0.000 C 
ATOM      5  C   UNL     1       1.178   8.888  20.197  0.00  0.00    +0.000 A 
ATOM      6  C   UNL     1       1.635   7.539  20.441  0.00  0.00    +0.000 A 
ATOM      7  C   UNL     1       2.293   6.733  19.502  0.00  0.00    +0.000 A 
ATOM      8  C   UNL     1       2.606   7.453  18.336  0.00  0.00    +0.000 A 
ATOM      9  C   UNL     1       2.311   8.901  18.177  0.00  0.00    +0.000 A 
ATOM     10  C   UNL     1       1.630   9.700  19.154  0.00  0.00    +0.000 A 
ENDROOT
BRANCH   1  21
ATOM     11  C   UNL     1       0.721  12.870  20.823  0.00  0.00    +0.000 A 
ATOM     12  N   UNL     1       1.123  14.050  21.228  0.00  0.00    +0.000 NA
ATOM     13  C   UNL     1       2.083  14.430  20.378  0.00  0.00    +0.000 A 
ATOM     14  C   UNL     1       2.880  15.587  20.514  0.00  0.00    +0.000 A 
ATOM     15  C   UNL     1       2.703  16.646  21.572  0.00  0.00    +0.000 C 
ATOM     16  C   UNL     1       3.905  15.694  19.596  0.00  0.00    +0.000 A 
ATOM     17  C   UNL     1       4.078  14.694  18.629  0.00  0.00    +0.000 A 
ATOM     18  C   UNL     1       5.283  14.891  17.736  0.00  0.00    +0.000 C 
ATOM     19  N   UNL     1       3.280  13.568  18.441  0.00  0.00    +0.000 NA
ATOM     20  C   UNL     1       2.263  13.486  19.345  0.00  0.00    +0.000 A 
ATOM     21  N   UNL     1       1.217  12.521  19.524  0.00  0.00    +0.000 N 
BRANCH  11  23
ATOM     22  C   UNL     1      -0.970  13.143  22.582  0.00  0.00    +0.000 C 
ATOM     23  C   UNL     1      -0.170  12.141  21.772  0.00  0.00    +0.000 C 
ENDBRANCH  11  23
ENDBRANCH   1  21
BRANCH   7  24
ATOM     24  C   UNL     1       2.397   5.211  19.811  0.00  0.00    +0.000 A 
ATOM     25  C   UNL     1       1.279   4.589  20.452  0.00  0.00    +0.000 A 
ATOM     26  C   UNL     1       1.275   3.288  21.014  0.00  0.00    +0.000 A 
ATOM     27  C   UNL     1       2.409   2.512  20.916  0.00  0.00    +0.000 A 
ATOM     28  C   UNL     1       3.504   3.012  20.247  0.00  0.00    +0.000 A 
ATOM     29  C   UNL     1       3.516   4.345  19.687  0.00  0.00    +0.000 A 
BRANCH  29  30
ATOM     30  C   UNL     1       4.752   4.693  19.016  0.00  0.00    +0.000 A 
ATOM     31  N   UNL     1       4.913   4.606  17.658  0.00  0.00    +0.000 NA
ATOM     32  N   UNL     1       6.207   4.763  17.415  0.00  0.00    +0.000 NA
ATOM     33  N   UNL     1       6.762   4.902  18.624  0.00  0.00    +0.000 N 
ATOM     34  N   UNL     1       5.926   4.839  19.666  0.00  0.00    +0.000 NA
ATOM     35  H   UNL     1       7.763   5.031  18.744  0.00  0.00    +0.000 HD
ENDBRANCH  29  30
ENDBRANCH   7  24
TORSDOF 4
ENDMDL
MODEL 9
REMARK VINA RESULT:      -8.5      2.886      5.053
REMARK  Name = 
REMARK  7 active torsions:
REMARK  status: ('A' for Active; 'I' for Inactive)
REMARK    1  A    between atoms: C_1  and  C_2
REMARK    2  A    between atoms: C_2  and  C_3
REMARK    3  A    between atoms: C_6  and  C_7
REMARK    4  A    between atoms: C_9  and  C_10
REMARK    5  A    between atoms: N_13  and  C_14
REMARK    6  A    between atoms: C_20  and  C_21
REMARK    7  A    between atoms: C_26  and  C_27
REMARK                            x       y       z     vdW  Elec       q    Type
REMARK                         _______ _______ _______ _____ _____    ______ ____
ROOT
ATOM      1  C   UNL     1       0.602  10.826  19.221  0.00  0.00    +0.000 C 
ATOM      2  C   UNL     1      -0.785  10.353  19.671  0.00  0.00    +0.000 C 
ATOM      3  C   UNL     1      -0.799   9.243  20.729  0.00  0.00    +0.000 C 
ATOM      4  C   UNL     1       0.535   8.653  21.192  0.00  0.00    +0.000 C 
ATOM      5  C   UNL     1       1.549   8.567  20.089  0.00  0.00    +0.000 A 
ATOM      6  C   UNL     1       2.237   7.300  20.005  0.00  0.00    +0.000 A 
ATOM      7  C   UNL     1       2.658   6.693  18.814  0.00  0.00    +0.000 A 
ATOM      8  C   UNL     1       2.479   7.546  17.711  0.00  0.00    +0.000 A 
ATOM      9  C   UNL     1       1.958   8.932  17.838  0.00  0.00    +0.000 A 
ATOM     10  C   UNL     1       1.528   9.524  19.072  0.00  0.00    +0.000 A 
ENDROOT
BRANCH   1  21
ATOM     11  C   UNL     1       0.460  12.459  21.256  0.00  0.00    +0.000 A 
ATOM     12  N   UNL     1       0.852  13.629  21.701  0.00  0.00    +0.000 NA
ATOM     13  C   UNL     1       1.745  14.084  20.816  0.00  0.00    +0.000 A 
ATOM     14  C   UNL     1       2.514  15.258  20.967  0.00  0.00    +0.000 A 
ATOM     15  C   UNL     1       2.373  16.252  22.091  0.00  0.00    +0.000 C 
ATOM     16  C   UNL     1       3.475  15.448  19.994  0.00  0.00    +0.000 A 
ATOM     17  C   UNL     1       3.616  14.508  18.964  0.00  0.00    +0.000 A 
ATOM     18  C   UNL     1       4.756  14.793  18.011  0.00  0.00    +0.000 C 
ATOM     19  N   UNL     1       2.841  13.368  18.764  0.00  0.00    +0.000 NA
ATOM     20  C   UNL     1       1.886  13.204  19.722  0.00  0.00    +0.000 A 
ATOM     21  N   UNL     1       0.882  12.198  19.911  0.00  0.00    +0.000 N 
BRANCH  11  23
ATOM     22  C   UNL     1      -1.395  12.536  22.862  0.00  0.00    +0.000 C 
ATOM     23  C   UNL     1      -0.347  11.651  22.216  0.00  0.00    +0.000 C 
ENDBRANCH  11  23
ENDBRANCH   1  21
BRANCH   7  24
ATOM     24  C   UNL     1       3.059   5.190  18.877  0.00  0.00    +0.000 A 
ATOM     25  C   UNL     1       2.004   4.228  18.971  0.00  0.00    +0.000 A 
ATOM     26  C   UNL     1       2.173   2.852  19.267  0.00  0.00    +0.000 A 
ATOM     27  C   UNL     1       3.445   2.355  19.442  0.00  0.00    +0.000 A 
ATOM     28  C   UNL     1       4.519   3.204  19.293  0.00  0.00    +0.000 A 
ATOM     29  C   UNL     1       4.350   4.611  19.008  0.00  0.00    +0.000 A 
BRANCH  29  30
ATOM     30  C   UNL     1       5.594   5.342  18.881  0.00  0.00    +0.000 A 
ATOM     31  N   UNL     1       5.970   5.979  17.727  0.00  0.00    +0.000 NA
ATOM     32  N   UNL     1       7.239   6.331  17.880  0.00  0.00    +0.000 NA
ATOM     33  N   UNL     1       7.574   5.867  19.089  0.00  0.00    +0.000 N 
ATOM     34  N   UNL     1       6.613   5.217  19.756  0.00  0.00    +0.000 NA
ATOM     35  H   UNL     1       8.507   5.988  19.471  0.00  0.00    +0.000 HD
ENDBRANCH  29  30
ENDBRANCH   7  24
TORSDOF 4
ENDMDL
