MODEL 1
REMARK VINA RESULT:      -6.6      0.000      0.000
REMARK  Name = 
REMARK  10 active torsions:
REMARK  status: ('A' for Active; 'I' for Inactive)
REMARK    1  A    between atoms: C_1  and  C_2
REMARK    2  A    between atoms: C_2  and  C_3
REMARK    3  A    between atoms: C_3  and  C_4
REMARK    4  A    between atoms: C_4  and  O_5
REMARK    5  A    between atoms: O_5  and  C_6
REMARK    6  A    between atoms: C_9  and  C_10
REMARK    7  A    between atoms: C_10  and  N_12
REMARK    8  A    between atoms: N_17  and  C_18
REMARK    9  A    between atoms: C_20  and  O_21
REMARK   10  A    between atoms: O_21  and  C_22
REMARK                            x       y       z     vdW  Elec       q    Type
REMARK                         _______ _______ _______ _____ _____    ______ ____
ROOT
ATOM      1  C   UNL     1       1.123   9.403  19.039  0.00  0.00    +0.000 A 
ATOM      2  C   UNL     1       1.732   8.823  17.899  0.00  0.00    +0.000 A 
ATOM      3  C   UNL     1       2.460   7.626  17.954  0.00  0.00    +0.000 A 
ATOM      4  C   UNL     1       2.563   6.954  19.165  0.00  0.00    +0.000 A 
ATOM      5  C   UNL     1       1.964   7.512  20.296  0.00  0.00    +0.000 A 
ATOM      6  C   UNL     1       1.250   8.734  20.267  0.00  0.00    +0.000 A 
ENDROOT
BRANCH   4   7
ATOM      7  C   UNL     1       3.314   5.665  19.303  0.00  0.00    +0.000 C 
ATOM      8  O   UNL     1       2.678   4.641  19.534  0.00  0.00    +0.000 OA
BRANCH   7   9
ATOM      9  N   UNL     1       4.679   5.768  19.297  0.00  0.00    +0.000 NA
ATOM     10  C   UNL     1       5.379   5.287  18.308  0.00  0.00    +0.000 A 
ATOM     11  S   UNL     1       4.752   4.625  16.758  0.00  0.00    +0.000 S 
ATOM     12  C   UNL     1       6.367   4.256  16.212  0.00  0.00    +0.000 A 
ATOM     13  C   UNL     1       7.277   4.631  17.117  0.00  0.00    +0.000 A 
ATOM     14  N   UNL     1       6.769   5.216  18.262  0.00  0.00    +0.000 N 
ATOM     15  C   UNL     1       7.576   5.623  19.391  0.00  0.00    +0.000 C 
ENDBRANCH   7   9
ENDBRANCH   4   7
BRANCH   6  16
ATOM     16  O   UNL     1       0.884   9.052  21.542  0.00  0.00    +0.000 OA
ATOM     17  C   UNL     1      -0.378   8.748  22.091  0.00  0.00    +0.000 C 
ENDBRANCH   6  16
BRANCH   1  18
ATOM     18  O   UNL     1       0.503  10.574  18.682  0.00  0.00    +0.000 OA
BRANCH  18  19
ATOM     19  C   UNL     1      -0.865  10.745  18.991  0.00  0.00    +0.000 C 
BRANCH  19  20
ATOM     20  C   UNL     1      -1.701  11.131  17.772  0.00  0.00    +0.000 C 
BRANCH  20  22
ATOM     21  C   UNL     1      -2.766   9.895  15.818  0.00  0.00    +0.000 C 
ATOM     22  C   UNL     1      -2.469   9.889  17.304  0.00  0.00    +0.000 C 
ENDBRANCH  20  22
ENDBRANCH  19  20
ENDBRANCH  18  19
ENDBRANCH   1  18
TORSDOF 7
ENDMDL
MODEL 2
REMARK VINA RESULT:      -6.5      3.775      6.923
REMARK  Name = 
REMARK  10 active torsions:
REMARK  status: ('A' for Active; 'I' for Inactive)
REMARK    1  A    between atoms: C_1  and  C_2
REMARK    2  A    between atoms: C_2  and  C_3
REMARK    3  A    between atoms: C_3  and  C_4
REMARK    4  A    between atoms: C_4  and  O_5
REMARK    5  A    between atoms: O_5  and  C_6
REMARK    6  A    between atoms: C_9  and  C_10
REMARK    7  A    between atoms: C_10  and  N_12
REMARK    8  A    between atoms: N_17  and  C_18
REMARK    9  A    between atoms: C_20  and  O_21
REMARK   10  A    between atoms: O_21  and  C_22
REMARK                            x       y       z     vdW  Elec       q    Type
REMARK                         _______ _______ _______ _____ _____    ______ ____
ROOT
ATOM      1  C   UNL     1       6.099   6.035  16.668  0.00  0.00    +0.000 A 
ATOM      2  C   UNL     1       4.875   6.647  16.306  0.00  0.00    +0.000 A 
ATOM      3  C   UNL     1       3.788   6.752  17.185  0.00  0.00    +0.000 A 
ATOM      4  C   UNL     1       3.920   6.271  18.481  0.00  0.00    +0.000 A 
ATOM      5  C   UNL     1       5.124   5.668  18.854  0.00  0.00    +0.000 A 
ATOM      6  C   UNL     1       6.222   5.526  17.971  0.00  0.00    +0.000 A 
ENDROOT
BRANCH   4   7
ATOM      7  C   UNL     1       2.810   6.355  19.483  0.00  0.00    +0.000 C 
ATOM      8  O   UNL     1       2.226   7.425  19.617  0.00  0.00    +0.000 OA
BRANCH   7   9
ATOM      9  N   UNL     1       2.636   5.249  20.272  0.00  0.00    +0.000 NA
ATOM     10  C   UNL     1       2.034   4.189  19.809  0.00  0.00    +0.000 A 
ATOM     11  S   UNL     1       1.531   3.885  18.110  0.00  0.00    +0.000 S 
ATOM     12  C   UNL     1       0.849   2.339  18.544  0.00  0.00    +0.000 A 
ATOM     13  C   UNL     1       1.022   2.086  19.846  0.00  0.00    +0.000 A 
ATOM     14  N   UNL     1       1.684   3.069  20.557  0.00  0.00    +0.000 N 
ATOM     15  C   UNL     1       1.907   3.024  21.986  0.00  0.00    +0.000 C 
ENDBRANCH   7   9
ENDBRANCH   4   7
BRANCH   6  16
ATOM     16  O   UNL     1       7.195   4.809  18.603  0.00  0.00    +0.000 OA
ATOM     17  C   UNL     1       8.193   5.389  19.410  0.00  0.00    +0.000 C 
ENDBRANCH   6  16
BRANCH   1  18
ATOM     18  O   UNL     1       6.961   6.063  15.600  0.00  0.00    +0.000 OA
BRANCH  18  19
ATOM     19  C   UNL     1       7.344   4.844  14.999  0.00  0.00    +0.000 C 
BRANCH  19  20
ATOM     20  C   UNL     1       6.184   3.858  14.874  0.00  0.00    +0.000 C 
BRANCH  20  22
ATOM     21  C   UNL     1       6.249   3.430  12.365  0.00  0.00    +0.000 C 
ATOM     22  C   UNL     1       5.509   4.081  13.516  0.00  0.00    +0.000 C 
ENDBRANCH  20  22
ENDBRANCH  19  20
ENDBRANCH  18  19
ENDBRANCH   1  18
TORSDOF 7
ENDMDL
MODEL 3
REMARK VINA RESULT:      -6.2      4.292      7.475
REMARK  Name = 
REMARK  10 active torsions:
REMARK  status: ('A' for Active; 'I' for Inactive)
REMARK    1  A    between atoms: C_1  and  C_2
REMARK    2  A    between atoms: C_2  and  C_3
REMARK    3  A    between atoms: C_3  and  C_4
REMARK    4  A    between atoms: C_4  and  O_5
REMARK    5  A    between atoms: O_5  and  C_6
REMARK    6  A    between atoms: C_9  and  C_10
REMARK    7  A    between atoms: C_10  and  N_12
REMARK    8  A    between atoms: N_17  and  C_18
REMARK    9  A    between atoms: C_20  and  O_21
REMARK   10  A    between atoms: O_21  and  C_22
REMARK                            x       y       z     vdW  Elec       q    Type
REMARK                         _______ _______ _______ _____ _____    ______ ____
ROOT
ATOM      1  C   UNL     1       6.591   5.447  15.639  0.00  0.00    +0.000 A 
ATOM      2  C   UNL     1       5.396   4.687  15.650  0.00  0.00    +0.000 A 
ATOM      3  C   UNL     1       4.437   4.794  16.667  0.00  0.00    +0.000 A 
ATOM      4  C   UNL     1       4.640   5.708  17.692  0.00  0.00    +0.000 A 
ATOM      5  C   UNL     1       5.812   6.468  17.692  0.00  0.00    +0.000 A 
ATOM      6  C   UNL     1       6.806   6.353  16.690  0.00  0.00    +0.000 A 
ENDROOT
BRANCH   4   7
ATOM      7  C   UNL     1       3.657   5.890  18.808  0.00  0.00    +0.000 C 
ATOM      8  O   UNL     1       3.165   7.000  18.976  0.00  0.00    +0.000 OA
BRANCH   7   9
ATOM      9  N   UNL     1       3.500   4.815  19.642  0.00  0.00    +0.000 NA
ATOM     10  C   UNL     1       2.540   3.956  19.447  0.00  0.00    +0.000 A 
ATOM     11  S   UNL     1       1.431   3.874  18.034  0.00  0.00    +0.000 S 
ATOM     12  C   UNL     1       0.585   2.513  18.722  0.00  0.00    +0.000 A 
ATOM     13  C   UNL     1       1.123   2.154  19.893  0.00  0.00    +0.000 A 
ATOM     14  N   UNL     1       2.205   2.911  20.303  0.00  0.00    +0.000 N 
ATOM     15  C   UNL     1       2.883   2.735  21.570  0.00  0.00    +0.000 C 
ENDBRANCH   7   9
ENDBRANCH   4   7
BRANCH   6  16
ATOM     16  O   UNL     1       7.860   7.147  17.033  0.00  0.00    +0.000 OA
ATOM     17  C   UNL     1       7.721   8.401  17.662  0.00  0.00    +0.000 C 
ENDBRANCH   6  16
BRANCH   1  18
ATOM     18  O   UNL     1       7.338   5.113  14.537  0.00  0.00    +0.000 OA
BRANCH  18  19
ATOM     19  C   UNL     1       6.853   4.119  13.658  0.00  0.00    +0.000 C 
BRANCH  19  20
ATOM     20  C   UNL     1       7.315   4.329  12.218  0.00  0.00    +0.000 C 
BRANCH  20  22
ATOM     21  C   UNL     1       5.537   2.562  11.777  0.00  0.00    +0.000 C 
ATOM     22  C   UNL     1       6.900   3.103  11.396  0.00  0.00    +0.000 C 
ENDBRANCH  20  22
ENDBRANCH  19  20
ENDBRANCH  18  19
ENDBRANCH   1  18
TORSDOF 7
ENDMDL
MODEL 4
REMARK VINA RESULT:      -6.2      4.869      7.451
REMARK  Name = 
REMARK  10 active torsions:
REMARK  status: ('A' for Active; 'I' for Inactive)
REMARK    1  A    between atoms: C_1  and  C_2
REMARK    2  A    between atoms: C_2  and  C_3
REMARK    3  A    between atoms: C_3  and  C_4
REMARK    4  A    between atoms: C_4  and  O_5
REMARK    5  A    between atoms: O_5  and  C_6
REMARK    6  A    between atoms: C_9  and  C_10
REMARK    7  A    between atoms: C_10  and  N_12
REMARK    8  A    between atoms: N_17  and  C_18
REMARK    9  A    between atoms: C_20  and  O_21
REMARK   10  A    between atoms: O_21  and  C_22
REMARK                            x       y       z     vdW  Elec       q    Type
REMARK                         _______ _______ _______ _____ _____    ______ ____
ROOT
ATOM      1  C   UNL     1       6.774   6.723  16.779  0.00  0.00    +0.000 A 
ATOM      2  C   UNL     1       5.698   7.055  17.637  0.00  0.00    +0.000 A 
ATOM      3  C   UNL     1       4.580   6.227  17.810  0.00  0.00    +0.000 A 
ATOM      4  C   UNL     1       4.534   5.009  17.145  0.00  0.00    +0.000 A 
ATOM      5  C   UNL     1       5.590   4.666  16.298  0.00  0.00    +0.000 A 
ATOM      6  C   UNL     1       6.713   5.502  16.087  0.00  0.00    +0.000 A 
ENDROOT
BRANCH   4   7
ATOM      7  C   UNL     1       3.380   4.064  17.286  0.00  0.00    +0.000 C 
ATOM      8  O   UNL     1       3.167   3.264  16.381  0.00  0.00    +0.000 OA
BRANCH   7   9
ATOM      9  N   UNL     1       2.567   4.276  18.367  0.00  0.00    +0.000 NA
ATOM     10  C   UNL     1       2.725   3.587  19.463  0.00  0.00    +0.000 A 
ATOM     11  S   UNL     1       4.065   2.452  19.845  0.00  0.00    +0.000 S 
ATOM     12  C   UNL     1       3.362   2.075  21.397  0.00  0.00    +0.000 A 
ATOM     13  C   UNL     1       2.238   2.773  21.597  0.00  0.00    +0.000 A 
ATOM     14  N   UNL     1       1.877   3.622  20.567  0.00  0.00    +0.000 N 
ATOM     15  C   UNL     1       0.662   4.407  20.553  0.00  0.00    +0.000 C 
ENDBRANCH   7   9
ENDBRANCH   4   7
BRANCH   6  16
ATOM     16  O   UNL     1       7.505   4.932  15.134  0.00  0.00    +0.000 OA
ATOM     17  C   UNL     1       7.024   4.477  13.890  0.00  0.00    +0.000 C 
ENDBRANCH   6  16
BRANCH   1  18
ATOM     18  O   UNL     1       7.706   7.730  16.800  0.00  0.00    +0.000 OA
BRANCH  18  19
ATOM     19  C   UNL     1       8.174   8.202  18.046  0.00  0.00    +0.000 C 
BRANCH  19  20
ATOM     20  C   UNL     1       8.387   9.715  18.060  0.00  0.00    +0.000 C 
BRANCH  20  22
ATOM     21  C   UNL     1      10.233  11.187  19.011  0.00  0.00    +0.000 C 
ATOM     22  C   UNL     1       9.247  10.067  19.279  0.00  0.00    +0.000 C 
ENDBRANCH  20  22
ENDBRANCH  19  20
ENDBRANCH  18  19
ENDBRANCH   1  18
TORSDOF 7
ENDMDL
MODEL 5
REMARK VINA RESULT:      -6.1      4.034      7.932
REMARK  Name = 
REMARK  10 active torsions:
REMARK  status: ('A' for Active; 'I' for Inactive)
REMARK    1  A    between atoms: C_1  and  C_2
REMARK    2  A    between atoms: C_2  and  C_3
REMARK    3  A    between atoms: C_3  and  C_4
REMARK    4  A    between atoms: C_4  and  O_5
REMARK    5  A    between atoms: O_5  and  C_6
REMARK    6  A    between atoms: C_9  and  C_10
REMARK    7  A    between atoms: C_10  and  N_12
REMARK    8  A    between atoms: N_17  and  C_18
REMARK    9  A    between atoms: C_20  and  O_21
REMARK   10  A    between atoms: O_21  and  C_22
REMARK                            x       y       z     vdW  Elec       q    Type
REMARK                         _______ _______ _______ _____ _____    ______ ____
ROOT
ATOM      1  C   UNL     1       6.266   3.910  14.073  0.00  0.00    +0.000 A 
ATOM      2  C   UNL     1       5.360   3.309  14.981  0.00  0.00    +0.000 A 
ATOM      3  C   UNL     1       5.288   3.670  16.334  0.00  0.00    +0.000 A 
ATOM      4  C   UNL     1       6.111   4.684  16.806  0.00  0.00    +0.000 A 
ATOM      5  C   UNL     1       7.006   5.289  15.921  0.00  0.00    +0.000 A 
ATOM      6  C   UNL     1       7.114   4.918  14.558  0.00  0.00    +0.000 A 
ENDROOT
BRANCH   4   7
ATOM      7  C   UNL     1       6.086   5.134  18.234  0.00  0.00    +0.000 C 
ATOM      8  O   UNL     1       6.985   4.759  18.980  0.00  0.00    +0.000 OA
BRANCH   7   9
ATOM      9  N   UNL     1       4.967   5.822  18.622  0.00  0.00    +0.000 NA
ATOM     10  C   UNL     1       3.971   5.205  19.192  0.00  0.00    +0.000 A 
ATOM     11  S   UNL     1       3.930   3.495  19.745  0.00  0.00    +0.000 S 
ATOM     12  C   UNL     1       2.277   3.661  20.278  0.00  0.00    +0.000 A 
ATOM     13  C   UNL     1       1.829   4.904  20.073  0.00  0.00    +0.000 A 
ATOM     14  N   UNL     1       2.739   5.774  19.501  0.00  0.00    +0.000 N 
ATOM     15  C   UNL     1       2.431   7.139  19.130  0.00  0.00    +0.000 C 
ENDBRANCH   7   9
ENDBRANCH   4   7
BRANCH   6  16
ATOM     16  O   UNL     1       8.143   5.618  13.999  0.00  0.00    +0.000 OA
ATOM     17  C   UNL     1       8.331   5.750  12.609  0.00  0.00    +0.000 C 
ENDBRANCH   6  16
BRANCH   1  18
ATOM     18  O   UNL     1       6.119   3.340  12.833  0.00  0.00    +0.000 OA
BRANCH  18  19
ATOM     19  C   UNL     1       5.288   3.974  11.884  0.00  0.00    +0.000 C 
BRANCH  19  20
ATOM     20  C   UNL     1       3.922   3.302  11.754  0.00  0.00    +0.000 C 
BRANCH  20  22
ATOM     21  C   UNL     1       2.877   4.371   9.694  0.00  0.00    +0.000 C 
ATOM     22  C   UNL     1       3.595   3.163  10.263  0.00  0.00    +0.000 C 
ENDBRANCH  20  22
ENDBRANCH  19  20
ENDBRANCH  18  19
ENDBRANCH   1  18
TORSDOF 7
ENDMDL
MODEL 6
REMARK VINA RESULT:      -6.1      3.434      7.483
REMARK  Name = 
REMARK  10 active torsions:
REMARK  status: ('A' for Active; 'I' for Inactive)
REMARK    1  A    between atoms: C_1  and  C_2
REMARK    2  A    between atoms: C_2  and  C_3
REMARK    3  A    between atoms: C_3  and  C_4
REMARK    4  A    between atoms: C_4  and  O_5
REMARK    5  A    between atoms: O_5  and  C_6
REMARK    6  A    between atoms: C_9  and  C_10
REMARK    7  A    between atoms: C_10  and  N_12
REMARK    8  A    between atoms: N_17  and  C_18
REMARK    9  A    between atoms: C_20  and  O_21
REMARK   10  A    between atoms: O_21  and  C_22
REMARK                            x       y       z     vdW  Elec       q    Type
REMARK                         _______ _______ _______ _____ _____    ______ ____
ROOT
ATOM      1  C   UNL     1       2.764   5.677  19.749  0.00  0.00    +0.000 A 
ATOM      2  C   UNL     1       2.041   6.540  20.609  0.00  0.00    +0.000 A 
ATOM      3  C   UNL     1       1.656   7.835  20.236  0.00  0.00    +0.000 A 
ATOM      4  C   UNL     1       1.958   8.288  18.958  0.00  0.00    +0.000 A 
ATOM      5  C   UNL     1       2.666   7.445  18.098  0.00  0.00    +0.000 A 
ATOM      6  C   UNL     1       3.091   6.146  18.466  0.00  0.00    +0.000 A 
ENDROOT
BRANCH   4   7
ATOM      7  C   UNL     1       1.571   9.653  18.480  0.00  0.00    +0.000 C 
ATOM      8  O   UNL     1       1.966  10.020  17.378  0.00  0.00    +0.000 OA
BRANCH   7   9
ATOM      9  N   UNL     1       0.917  10.439  19.392  0.00  0.00    +0.000 NA
ATOM     10  C   UNL     1      -0.308  10.831  19.175  0.00  0.00    +0.000 A 
ATOM     11  S   UNL     1      -1.396  10.299  17.846  0.00  0.00    +0.000 S 
ATOM     12  C   UNL     1      -2.665  11.358  18.403  0.00  0.00    +0.000 A 
ATOM     13  C   UNL     1      -2.291  12.018  19.505  0.00  0.00    +0.000 A 
ATOM     14  N   UNL     1      -1.017  11.735  19.961  0.00  0.00    +0.000 N 
ATOM     15  C   UNL     1      -0.395  12.393  21.090  0.00  0.00    +0.000 C 
ENDBRANCH   7   9
ENDBRANCH   4   7
BRANCH   6  16
ATOM     16  O   UNL     1       3.841   5.631  17.450  0.00  0.00    +0.000 OA
ATOM     17  C   UNL     1       4.863   4.679  17.639  0.00  0.00    +0.000 C 
ENDBRANCH   6  16
BRANCH   1  18
ATOM     18  O   UNL     1       3.015   4.492  20.393  0.00  0.00    +0.000 OA
BRANCH  18  19
ATOM     19  C   UNL     1       2.114   4.050  21.388  0.00  0.00    +0.000 C 
BRANCH  19  20
ATOM     20  C   UNL     1       1.422   2.740  21.017  0.00  0.00    +0.000 C 
BRANCH  20  22
ATOM     21  C   UNL     1       1.441   2.318  18.507  0.00  0.00    +0.000 C 
ATOM     22  C   UNL     1       0.704   2.937  19.677  0.00  0.00    +0.000 C 
ENDBRANCH  20  22
ENDBRANCH  19  20
ENDBRANCH  18  19
ENDBRANCH   1  18
TORSDOF 7
ENDMDL
MODEL 7
REMARK VINA RESULT:      -6.1      4.077      7.387
REMARK  Name = 
REMARK  10 active torsions:
REMARK  status: ('A' for Active; 'I' for Inactive)
REMARK    1  A    between atoms: C_1  and  C_2
REMARK    2  A    between atoms: C_2  and  C_3
REMARK    3  A    between atoms: C_3  and  C_4
REMARK    4  A    between atoms: C_4  and  O_5
REMARK    5  A    between atoms: O_5  and  C_6
REMARK    6  A    between atoms: C_9  and  C_10
REMARK    7  A    between atoms: C_10  and  N_12
REMARK    8  A    between atoms: N_17  and  C_18
REMARK    9  A    between atoms: C_20  and  O_21
REMARK   10  A    between atoms: O_21  and  C_22
REMARK                            x       y       z     vdW  Elec       q    Type
REMARK                         _______ _______ _______ _____ _____    ______ ____
ROOT
ATOM      1  C   UNL     1       6.318   5.444  16.137  0.00  0.00    +0.000 A 
ATOM      2  C   UNL     1       5.395   4.374  16.234  0.00  0.00    +0.000 A 
ATOM      3  C   UNL     1       4.164   4.491  16.894  0.00  0.00    +0.000 A 
ATOM      4  C   UNL     1       3.808   5.714  17.447  0.00  0.00    +0.000 A 
ATOM      5  C   UNL     1       4.706   6.779  17.354  0.00  0.00    +0.000 A 
ATOM      6  C   UNL     1       5.967   6.673  16.719  0.00  0.00    +0.000 A 
ENDROOT
BRANCH   4   7
ATOM      7  C   UNL     1       2.506   5.922  18.157  0.00  0.00    +0.000 C 
ATOM      8  O   UNL     1       2.258   7.036  18.607  0.00  0.00    +0.000 OA
BRANCH   7   9
ATOM      9  N   UNL     1       1.757   4.795  18.368  0.00  0.00    +0.000 NA
ATOM     10  C   UNL     1       1.786   4.182  19.518  0.00  0.00    +0.000 A 
ATOM     11  S   UNL     1       2.582   4.748  21.028  0.00  0.00    +0.000 S 
ATOM     12  C   UNL     1       2.097   3.304  21.877  0.00  0.00    +0.000 A 
ATOM     13  C   UNL     1       1.380   2.498  21.085  0.00  0.00    +0.000 A 
ATOM     14  N   UNL     1       1.176   2.962  19.799  0.00  0.00    +0.000 N 
ATOM     15  C   UNL     1       0.493   2.212  18.766  0.00  0.00    +0.000 C 
ENDBRANCH   7   9
ENDBRANCH   4   7
BRANCH   6  16
ATOM     16  O   UNL     1       6.639   7.847  16.891  0.00  0.00    +0.000 OA
ATOM     17  C   UNL     1       7.817   7.967  17.655  0.00  0.00    +0.000 C 
ENDBRANCH   6  16
BRANCH   1  18
ATOM     18  O   UNL     1       7.435   5.027  15.457  0.00  0.00    +0.000 OA
BRANCH  18  19
ATOM     19  C   UNL     1       7.289   4.082  14.417  0.00  0.00    +0.000 C 
BRANCH  19  20
ATOM     20  C   UNL     1       6.685   4.686  13.151  0.00  0.00    +0.000 C 
BRANCH  20  22
ATOM     21  C   UNL     1       6.190   2.588  11.799  0.00  0.00    +0.000 C 
ATOM     22  C   UNL     1       5.616   3.724  12.622  0.00  0.00    +0.000 C 
ENDBRANCH  20  22
ENDBRANCH  19  20
ENDBRANCH  18  19
ENDBRANCH   1  18
TORSDOF 7
ENDMDL
MODEL 8
REMARK VINA RESULT:      -6.1      2.240      3.563
REMARK  Name = 
REMARK  10 active torsions:
REMARK  status: ('A' for Active; 'I' for Inactive)
REMARK    1  A    between atoms: C_1  and  C_2
REMARK    2  A    between atoms: C_2  and  C_3
REMARK    3  A    between atoms: C_3  and  C_4
REMARK    4  A    between atoms: C_4  and  O_5
REMARK    5  A    between atoms: O_5  and  C_6
REMARK    6  A    between atoms: C_9  and  C_10
REMARK    7  A    between atoms: C_10  and  N_12
REMARK    8  A    between atoms: N_17  and  C_18
REMARK    9  A    between atoms: C_20  and  O_21
REMARK   10  A    between atoms: O_21  and  C_22
REMARK                            x       y       z     vdW  Elec       q    Type
REMARK                         _______ _______ _______ _____ _____    ______ ____
ROOT
ATOM      1  C   UNL     1       1.924   7.497  20.069  0.00  0.00    +0.000 A 
ATOM      2  C   UNL     1       1.818   6.207  20.645  0.00  0.00    +0.000 A 
ATOM      3  C   UNL     1       2.078   5.031  19.927  0.00  0.00    +0.000 A 
ATOM      4  C   UNL     1       2.493   5.125  18.605  0.00  0.00    +0.000 A 
ATOM      5  C   UNL     1       2.606   6.391  18.025  0.00  0.00    +0.000 A 
ATOM      6  C   UNL     1       2.319   7.588  18.724  0.00  0.00    +0.000 A 
ENDROOT
BRANCH   4   7
ATOM      7  C   UNL     1       2.799   3.917  17.775  0.00  0.00    +0.000 C 
ATOM      8  O   UNL     1       2.313   2.841  18.108  0.00  0.00    +0.000 OA
BRANCH   7   9
ATOM      9  N   UNL     1       3.725   4.097  16.781  0.00  0.00    +0.000 NA
ATOM     10  C   UNL     1       4.976   4.323  17.070  0.00  0.00    +0.000 A 
ATOM     11  S   UNL     1       5.744   4.243  18.694  0.00  0.00    +0.000 S 
ATOM     12  C   UNL     1       7.289   4.711  18.034  0.00  0.00    +0.000 A 
ATOM     13  C   UNL     1       7.215   4.879  16.709  0.00  0.00    +0.000 A 
ATOM     14  N   UNL     1       5.970   4.653  16.153  0.00  0.00    +0.000 N 
ATOM     15  C   UNL     1       5.659   4.851  14.753  0.00  0.00    +0.000 C 
ENDBRANCH   7   9
ENDBRANCH   4   7
BRANCH   6  16
ATOM     16  O   UNL     1       2.424   8.634  17.855  0.00  0.00    +0.000 OA
ATOM     17  C   UNL     1       1.607   9.780  17.909  0.00  0.00    +0.000 C 
ENDBRANCH   6  16
BRANCH   1  18
ATOM     18  O   UNL     1       1.591   8.445  21.003  0.00  0.00    +0.000 OA
BRANCH  18  19
ATOM     19  C   UNL     1       0.236   8.596  21.371  0.00  0.00    +0.000 C 
BRANCH  19  20
ATOM     20  C   UNL     1      -0.201  10.059  21.428  0.00  0.00    +0.000 C 
BRANCH  20  22
ATOM     21  C   UNL     1      -1.646  11.385  23.050  0.00  0.00    +0.000 C 
ATOM     22  C   UNL     1      -0.492  10.417  22.890  0.00  0.00    +0.000 C 
ENDBRANCH  20  22
ENDBRANCH  19  20
ENDBRANCH  18  19
ENDBRANCH   1  18
TORSDOF 7
ENDMDL
MODEL 9
REMARK VINA RESULT:      -6.0      3.489      7.575
REMARK  Name = 
REMARK  10 active torsions:
REMARK  status: ('A' for Active; 'I' for Inactive)
REMARK    1  A    between atoms: C_1  and  C_2
REMARK    2  A    between atoms: C_2  and  C_3
REMARK    3  A    between atoms: C_3  and  C_4
REMARK    4  A    between atoms: C_4  and  O_5
REMARK    5  A    between atoms: O_5  and  C_6
REMARK    6  A    between atoms: C_9  and  C_10
REMARK    7  A    between atoms: C_10  and  N_12
REMARK    8  A    between atoms: N_17  and  C_18
REMARK    9  A    between atoms: C_20  and  O_21
REMARK   10  A    between atoms: O_21  and  C_22
REMARK                            x       y       z     vdW  Elec       q    Type
REMARK                         _______ _______ _______ _____ _____    ______ ____
ROOT
ATOM      1  C   UNL     1       2.804   5.876  19.675  0.00  0.00    +0.000 A 
ATOM      2  C   UNL     1       2.031   6.780  20.445  0.00  0.00    +0.000 A 
ATOM      3  C   UNL     1       1.617   8.028  19.960  0.00  0.00    +0.000 A 
ATOM      4  C   UNL     1       1.942   8.389  18.659  0.00  0.00    +0.000 A 
ATOM      5  C   UNL     1       2.700   7.506  17.887  0.00  0.00    +0.000 A 
ATOM      6  C   UNL     1       3.153   6.253  18.368  0.00  0.00    +0.000 A 
ENDROOT
BRANCH   4   7
ATOM      7  C   UNL     1       1.527   9.700  18.065  0.00  0.00    +0.000 C 
ATOM      8  O   UNL     1       2.378  10.572  17.925  0.00  0.00    +0.000 OA
BRANCH   7   9
ATOM      9  N   UNL     1       0.183   9.860  17.858  0.00  0.00    +0.000 NA
ATOM     10  C   UNL     1      -0.497  10.732  18.548  0.00  0.00    +0.000 A 
ATOM     11  S   UNL     1       0.157  11.966  19.681  0.00  0.00    +0.000 S 
ATOM     12  C   UNL     1      -1.449  12.530  20.062  0.00  0.00    +0.000 A 
ATOM     13  C   UNL     1      -2.373  11.856  19.368  0.00  0.00    +0.000 A 
ATOM     14  N   UNL     1      -1.881  10.883  18.518  0.00  0.00    +0.000 N 
ATOM     15  C   UNL     1      -2.714   9.994  17.736  0.00  0.00    +0.000 C 
ENDBRANCH   7   9
ENDBRANCH   4   7
BRANCH   6  16
ATOM     16  O   UNL     1       3.947   5.685  17.416  0.00  0.00    +0.000 OA
ATOM     17  C   UNL     1       4.940   6.389  16.706  0.00  0.00    +0.000 C 
ENDBRANCH   6  16
BRANCH   1  18
ATOM     18  O   UNL     1       3.073   4.753  20.418  0.00  0.00    +0.000 OA
BRANCH  18  19
ATOM     19  C   UNL     1       1.997   4.038  20.988  0.00  0.00    +0.000 C 
BRANCH  19  20
ATOM     20  C   UNL     1       0.986   3.563  19.945  0.00  0.00    +0.000 C 
BRANCH  20  22
ATOM     21  C   UNL     1       2.158   2.433  17.989  0.00  0.00    +0.000 C 
ATOM     22  C   UNL     1       1.499   2.251  19.342  0.00  0.00    +0.000 C 
ENDBRANCH  20  22
ENDBRANCH  19  20
ENDBRANCH  18  19
ENDBRANCH   1  18
TORSDOF 7
ENDMDL
