MODEL 1
REMARK VINA RESULT:      -7.8      0.000      0.000
REMARK  Name = 
REMARK  10 active torsions:
REMARK  status: ('A' for Active; 'I' for Inactive)
REMARK    1  A    between atoms: C_1  and  C_2
REMARK    2  A    between atoms: C_2  and  O_3
REMARK    3  A    between atoms: O_3  and  C_4
REMARK    4  A    between atoms: C_4  and  C_6
REMARK    5  A    between atoms: N_10  and  C_11
REMARK    6  A    between atoms: C_11  and  C_12
REMARK    7  A    between atoms: C_12  and  C_13
REMARK    8  A    between atoms: N_15  and  C_16
REMARK    9  A    between atoms: C_18  and  C_19
REMARK   10  A    between atoms: C_22  and  C_23
REMARK                            x       y       z     vdW  Elec       q    Type
REMARK                         _______ _______ _______ _____ _____    ______ ____
ROOT
ATOM      1  C   UNL     1       3.627   4.185  19.873  0.00  0.00    +0.000 C 
ENDROOT
BRANCH   1   2
ATOM      2  C   UNL     1       2.481   5.161  19.870  0.00  0.00    +0.000 C 
ATOM      3  O   UNL     1       1.320   4.768  19.804  0.00  0.00    +0.000 OA
ATOM      4  N   UNL     1       2.895   6.484  19.943  0.00  0.00    +0.000 N 
ATOM      5  H   UNL     1       3.879   6.669  19.794  0.00  0.00    +0.000 HD
BRANCH   4   6
ATOM      6  C   UNL     1       2.026   7.601  20.000  0.00  0.00    +0.000 A 
ATOM      7  C   UNL     1       1.288   7.870  21.161  0.00  0.00    +0.000 A 
ATOM      8  C   UNL     1       0.350   8.904  21.220  0.00  0.00    +0.000 A 
ATOM      9  C   UNL     1      -0.461   9.102  22.464  0.00  0.00    +0.000 C 
ATOM     10  C   UNL     1       0.180   9.713  20.101  0.00  0.00    +0.000 A 
ATOM     11  C   UNL     1       0.947   9.498  18.954  0.00  0.00    +0.000 A 
ATOM     12  C   UNL     1       1.884   8.448  18.885  0.00  0.00    +0.000 A 
ATOM     13  C   UNL     1       2.656   8.256  17.612  0.00  0.00    +0.000 C 
ENDBRANCH   4   6
ENDBRANCH   1   2
BRANCH   1  14
ATOM     14  C   UNL     1       3.874   3.682  18.443  0.00  0.00    +0.000 C 
BRANCH  14  19
ATOM     15  C   UNL     1       5.816   5.953  16.075  0.00  0.00    +0.000 C 
ATOM     16  C   UNL     1       6.754   6.576  17.109  0.00  0.00    +0.000 C 
ATOM     17  C   UNL     1       7.133   5.567  18.188  0.00  0.00    +0.000 C 
ATOM     18  C   UNL     1       5.890   4.942  18.814  0.00  0.00    +0.000 C 
ATOM     19  N   UNL     1       5.049   4.293  17.790  0.00  0.00    +0.000 NA
ATOM     20  C   UNL     1       4.640   5.257  16.760  0.00  0.00    +0.000 C 
BRANCH  15  21
ATOM     21  C   UNL     1       6.579   5.089  15.083  0.00  0.00    +0.000 C 
ATOM     22  O   UNL     1       7.727   5.329  14.729  0.00  0.00    +0.000 OA
BRANCH  21  23
ATOM     23  O   UNL     1       5.781   4.153  14.501  0.00  0.00    +0.000 OA
BRANCH  23  25
ATOM     24  C   UNL     1       5.072   3.586  12.306  0.00  0.00    +0.000 C 
ATOM     25  C   UNL     1       6.259   3.635  13.252  0.00  0.00    +0.000 C 
ENDBRANCH  23  25
ENDBRANCH  21  23
ENDBRANCH  15  21
ENDBRANCH  14  19
ENDBRANCH   1  14
TORSDOF 7
ENDMDL
MODEL 2
REMARK VINA RESULT:      -7.4      1.567      3.058
REMARK  Name = 
REMARK  10 active torsions:
REMARK  status: ('A' for Active; 'I' for Inactive)
REMARK    1  A    between atoms: C_1  and  C_2
REMARK    2  A    between atoms: C_2  and  O_3
REMARK    3  A    between atoms: O_3  and  C_4
REMARK    4  A    between atoms: C_4  and  C_6
REMARK    5  A    between atoms: N_10  and  C_11
REMARK    6  A    between atoms: C_11  and  C_12
REMARK    7  A    between atoms: C_12  and  C_13
REMARK    8  A    between atoms: N_15  and  C_16
REMARK    9  A    between atoms: C_18  and  C_19
REMARK   10  A    between atoms: C_22  and  C_23
REMARK                            x       y       z     vdW  Elec       q    Type
REMARK                         _______ _______ _______ _____ _____    ______ ____
ROOT
ATOM      1  C   UNL     1       3.500   4.384  19.877  0.00  0.00    +0.000 C 
ENDROOT
BRANCH   1   2
ATOM      2  C   UNL     1       2.359   5.351  20.056  0.00  0.00    +0.000 C 
ATOM      3  O   UNL     1       1.228   4.948  20.314  0.00  0.00    +0.000 OA
ATOM      4  N   UNL     1       2.739   6.676  19.893  0.00  0.00    +0.000 N 
ATOM      5  H   UNL     1       3.652   6.848  19.491  0.00  0.00    +0.000 HD
BRANCH   4   6
ATOM      6  C   UNL     1       1.877   7.788  20.048  0.00  0.00    +0.000 A 
ATOM      7  C   UNL     1       1.222   8.017  21.266  0.00  0.00    +0.000 A 
ATOM      8  C   UNL     1       0.291   9.047  21.424  0.00  0.00    +0.000 A 
ATOM      9  C   UNL     1      -0.431   9.202  22.727  0.00  0.00    +0.000 C 
ATOM     10  C   UNL     1       0.045   9.894  20.348  0.00  0.00    +0.000 A 
ATOM     11  C   UNL     1       0.731   9.719  19.145  0.00  0.00    +0.000 A 
ATOM     12  C   UNL     1       1.659   8.673  18.975  0.00  0.00    +0.000 A 
ATOM     13  C   UNL     1       2.342   8.525  17.646  0.00  0.00    +0.000 C 
ENDBRANCH   4   6
ENDBRANCH   1   2
BRANCH   1  14
ATOM     14  C   UNL     1       3.573   3.947  18.407  0.00  0.00    +0.000 C 
BRANCH  14  19
ATOM     15  C   UNL     1       7.073   5.332  17.797  0.00  0.00    +0.000 C 
ATOM     16  C   UNL     1       7.408   4.506  16.554  0.00  0.00    +0.000 C 
ATOM     17  C   UNL     1       6.171   4.283  15.690  0.00  0.00    +0.000 C 
ATOM     18  C   UNL     1       5.031   3.686  16.511  0.00  0.00    +0.000 C 
ATOM     19  N   UNL     1       4.694   4.550  17.659  0.00  0.00    +0.000 NA
ATOM     20  C   UNL     1       5.864   4.747  18.527  0.00  0.00    +0.000 C 
BRANCH  15  21
ATOM     21  C   UNL     1       6.964   6.812  17.466  0.00  0.00    +0.000 C 
ATOM     22  O   UNL     1       6.191   7.257  16.627  0.00  0.00    +0.000 OA
BRANCH  21  23
ATOM     23  O   UNL     1       7.947   7.542  18.062  0.00  0.00    +0.000 OA
BRANCH  23  25
ATOM     24  C   UNL     1       8.956   9.596  18.696  0.00  0.00    +0.000 C 
ATOM     25  C   UNL     1       7.864   8.958  17.856  0.00  0.00    +0.000 C 
ENDBRANCH  23  25
ENDBRANCH  21  23
ENDBRANCH  15  21
ENDBRANCH  14  19
ENDBRANCH   1  14
TORSDOF 7
ENDMDL
MODEL 3
REMARK VINA RESULT:      -7.1      1.852      3.038
REMARK  Name = 
REMARK  10 active torsions:
REMARK  status: ('A' for Active; 'I' for Inactive)
REMARK    1  A    between atoms: C_1  and  C_2
REMARK    2  A    between atoms: C_2  and  O_3
REMARK    3  A    between atoms: O_3  and  C_4
REMARK    4  A    between atoms: C_4  and  C_6
REMARK    5  A    between atoms: N_10  and  C_11
REMARK    6  A    between atoms: C_11  and  C_12
REMARK    7  A    between atoms: C_12  and  C_13
REMARK    8  A    between atoms: N_15  and  C_16
REMARK    9  A    between atoms: C_18  and  C_19
REMARK   10  A    between atoms: C_22  and  C_23
REMARK                            x       y       z     vdW  Elec       q    Type
REMARK                         _______ _______ _______ _____ _____    ______ ____
ROOT
ATOM      1  C   UNL     1       3.192   4.539  20.183  0.00  0.00    +0.000 C 
ENDROOT
BRANCH   1   2
ATOM      2  C   UNL     1       2.099   5.561  20.351  0.00  0.00    +0.000 C 
ATOM      3  O   UNL     1       0.948   5.216  20.601  0.00  0.00    +0.000 OA
ATOM      4  N   UNL     1       2.546   6.866  20.189  0.00  0.00    +0.000 N 
ATOM      5  H   UNL     1       3.470   6.992  19.794  0.00  0.00    +0.000 HD
BRANCH   4   6
ATOM      6  C   UNL     1       1.739   8.020  20.335  0.00  0.00    +0.000 A 
ATOM      7  C   UNL     1       1.212   8.367  21.587  0.00  0.00    +0.000 A 
ATOM      8  C   UNL     1       0.334   9.442  21.750  0.00  0.00    +0.000 A 
ATOM      9  C   UNL     1      -0.254   9.724  23.098  0.00  0.00    +0.000 C 
ATOM     10  C   UNL     1       0.012  10.213  20.638  0.00  0.00    +0.000 A 
ATOM     11  C   UNL     1       0.573   9.920  19.392  0.00  0.00    +0.000 A 
ATOM     12  C   UNL     1       1.447   8.828  19.221  0.00  0.00    +0.000 A 
ATOM     13  C   UNL     1       1.993   8.553  17.849  0.00  0.00    +0.000 C 
ENDBRANCH   4   6
ENDBRANCH   1   2
BRANCH   1  14
ATOM     14  C   UNL     1       3.431   4.287  18.688  0.00  0.00    +0.000 C 
BRANCH  14  19
ATOM     15  C   UNL     1       7.011   4.796  17.480  0.00  0.00    +0.000 C 
ATOM     16  C   UNL     1       6.685   5.422  16.123  0.00  0.00    +0.000 C 
ATOM     17  C   UNL     1       5.439   6.299  16.206  0.00  0.00    +0.000 C 
ATOM     18  C   UNL     1       4.265   5.528  16.804  0.00  0.00    +0.000 C 
ATOM     19  N   UNL     1       4.601   5.002  18.141  0.00  0.00    +0.000 NA
ATOM     20  C   UNL     1       5.776   4.122  18.077  0.00  0.00    +0.000 C 
BRANCH  15  21
ATOM     21  C   UNL     1       7.702   5.792  18.397  0.00  0.00    +0.000 C 
ATOM     22  O   UNL     1       8.073   5.513  19.531  0.00  0.00    +0.000 OA
BRANCH  21  23
ATOM     23  O   UNL     1       7.679   7.055  17.890  0.00  0.00    +0.000 OA
BRANCH  23  25
ATOM     24  C   UNL     1       8.294   9.349  17.910  0.00  0.00    +0.000 C 
ATOM     25  C   UNL     1       8.362   8.040  18.677  0.00  0.00    +0.000 C 
ENDBRANCH  23  25
ENDBRANCH  21  23
ENDBRANCH  15  21
ENDBRANCH  14  19
ENDBRANCH   1  14
TORSDOF 7
ENDMDL
MODEL 4
REMARK VINA RESULT:      -7.0      1.482      2.759
REMARK  Name = 
REMARK  10 active torsions:
REMARK  status: ('A' for Active; 'I' for Inactive)
REMARK    1  A    between atoms: C_1  and  C_2
REMARK    2  A    between atoms: C_2  and  O_3
REMARK    3  A    between atoms: O_3  and  C_4
REMARK    4  A    between atoms: C_4  and  C_6
REMARK    5  A    between atoms: N_10  and  C_11
REMARK    6  A    between atoms: C_11  and  C_12
REMARK    7  A    between atoms: C_12  and  C_13
REMARK    8  A    between atoms: N_15  and  C_16
REMARK    9  A    between atoms: C_18  and  C_19
REMARK   10  A    between atoms: C_22  and  C_23
REMARK                            x       y       z     vdW  Elec       q    Type
REMARK                         _______ _______ _______ _____ _____    ______ ____
ROOT
ATOM      1  C   UNL     1       2.819   3.577  20.450  0.00  0.00    +0.000 C 
ENDROOT
BRANCH   1   2
ATOM      2  C   UNL     1       1.908   4.773  20.378  0.00  0.00    +0.000 C 
ATOM      3  O   UNL     1       0.690   4.641  20.443  0.00  0.00    +0.000 OA
ATOM      4  N   UNL     1       2.596   5.970  20.233  0.00  0.00    +0.000 N 
ATOM      5  H   UNL     1       3.579   5.913  19.996  0.00  0.00    +0.000 HD
BRANCH   4   6
ATOM      6  C   UNL     1       1.990   7.249  20.182  0.00  0.00    +0.000 A 
ATOM      7  C   UNL     1       1.289   7.749  21.288  0.00  0.00    +0.000 A 
ATOM      8  C   UNL     1       0.597   8.962  21.240  0.00  0.00    +0.000 A 
ATOM      9  C   UNL     1      -0.193   9.415  22.430  0.00  0.00    +0.000 C 
ATOM     10  C   UNL     1       0.647   9.712  20.069  0.00  0.00    +0.000 A 
ATOM     11  C   UNL     1       1.388   9.259  18.976  0.00  0.00    +0.000 A 
ATOM     12  C   UNL     1       2.074   8.030  19.014  0.00  0.00    +0.000 A 
ATOM     13  C   UNL     1       2.830   7.590  17.793  0.00  0.00    +0.000 C 
ENDBRANCH   4   6
ENDBRANCH   1   2
BRANCH   1  14
ATOM     14  C   UNL     1       4.261   4.012  20.151  0.00  0.00    +0.000 C 
BRANCH  14  19
ATOM     15  C   UNL     1       6.245   4.838  17.002  0.00  0.00    +0.000 C 
ATOM     16  C   UNL     1       5.579   3.827  16.067  0.00  0.00    +0.000 C 
ATOM     17  C   UNL     1       4.099   3.663  16.397  0.00  0.00    +0.000 C 
ATOM     18  C   UNL     1       3.901   3.328  17.872  0.00  0.00    +0.000 C 
ATOM     19  N   UNL     1       4.498   4.364  18.737  0.00  0.00    +0.000 NA
ATOM     20  C   UNL     1       5.934   4.512  18.463  0.00  0.00    +0.000 C 
BRANCH  15  21
ATOM     21  C   UNL     1       5.934   6.266  16.587  0.00  0.00    +0.000 C 
ATOM     22  O   UNL     1       5.601   6.577  15.450  0.00  0.00    +0.000 OA
BRANCH  21  23
ATOM     23  O   UNL     1       6.254   7.163  17.560  0.00  0.00    +0.000 OA
BRANCH  23  25
ATOM     24  C   UNL     1       8.344   7.733  18.534  0.00  0.00    +0.000 C 
ATOM     25  C   UNL     1       7.448   7.920  17.322  0.00  0.00    +0.000 C 
ENDBRANCH  23  25
ENDBRANCH  21  23
ENDBRANCH  15  21
ENDBRANCH  14  19
ENDBRANCH   1  14
TORSDOF 7
ENDMDL
MODEL 5
REMARK VINA RESULT:      -6.8      2.763      4.895
REMARK  Name = 
REMARK  10 active torsions:
REMARK  status: ('A' for Active; 'I' for Inactive)
REMARK    1  A    between atoms: C_1  and  C_2
REMARK    2  A    between atoms: C_2  and  O_3
REMARK    3  A    between atoms: O_3  and  C_4
REMARK    4  A    between atoms: C_4  and  C_6
REMARK    5  A    between atoms: N_10  and  C_11
REMARK    6  A    between atoms: C_11  and  C_12
REMARK    7  A    between atoms: C_12  and  C_13
REMARK    8  A    between atoms: N_15  and  C_16
REMARK    9  A    between atoms: C_18  and  C_19
REMARK   10  A    between atoms: C_22  and  C_23
REMARK                            x       y       z     vdW  Elec       q    Type
REMARK                         _______ _______ _______ _____ _____    ______ ____
ROOT
ATOM      1  C   UNL     1       2.300   8.460  17.662  0.00  0.00    +0.000 C 
ENDROOT
BRANCH   1   2
ATOM      2  C   UNL     1       1.620   9.728  18.106  0.00  0.00    +0.000 C 
ATOM      3  O   UNL     1       2.173  10.816  17.977  0.00  0.00    +0.000 OA
ATOM      4  N   UNL     1       0.363   9.507  18.652  0.00  0.00    +0.000 N 
ATOM      5  H   UNL     1       0.118   8.551  18.876  0.00  0.00    +0.000 HD
BRANCH   4   6
ATOM      6  C   UNL     1      -0.508  10.525  19.110  0.00  0.00    +0.000 A 
ATOM      7  C   UNL     1      -0.234  11.215  20.299  0.00  0.00    +0.000 A 
ATOM      8  C   UNL     1      -1.120  12.156  20.830  0.00  0.00    +0.000 A 
ATOM      9  C   UNL     1      -0.809  12.812  22.141  0.00  0.00    +0.000 C 
ATOM     10  C   UNL     1      -2.287  12.443  20.130  0.00  0.00    +0.000 A 
ATOM     11  C   UNL     1      -2.550  11.809  18.913  0.00  0.00    +0.000 A 
ATOM     12  C   UNL     1      -1.667  10.849  18.381  0.00  0.00    +0.000 A 
ATOM     13  C   UNL     1      -2.025  10.186  17.082  0.00  0.00    +0.000 C 
ENDBRANCH   4   6
ENDBRANCH   1   2
BRANCH   1  14
ATOM     14  C   UNL     1       2.452   7.513  18.861  0.00  0.00    +0.000 C 
BRANCH  14  19
ATOM     15  C   UNL     1       3.314   3.916  17.940  0.00  0.00    +0.000 C 
ATOM     16  C   UNL     1       4.341   4.222  16.849  0.00  0.00    +0.000 C 
ATOM     17  C   UNL     1       5.148   5.472  17.188  0.00  0.00    +0.000 C 
ATOM     18  C   UNL     1       4.229   6.653  17.487  0.00  0.00    +0.000 C 
ATOM     19  N   UNL     1       3.302   6.337  18.591  0.00  0.00    +0.000 NA
ATOM     20  C   UNL     1       2.487   5.158  18.270  0.00  0.00    +0.000 C 
BRANCH  15  21
ATOM     21  C   UNL     1       3.963   3.244  19.140  0.00  0.00    +0.000 C 
ATOM     22  O   UNL     1       5.156   3.342  19.399  0.00  0.00    +0.000 OA
BRANCH  21  23
ATOM     23  O   UNL     1       3.114   2.380  19.763  0.00  0.00    +0.000 OA
BRANCH  23  25
ATOM     24  C   UNL     1       1.305   2.910  21.206  0.00  0.00    +0.000 C 
ATOM     25  C   UNL     1       2.807   2.704  21.125  0.00  0.00    +0.000 C 
ENDBRANCH  23  25
ENDBRANCH  21  23
ENDBRANCH  15  21
ENDBRANCH  14  19
ENDBRANCH   1  14
TORSDOF 7
ENDMDL
MODEL 6
REMARK VINA RESULT:      -6.7      5.112      7.168
REMARK  Name = 
REMARK  10 active torsions:
REMARK  status: ('A' for Active; 'I' for Inactive)
REMARK    1  A    between atoms: C_1  and  C_2
REMARK    2  A    between atoms: C_2  and  O_3
REMARK    3  A    between atoms: O_3  and  C_4
REMARK    4  A    between atoms: C_4  and  C_6
REMARK    5  A    between atoms: N_10  and  C_11
REMARK    6  A    between atoms: C_11  and  C_12
REMARK    7  A    between atoms: C_12  and  C_13
REMARK    8  A    between atoms: N_15  and  C_16
REMARK    9  A    between atoms: C_18  and  C_19
REMARK   10  A    between atoms: C_22  and  C_23
REMARK                            x       y       z     vdW  Elec       q    Type
REMARK                         _______ _______ _______ _____ _____    ______ ____
ROOT
ATOM      1  C   UNL     1       8.267   8.178  18.033  0.00  0.00    +0.000 C 
ENDROOT
BRANCH   1   2
ATOM      2  C   UNL     1       8.519   9.622  18.376  0.00  0.00    +0.000 C 
ATOM      3  O   UNL     1       8.002  10.523  17.721  0.00  0.00    +0.000 OA
ATOM      4  N   UNL     1       9.367   9.782  19.463  0.00  0.00    +0.000 N 
ATOM      5  H   UNL     1       9.872   8.963  19.779  0.00  0.00    +0.000 HD
BRANCH   4   6
ATOM      6  C   UNL     1       9.737  11.029  20.023  0.00  0.00    +0.000 A 
ATOM      7  C   UNL     1       9.121  11.494  21.193  0.00  0.00    +0.000 A 
ATOM      8  C   UNL     1       9.390  12.761  21.719  0.00  0.00    +0.000 A 
ATOM      9  C   UNL     1       8.651  13.235  22.932  0.00  0.00    +0.000 C 
ATOM     10  C   UNL     1      10.331  13.561  21.079  0.00  0.00    +0.000 A 
ATOM     11  C   UNL     1      10.999  13.092  19.946  0.00  0.00    +0.000 A 
ATOM     12  C   UNL     1      10.720  11.822  19.404  0.00  0.00    +0.000 A 
ATOM     13  C   UNL     1      11.455  11.391  18.167  0.00  0.00    +0.000 C 
ENDBRANCH   4   6
ENDBRANCH   1   2
BRANCH   1  14
ATOM     14  C   UNL     1       6.851   8.028  17.457  0.00  0.00    +0.000 C 
BRANCH  14  19
ATOM     15  C   UNL     1       4.327   5.189  17.136  0.00  0.00    +0.000 C 
ATOM     16  C   UNL     1       5.141   4.293  16.202  0.00  0.00    +0.000 C 
ATOM     17  C   UNL     1       6.632   4.380  16.516  0.00  0.00    +0.000 C 
ATOM     18  C   UNL     1       7.108   5.830  16.512  0.00  0.00    +0.000 C 
ATOM     19  N   UNL     1       6.341   6.643  17.477  0.00  0.00    +0.000 NA
ATOM     20  C   UNL     1       4.905   6.604  17.170  0.00  0.00    +0.000 C 
BRANCH  15  21
ATOM     21  C   UNL     1       4.139   4.543  18.500  0.00  0.00    +0.000 C 
ATOM     22  O   UNL     1       4.231   5.161  19.553  0.00  0.00    +0.000 OA
BRANCH  21  23
ATOM     23  O   UNL     1       4.053   3.187  18.415  0.00  0.00    +0.000 OA
BRANCH  23  25
ATOM     24  C   UNL     1       2.102   2.235  19.378  0.00  0.00    +0.000 C 
ATOM     25  C   UNL     1       3.575   2.532  19.597  0.00  0.00    +0.000 C 
ENDBRANCH  23  25
ENDBRANCH  21  23
ENDBRANCH  15  21
ENDBRANCH  14  19
ENDBRANCH   1  14
TORSDOF 7
ENDMDL
MODEL 7
REMARK VINA RESULT:      -6.7      2.585      3.709
REMARK  Name = 
REMARK  10 active torsions:
REMARK  status: ('A' for Active; 'I' for Inactive)
REMARK    1  A    between atoms: C_1  and  C_2
REMARK    2  A    between atoms: C_2  and  O_3
REMARK    3  A    between atoms: O_3  and  C_4
REMARK    4  A    between atoms: C_4  and  C_6
REMARK    5  A    between atoms: N_10  and  C_11
REMARK    6  A    between atoms: C_11  and  C_12
REMARK    7  A    between atoms: C_12  and  C_13
REMARK    8  A    between atoms: N_15  and  C_16
REMARK    9  A    between atoms: C_18  and  C_19
REMARK   10  A    between atoms: C_22  and  C_23
REMARK                            x       y       z     vdW  Elec       q    Type
REMARK                         _______ _______ _______ _____ _____    ______ ____
ROOT
ATOM      1  C   UNL     1       2.344   8.554  18.122  0.00  0.00    +0.000 C 
ENDROOT
BRANCH   1   2
ATOM      2  C   UNL     1       1.238   9.244  18.875  0.00  0.00    +0.000 C 
ATOM      3  O   UNL     1       1.043   9.007  20.063  0.00  0.00    +0.000 OA
ATOM      4  N   UNL     1       0.513  10.127  18.086  0.00  0.00    +0.000 N 
ATOM      5  H   UNL     1       0.655  10.075  17.085  0.00  0.00    +0.000 HD
BRANCH   4   6
ATOM      6  C   UNL     1      -0.552  10.936  18.550  0.00  0.00    +0.000 A 
ATOM      7  C   UNL     1      -0.343  11.869  19.575  0.00  0.00    +0.000 A 
ATOM      8  C   UNL     1      -1.390  12.614  20.124  0.00  0.00    +0.000 A 
ATOM      9  C   UNL     1      -1.121  13.545  21.266  0.00  0.00    +0.000 C 
ATOM     10  C   UNL     1      -2.669  12.452  19.600  0.00  0.00    +0.000 A 
ATOM     11  C   UNL     1      -2.887  11.571  18.539  0.00  0.00    +0.000 A 
ATOM     12  C   UNL     1      -1.838  10.807  17.993  0.00  0.00    +0.000 A 
ATOM     13  C   UNL     1      -2.148   9.859  16.870  0.00  0.00    +0.000 C 
ENDBRANCH   4   6
ENDBRANCH   1   2
BRANCH   1  14
ATOM     14  C   UNL     1       2.625   7.188  18.764  0.00  0.00    +0.000 C 
BRANCH  14  19
ATOM     15  C   UNL     1       5.228   4.998  17.041  0.00  0.00    +0.000 C 
ATOM     16  C   UNL     1       4.510   3.657  17.204  0.00  0.00    +0.000 C 
ATOM     17  C   UNL     1       2.998   3.825  17.093  0.00  0.00    +0.000 C 
ATOM     18  C   UNL     1       2.493   4.891  18.061  0.00  0.00    +0.000 C 
ATOM     19  N   UNL     1       3.162   6.184  17.823  0.00  0.00    +0.000 NA
ATOM     20  C   UNL     1       4.619   6.054  17.963  0.00  0.00    +0.000 C 
BRANCH  15  21
ATOM     21  C   UNL     1       5.320   5.403  15.579  0.00  0.00    +0.000 C 
ATOM     22  O   UNL     1       5.228   6.564  15.198  0.00  0.00    +0.000 OA
BRANCH  21  23
ATOM     23  O   UNL     1       5.320   4.324  14.749  0.00  0.00    +0.000 OA
BRANCH  23  25
ATOM     24  C   UNL     1       6.094   3.518  12.653  0.00  0.00    +0.000 C 
ATOM     25  C   UNL     1       6.510   4.157  13.967  0.00  0.00    +0.000 C 
ENDBRANCH  23  25
ENDBRANCH  21  23
ENDBRANCH  15  21
ENDBRANCH  14  19
ENDBRANCH   1  14
TORSDOF 7
ENDMDL
MODEL 8
REMARK VINA RESULT:      -6.7      0.981      1.219
REMARK  Name = 
REMARK  10 active torsions:
REMARK  status: ('A' for Active; 'I' for Inactive)
REMARK    1  A    between atoms: C_1  and  C_2
REMARK    2  A    between atoms: C_2  and  O_3
REMARK    3  A    between atoms: O_3  and  C_4
REMARK    4  A    between atoms: C_4  and  C_6
REMARK    5  A    between atoms: N_10  and  C_11
REMARK    6  A    between atoms: C_11  and  C_12
REMARK    7  A    between atoms: C_12  and  C_13
REMARK    8  A    between atoms: N_15  and  C_16
REMARK    9  A    between atoms: C_18  and  C_19
REMARK   10  A    between atoms: C_22  and  C_23
REMARK                            x       y       z     vdW  Elec       q    Type
REMARK                         _______ _______ _______ _____ _____    ______ ____
ROOT
ATOM      1  C   UNL     1       2.977   4.685  19.641  0.00  0.00    +0.000 C 
ENDROOT
BRANCH   1   2
ATOM      2  C   UNL     1       1.970   5.695  20.121  0.00  0.00    +0.000 C 
ATOM      3  O   UNL     1       0.935   5.338  20.676  0.00  0.00    +0.000 OA
ATOM      4  N   UNL     1       2.348   7.005  19.859  0.00  0.00    +0.000 N 
ATOM      5  H   UNL     1       3.125   7.144  19.224  0.00  0.00    +0.000 HD
BRANCH   4   6
ATOM      6  C   UNL     1       1.608   8.151  20.239  0.00  0.00    +0.000 A 
ATOM      7  C   UNL     1       1.200   8.325  21.569  0.00  0.00    +0.000 A 
ATOM      8  C   UNL     1       0.387   9.393  21.961  0.00  0.00    +0.000 A 
ATOM      9  C   UNL     1      -0.077   9.490  23.381  0.00  0.00    +0.000 C 
ATOM     10  C   UNL     1       0.013  10.330  21.004  0.00  0.00    +0.000 A 
ATOM     11  C   UNL     1       0.458  10.207  19.686  0.00  0.00    +0.000 A 
ATOM     12  C   UNL     1       1.264   9.125  19.283  0.00  0.00    +0.000 A 
ATOM     13  C   UNL     1       1.685   9.038  17.844  0.00  0.00    +0.000 C 
ENDBRANCH   4   6
ENDBRANCH   1   2
BRANCH   1  14
ATOM     14  C   UNL     1       4.392   5.259  19.797  0.00  0.00    +0.000 C 
BRANCH  14  19
ATOM     15  C   UNL     1       5.702   6.018  16.297  0.00  0.00    +0.000 C 
ATOM     16  C   UNL     1       7.187   6.115  16.649  0.00  0.00    +0.000 C 
ATOM     17  C   UNL     1       7.559   5.126  17.748  0.00  0.00    +0.000 C 
ATOM     18  C   UNL     1       6.649   5.288  18.962  0.00  0.00    +0.000 C 
ATOM     19  N   UNL     1       5.231   5.118  18.590  0.00  0.00    +0.000 NA
ATOM     20  C   UNL     1       4.840   6.089  17.558  0.00  0.00    +0.000 C 
BRANCH  15  21
ATOM     21  C   UNL     1       5.422   4.824  15.399  0.00  0.00    +0.000 C 
ATOM     22  O   UNL     1       4.716   3.882  15.736  0.00  0.00    +0.000 OA
BRANCH  21  23
ATOM     23  O   UNL     1       6.193   4.837  14.277  0.00  0.00    +0.000 OA
BRANCH  23  25
ATOM     24  C   UNL     1       5.911   3.654  12.237  0.00  0.00    +0.000 C 
ATOM     25  C   UNL     1       6.406   3.556  13.669  0.00  0.00    +0.000 C 
ENDBRANCH  23  25
ENDBRANCH  21  23
ENDBRANCH  15  21
ENDBRANCH  14  19
ENDBRANCH   1  14
TORSDOF 7
ENDMDL
MODEL 9
REMARK VINA RESULT:      -6.7      1.952      3.052
REMARK  Name = 
REMARK  10 active torsions:
REMARK  status: ('A' for Active; 'I' for Inactive)
REMARK    1  A    between atoms: C_1  and  C_2
REMARK    2  A    between atoms: C_2  and  O_3
REMARK    3  A    between atoms: O_3  and  C_4
REMARK    4  A    between atoms: C_4  and  C_6
REMARK    5  A    between atoms: N_10  and  C_11
REMARK    6  A    between atoms: C_11  and  C_12
REMARK    7  A    between atoms: C_12  and  C_13
REMARK    8  A    between atoms: N_15  and  C_16
REMARK    9  A    between atoms: C_18  and  C_19
REMARK   10  A    between atoms: C_22  and  C_23
REMARK                            x       y       z     vdW  Elec       q    Type
REMARK                         _______ _______ _______ _____ _____    ______ ____
ROOT
ATOM      1  C   UNL     1       2.189   3.572  21.223  0.00  0.00    +0.000 C 
ENDROOT
BRANCH   1   2
ATOM      2  C   UNL     1       1.463   4.806  20.757  0.00  0.00    +0.000 C 
ATOM      3  O   UNL     1       0.320   4.735  20.317  0.00  0.00    +0.000 OA
ATOM      4  N   UNL     1       2.222   5.962  20.882  0.00  0.00    +0.000 N 
ATOM      5  H   UNL     1       3.210   5.848  21.073  0.00  0.00    +0.000 HD
BRANCH   4   6
ATOM      6  C   UNL     1       1.770   7.265  20.559  0.00  0.00    +0.000 A 
ATOM      7  C   UNL     1       1.036   8.014  21.489  0.00  0.00    +0.000 A 
ATOM      8  C   UNL     1       0.491   9.261  21.171  0.00  0.00    +0.000 A 
ATOM      9  C   UNL     1      -0.345   9.987  22.180  0.00  0.00    +0.000 C 
ATOM     10  C   UNL     1       0.726   9.787  19.905  0.00  0.00    +0.000 A 
ATOM     11  C   UNL     1       1.504   9.082  18.984  0.00  0.00    +0.000 A 
ATOM     12  C   UNL     1       2.043   7.818  19.295  0.00  0.00    +0.000 A 
ATOM     13  C   UNL     1       2.848   7.103  18.248  0.00  0.00    +0.000 C 
ENDBRANCH   4   6
ENDBRANCH   1   2
BRANCH   1  14
ATOM     14  C   UNL     1       2.692   2.785  20.005  0.00  0.00    +0.000 C 
BRANCH  14  19
ATOM     15  C   UNL     1       5.827   3.952  18.175  0.00  0.00    +0.000 C 
ATOM     16  C   UNL     1       5.277   3.872  16.751  0.00  0.00    +0.000 C 
ATOM     17  C   UNL     1       3.800   4.251  16.709  0.00  0.00    +0.000 C 
ATOM     18  C   UNL     1       2.993   3.422  17.704  0.00  0.00    +0.000 C 
ATOM     19  N   UNL     1       3.516   3.583  19.075  0.00  0.00    +0.000 NA
ATOM     20  C   UNL     1       4.929   3.186  19.147  0.00  0.00    +0.000 C 
BRANCH  15  21
ATOM     21  C   UNL     1       6.123   5.388  18.576  0.00  0.00    +0.000 C 
ATOM     22  O   UNL     1       5.730   5.887  19.623  0.00  0.00    +0.000 OA
BRANCH  21  23
ATOM     23  O   UNL     1       6.697   6.093  17.562  0.00  0.00    +0.000 OA
BRANCH  23  25
ATOM     24  C   UNL     1       7.636   8.274  17.548  0.00  0.00    +0.000 C 
ATOM     25  C   UNL     1       7.879   6.822  17.919  0.00  0.00    +0.000 C 
ENDBRANCH  23  25
ENDBRANCH  21  23
ENDBRANCH  15  21
ENDBRANCH  14  19
ENDBRANCH   1  14
TORSDOF 7
ENDMDL
