MODEL 1
REMARK VINA RESULT:      -8.7      0.000      0.000
REMARK  Name = 
REMARK  9 active torsions:
REMARK  status: ('A' for Active; 'I' for Inactive)
REMARK    1  A    between atoms: C_1  and  C_2
REMARK    2  A    between atoms: C_4  and  C_5
REMARK    3  A    between atoms: C_5  and  O_6
REMARK    4  A    between atoms: O_6  and  C_7
REMARK    5  A    between atoms: C_14  and  C_15
REMARK    6  A    between atoms: C_15  and  C_16
REMARK    7  A    between atoms: C_16  and  O_18
REMARK    8  A    between atoms: C_22  and  C_23
REMARK    9  A    between atoms: N_25  and  C_26
REMARK                            x       y       z     vdW  Elec       q    Type
REMARK                         _______ _______ _______ _____ _____    ______ ____
ROOT
ATOM      1  C   UNL     1       2.297   7.273  19.690  0.00  0.00    +0.000 A 
ATOM      2  N   UNL     1       1.688   8.437  20.043  0.00  0.00    +0.000 NA
ATOM      3  C   UNL     1       1.460   9.372  19.100  0.00  0.00    +0.000 A 
ATOM      4  N   UNL     1       0.730  10.493  19.438  0.00  0.00    +0.000 N 
ATOM      5  C   UNL     1       0.776  11.006  20.800  0.00  0.00    +0.000 C 
ATOM      6  C   UNL     1      -0.604  10.955  21.450  0.00  0.00    +0.000 C 
ATOM      7  C   UNL     1      -1.661  11.606  20.561  0.00  0.00    +0.000 C 
ATOM      8  C   UNL     1      -1.680  10.963  19.164  0.00  0.00    +0.000 C 
ATOM      9  C   UNL     1      -0.276  11.028  18.526  0.00  0.00    +0.000 C 
ATOM     10  C   UNL     1       1.939   9.189  17.806  0.00  0.00    +0.000 A 
ATOM     11  C   UNL     1       2.601   8.013  17.460  0.00  0.00    +0.000 A 
ATOM     12  C   UNL     1       2.766   7.003  18.409  0.00  0.00    +0.000 A 
ENDROOT
BRANCH  12  13
ATOM     13  C   UNL     1       3.332   5.703  17.945  0.00  0.00    +0.000 C 
ATOM     14  O   UNL     1       2.579   4.831  17.532  0.00  0.00    +0.000 OA
ATOM     15  N   UNL     1       4.698   5.539  18.014  0.00  0.00    +0.000 N 
ATOM     16  H   UNL     1       5.255   6.324  18.334  0.00  0.00    +0.000 HD
BRANCH  15  17
ATOM     17  C   UNL     1       5.382   4.313  17.611  0.00  0.00    +0.000 C 
ATOM     18  C   UNL     1       5.003   3.885  16.189  0.00  0.00    +0.000 C 
ATOM     19  C   UNL     1       5.470   4.911  15.158  0.00  0.00    +0.000 C 
ATOM     20  C   UNL     1       6.975   5.152  15.248  0.00  0.00    +0.000 C 
ATOM     21  C   UNL     1       7.428   5.496  16.665  0.00  0.00    +0.000 C 
ATOM     22  C   UNL     1       6.906   4.487  17.693  0.00  0.00    +0.000 C 
ENDBRANCH  15  17
ENDBRANCH  12  13
BRANCH   1  23
ATOM     23  O   UNL     1       2.451   6.324  20.685  0.00  0.00    +0.000 OA
BRANCH  23  24
ATOM     24  C   UNL     1       1.344   5.419  20.719  0.00  0.00    +0.000 C 
BRANCH  24  28
ATOM     25  C   UNL     1       1.700   1.881  19.150  0.00  0.00    +0.000 C 
ATOM     26  C   UNL     1       1.039   2.925  19.984  0.00  0.00    +0.000 C 
ATOM     27  C   UNL     1       1.233   2.938  21.478  0.00  0.00    +0.000 C 
ATOM     28  C   UNL     1       1.865   4.015  20.627  0.00  0.00    +0.000 C 
ENDBRANCH  24  28
ENDBRANCH  23  24
ENDBRANCH   1  23
BRANCH   8  29
ATOM     29  C   UNL     1      -2.730  11.652  18.283  0.00  0.00    +0.000 C 
BRANCH  29  30
ATOM     30  C   UNL     1      -3.000  10.888  17.007  0.00  0.00    +0.000 C 
ATOM     31  O   UNL     1      -3.293   9.701  16.991  0.00  0.00    +0.000 OA
BRANCH  30  32
ATOM     32  O   UNL     1      -2.930  11.645  15.895  0.00  0.00    +0.000 OA
ATOM     33  H   UNL     1      -3.792  11.863  15.495  0.00  0.00    +0.000 HD
ENDBRANCH  30  32
ENDBRANCH  29  30
ENDBRANCH   8  29
TORSDOF 8
ENDMDL
MODEL 2
REMARK VINA RESULT:      -8.1      0.835      1.220
REMARK  Name = 
REMARK  9 active torsions:
REMARK  status: ('A' for Active; 'I' for Inactive)
REMARK    1  A    between atoms: C_1  and  C_2
REMARK    2  A    between atoms: C_4  and  C_5
REMARK    3  A    between atoms: C_5  and  O_6
REMARK    4  A    between atoms: O_6  and  C_7
REMARK    5  A    between atoms: C_14  and  C_15
REMARK    6  A    between atoms: C_15  and  C_16
REMARK    7  A    between atoms: C_16  and  O_18
REMARK    8  A    between atoms: C_22  and  C_23
REMARK    9  A    between atoms: N_25  and  C_26
REMARK                            x       y       z     vdW  Elec       q    Type
REMARK                         _______ _______ _______ _____ _____    ______ ____
ROOT
ATOM      1  C   UNL     1       2.041   7.686  19.766  0.00  0.00    +0.000 A 
ATOM      2  N   UNL     1       1.462   8.807  20.275  0.00  0.00    +0.000 NA
ATOM      3  C   UNL     1       1.135   9.814  19.441  0.00  0.00    +0.000 A 
ATOM      4  N   UNL     1       0.435  10.891  19.944  0.00  0.00    +0.000 N 
ATOM      5  C   UNL     1       0.614  11.290  21.333  0.00  0.00    +0.000 C 
ATOM      6  C   UNL     1      -0.693  11.164  22.110  0.00  0.00    +0.000 C 
ATOM      7  C   UNL     1      -1.838  11.871  21.390  0.00  0.00    +0.000 C 
ATOM      8  C   UNL     1      -1.994  11.347  19.952  0.00  0.00    +0.000 C 
ATOM      9  C   UNL     1      -0.661  11.485  19.185  0.00  0.00    +0.000 C 
ATOM     10  C   UNL     1       1.483   9.747  18.095  0.00  0.00    +0.000 A 
ATOM     11  C   UNL     1       2.114   8.613  17.588  0.00  0.00    +0.000 A 
ATOM     12  C   UNL     1       2.380   7.530  18.426  0.00  0.00    +0.000 A 
ENDROOT
BRANCH  12  13
ATOM     13  C   UNL     1       2.906   6.282  17.800  0.00  0.00    +0.000 C 
ATOM     14  O   UNL     1       2.140   5.357  17.568  0.00  0.00    +0.000 OA
ATOM     15  N   UNL     1       4.253   6.227  17.516  0.00  0.00    +0.000 N 
ATOM     16  H   UNL     1       4.812   7.052  17.706  0.00  0.00    +0.000 HD
BRANCH  15  17
ATOM     17  C   UNL     1       4.902   5.061  16.921  0.00  0.00    +0.000 C 
ATOM     18  C   UNL     1       6.125   5.451  16.084  0.00  0.00    +0.000 C 
ATOM     19  C   UNL     1       7.220   6.065  16.956  0.00  0.00    +0.000 C 
ATOM     20  C   UNL     1       7.635   5.122  18.082  0.00  0.00    +0.000 C 
ATOM     21  C   UNL     1       6.444   4.627  18.899  0.00  0.00    +0.000 C 
ATOM     22  C   UNL     1       5.333   4.064  18.006  0.00  0.00    +0.000 C 
ENDBRANCH  15  17
ENDBRANCH  12  13
BRANCH   1  23
ATOM     23  O   UNL     1       2.300   6.660  20.657  0.00  0.00    +0.000 OA
BRANCH  23  24
ATOM     24  C   UNL     1       1.231   5.710  20.685  0.00  0.00    +0.000 C 
BRANCH  24  28
ATOM     25  C   UNL     1       1.539   2.158  19.138  0.00  0.00    +0.000 C 
ATOM     26  C   UNL     1       0.952   3.187  20.043  0.00  0.00    +0.000 C 
ATOM     27  C   UNL     1       1.361   3.245  21.492  0.00  0.00    +0.000 C 
ATOM     28  C   UNL     1       1.806   4.331  20.540  0.00  0.00    +0.000 C 
ENDBRANCH  24  28
ENDBRANCH  23  24
ENDBRANCH   1  23
BRANCH   8  29
ATOM     29  C   UNL     1      -3.131  12.091  19.241  0.00  0.00    +0.000 C 
BRANCH  29  30
ATOM     30  C   UNL     1      -3.622  11.355  18.016  0.00  0.00    +0.000 C 
ATOM     31  O   UNL     1      -4.308  10.344  18.077  0.00  0.00    +0.000 OA
BRANCH  30  32
ATOM     32  O   UNL     1      -3.270  11.936  16.853  0.00  0.00    +0.000 OA
ATOM     33  H   UNL     1      -2.876  11.332  16.198  0.00  0.00    +0.000 HD
ENDBRANCH  30  32
ENDBRANCH  29  30
ENDBRANCH   8  29
TORSDOF 8
ENDMDL
MODEL 3
REMARK VINA RESULT:      -7.9      2.768      9.038
REMARK  Name = 
REMARK  9 active torsions:
REMARK  status: ('A' for Active; 'I' for Inactive)
REMARK    1  A    between atoms: C_1  and  C_2
REMARK    2  A    between atoms: C_4  and  C_5
REMARK    3  A    between atoms: C_5  and  O_6
REMARK    4  A    between atoms: O_6  and  C_7
REMARK    5  A    between atoms: C_14  and  C_15
REMARK    6  A    between atoms: C_15  and  C_16
REMARK    7  A    between atoms: C_16  and  O_18
REMARK    8  A    between atoms: C_22  and  C_23
REMARK    9  A    between atoms: N_25  and  C_26
REMARK                            x       y       z     vdW  Elec       q    Type
REMARK                         _______ _______ _______ _____ _____    ______ ____
ROOT
ATOM      1  C   UNL     1       0.376  10.016  20.084  0.00  0.00    +0.000 A 
ATOM      2  N   UNL     1       1.082   8.947  19.626  0.00  0.00    +0.000 NA
ATOM      3  C   UNL     1       1.587   8.064  20.511  0.00  0.00    +0.000 A 
ATOM      4  N   UNL     1       2.190   6.918  20.035  0.00  0.00    +0.000 N 
ATOM      5  C   UNL     1       2.864   6.934  18.745  0.00  0.00    +0.000 C 
ATOM      6  C   UNL     1       2.199   5.967  17.769  0.00  0.00    +0.000 C 
ATOM      7  C   UNL     1       2.039   4.580  18.385  0.00  0.00    +0.000 C 
ATOM      8  C   UNL     1       1.265   4.650  19.712  0.00  0.00    +0.000 C 
ATOM      9  C   UNL     1       1.956   5.631  20.683  0.00  0.00    +0.000 C 
ATOM     10  C   UNL     1       1.476   8.305  21.877  0.00  0.00    +0.000 A 
ATOM     11  C   UNL     1       0.788   9.425  22.340  0.00  0.00    +0.000 A 
ATOM     12  C   UNL     1       0.189  10.299  21.433  0.00  0.00    +0.000 A 
ENDROOT
BRANCH  12  13
ATOM     13  C   UNL     1      -0.671  11.387  21.983  0.00  0.00    +0.000 C 
ATOM     14  O   UNL     1      -1.368  11.165  22.964  0.00  0.00    +0.000 OA
ATOM     15  N   UNL     1      -0.646  12.607  21.345  0.00  0.00    +0.000 N 
ATOM     16  H   UNL     1      -0.012  12.720  20.560  0.00  0.00    +0.000 HD
BRANCH  15  17
ATOM     17  C   UNL     1      -1.450  13.752  21.766  0.00  0.00    +0.000 C 
ATOM     18  C   UNL     1      -0.735  14.595  22.828  0.00  0.00    +0.000 C 
ATOM     19  C   UNL     1       0.533  15.236  22.266  0.00  0.00    +0.000 C 
ATOM     20  C   UNL     1       0.233  16.087  21.035  0.00  0.00    +0.000 C 
ATOM     21  C   UNL     1      -0.558  15.325  19.975  0.00  0.00    +0.000 C 
ATOM     22  C   UNL     1      -1.797  14.645  20.566  0.00  0.00    +0.000 C 
ENDBRANCH  15  17
ENDBRANCH  12  13
BRANCH   1  23
ATOM     23  O   UNL     1      -0.171  10.855  19.130  0.00  0.00    +0.000 OA
BRANCH  23  24
ATOM     24  C   UNL     1      -0.717  10.115  18.034  0.00  0.00    +0.000 C 
BRANCH  24  28
ATOM     25  C   UNL     1      -4.551  10.713  17.813  0.00  0.00    +0.000 C 
ATOM     26  C   UNL     1      -3.268  10.046  17.451  0.00  0.00    +0.000 C 
ATOM     27  C   UNL     1      -2.528  10.454  16.203  0.00  0.00    +0.000 C 
ATOM     28  C   UNL     1      -1.964  10.803  17.561  0.00  0.00    +0.000 C 
ENDBRANCH  24  28
ENDBRANCH  23  24
ENDBRANCH   1  23
BRANCH   8  29
ATOM     29  C   UNL     1       1.141   3.249  20.323  0.00  0.00    +0.000 C 
BRANCH  29  30
ATOM     30  C   UNL     1       2.353   2.870  21.141  0.00  0.00    +0.000 C 
ATOM     31  O   UNL     1       2.371   2.904  22.364  0.00  0.00    +0.000 OA
BRANCH  30  32
ATOM     32  O   UNL     1       3.399   2.452  20.402  0.00  0.00    +0.000 OA
ATOM     33  H   UNL     1       3.229   1.653  19.870  0.00  0.00    +0.000 HD
ENDBRANCH  30  32
ENDBRANCH  29  30
ENDBRANCH   8  29
TORSDOF 8
ENDMDL
MODEL 4
REMARK VINA RESULT:      -7.8      2.836      9.046
REMARK  Name = 
REMARK  9 active torsions:
REMARK  status: ('A' for Active; 'I' for Inactive)
REMARK    1  A    between atoms: C_1  and  C_2
REMARK    2  A    between atoms: C_4  and  C_5
REMARK    3  A    between atoms: C_5  and  O_6
REMARK    4  A    between atoms: O_6  and  C_7
REMARK    5  A    between atoms: C_14  and  C_15
REMARK    6  A    between atoms: C_15  and  C_16
REMARK    7  A    between atoms: C_16  and  O_18
REMARK    8  A    between atoms: C_22  and  C_23
REMARK    9  A    between atoms: N_25  and  C_26
REMARK                            x       y       z     vdW  Elec       q    Type
REMARK                         _______ _______ _______ _____ _____    ______ ____
ROOT
ATOM      1  C   UNL     1       0.101  10.004  20.443  0.00  0.00    +0.000 A 
ATOM      2  N   UNL     1       0.848   9.051  19.824  0.00  0.00    +0.000 NA
ATOM      3  C   UNL     1       1.559   8.185  20.572  0.00  0.00    +0.000 A 
ATOM      4  N   UNL     1       2.211   7.144  19.943  0.00  0.00    +0.000 N 
ATOM      5  C   UNL     1       2.699   7.310  18.581  0.00  0.00    +0.000 C 
ATOM      6  C   UNL     1       2.015   6.329  17.633  0.00  0.00    +0.000 C 
ATOM      7  C   UNL     1       2.088   4.900  18.164  0.00  0.00    +0.000 C 
ATOM      8  C   UNL     1       1.498   4.807  19.581  0.00  0.00    +0.000 C 
ATOM      9  C   UNL     1       2.206   5.805  20.523  0.00  0.00    +0.000 C 
ATOM     10  C   UNL     1       1.609   8.335  21.955  0.00  0.00    +0.000 A 
ATOM     11  C   UNL     1       0.875   9.340  22.580  0.00  0.00    +0.000 A 
ATOM     12  C   UNL     1       0.068  10.188  21.821  0.00  0.00    +0.000 A 
ENDROOT
BRANCH  12  13
ATOM     13  C   UNL     1      -0.820  11.138  22.553  0.00  0.00    +0.000 C 
ATOM     14  O   UNL     1      -1.652  10.701  23.336  0.00  0.00    +0.000 OA
ATOM     15  N   UNL     1      -0.666  12.483  22.300  0.00  0.00    +0.000 N 
ATOM     16  H   UNL     1       0.073  12.765  21.664  0.00  0.00    +0.000 HD
BRANCH  15  17
ATOM     17  C   UNL     1      -1.479  13.518  22.932  0.00  0.00    +0.000 C 
ATOM     18  C   UNL     1      -0.710  14.834  23.092  0.00  0.00    +0.000 C 
ATOM     19  C   UNL     1      -0.354  15.437  21.735  0.00  0.00    +0.000 C 
ATOM     20  C   UNL     1      -1.596  15.659  20.876  0.00  0.00    +0.000 C 
ATOM     21  C   UNL     1      -2.453  14.401  20.752  0.00  0.00    +0.000 C 
ATOM     22  C   UNL     1      -2.756  13.779  22.120  0.00  0.00    +0.000 C 
ENDBRANCH  15  17
ENDBRANCH  12  13
BRANCH   1  23
ATOM     23  O   UNL     1      -0.658  10.828  19.628  0.00  0.00    +0.000 OA
BRANCH  23  24
ATOM     24  C   UNL     1      -0.484  10.499  18.247  0.00  0.00    +0.000 C 
BRANCH  24  28
ATOM     25  C   UNL     1      -3.125  10.066  15.429  0.00  0.00    +0.000 C 
ATOM     26  C   UNL     1      -2.380  10.827  16.472  0.00  0.00    +0.000 C 
ATOM     27  C   UNL     1      -2.990  11.044  17.833  0.00  0.00    +0.000 C 
ATOM     28  C   UNL     1      -1.815  10.107  17.674  0.00  0.00    +0.000 C 
ENDBRANCH  24  28
ENDBRANCH  23  24
ENDBRANCH   1  23
BRANCH   8  29
ATOM     29  C   UNL     1       1.609   3.368  20.103  0.00  0.00    +0.000 C 
BRANCH  29  30
ATOM     30  C   UNL     1       1.272   2.345  19.043  0.00  0.00    +0.000 C 
ATOM     31  O   UNL     1       0.167   2.261  18.525  0.00  0.00    +0.000 OA
BRANCH  30  32
ATOM     32  O   UNL     1       2.311   1.562  18.693  0.00  0.00    +0.000 OA
ATOM     33  H   UNL     1       2.885   1.291  19.433  0.00  0.00    +0.000 HD
ENDBRANCH  30  32
ENDBRANCH  29  30
ENDBRANCH   8  29
TORSDOF 8
ENDMDL
MODEL 5
REMARK VINA RESULT:      -7.7      2.667      8.773
REMARK  Name = 
REMARK  9 active torsions:
REMARK  status: ('A' for Active; 'I' for Inactive)
REMARK    1  A    between atoms: C_1  and  C_2
REMARK    2  A    between atoms: C_4  and  C_5
REMARK    3  A    between atoms: C_5  and  O_6
REMARK    4  A    between atoms: O_6  and  C_7
REMARK    5  A    between atoms: C_14  and  C_15
REMARK    6  A    between atoms: C_15  and  C_16
REMARK    7  A    between atoms: C_16  and  O_18
REMARK    8  A    between atoms: C_22  and  C_23
REMARK    9  A    between atoms: N_25  and  C_26
REMARK                            x       y       z     vdW  Elec       q    Type
REMARK                         _______ _______ _______ _____ _____    ______ ____
ROOT
ATOM      1  C   UNL     1       0.758   9.942  19.671  0.00  0.00    +0.000 A 
ATOM      2  N   UNL     1       1.394   8.797  19.305  0.00  0.00    +0.000 NA
ATOM      3  C   UNL     1       1.745   7.908  20.254  0.00  0.00    +0.000 A 
ATOM      4  N   UNL     1       2.273   6.694  19.864  0.00  0.00    +0.000 N 
ATOM      5  C   UNL     1       3.044   6.600  18.632  0.00  0.00    +0.000 C 
ATOM      6  C   UNL     1       2.368   5.661  17.636  0.00  0.00    +0.000 C 
ATOM      7  C   UNL     1       2.032   4.318  18.280  0.00  0.00    +0.000 C 
ATOM      8  C   UNL     1       1.169   4.509  19.538  0.00  0.00    +0.000 C 
ATOM      9  C   UNL     1       1.871   5.460  20.531  0.00  0.00    +0.000 C 
ATOM     10  C   UNL     1       1.552   8.210  21.599  0.00  0.00    +0.000 A 
ATOM     11  C   UNL     1       0.938   9.404  21.971  0.00  0.00    +0.000 A 
ATOM     12  C   UNL     1       0.494  10.293  20.991  0.00  0.00    +0.000 A 
ENDROOT
BRANCH  12  13
ATOM     13  C   UNL     1      -0.300  11.474  21.437  0.00  0.00    +0.000 C 
ATOM     14  O   UNL     1      -1.387  11.302  21.971  0.00  0.00    +0.000 OA
ATOM     15  N   UNL     1       0.232  12.725  21.214  0.00  0.00    +0.000 N 
ATOM     16  H   UNL     1       1.157  12.780  20.798  0.00  0.00    +0.000 HD
BRANCH  15  17
ATOM     17  C   UNL     1      -0.445  13.965  21.582  0.00  0.00    +0.000 C 
ATOM     18  C   UNL     1       0.543  15.046  22.034  0.00  0.00    +0.000 C 
ATOM     19  C   UNL     1       1.464  15.468  20.891  0.00  0.00    +0.000 C 
ATOM     20  C   UNL     1       0.671  15.956  19.682  0.00  0.00    +0.000 C 
ATOM     21  C   UNL     1      -0.394  14.955  19.238  0.00  0.00    +0.000 C 
ATOM     22  C   UNL     1      -1.275  14.503  20.407  0.00  0.00    +0.000 C 
ENDBRANCH  15  17
ENDBRANCH  12  13
BRANCH   1  23
ATOM     23  O   UNL     1       0.366  10.791  18.651  0.00  0.00    +0.000 OA
BRANCH  23  24
ATOM     24  C   UNL     1      -1.054  10.957  18.626  0.00  0.00    +0.000 C 
BRANCH  24  28
ATOM     25  C   UNL     1      -2.773  10.433  15.180  0.00  0.00    +0.000 C 
ATOM     26  C   UNL     1      -2.748  10.689  16.648  0.00  0.00    +0.000 C 
ATOM     27  C   UNL     1      -3.001   9.565  17.618  0.00  0.00    +0.000 C 
ATOM     28  C   UNL     1      -1.615  10.151  17.490  0.00  0.00    +0.000 C 
ENDBRANCH  24  28
ENDBRANCH  23  24
ENDBRANCH   1  23
BRANCH   8  29
ATOM     29  C   UNL     1       0.868   3.149  20.181  0.00  0.00    +0.000 C 
BRANCH  29  30
ATOM     30  C   UNL     1       1.863   2.791  21.260  0.00  0.00    +0.000 C 
ATOM     31  O   UNL     1       1.561   2.697  22.441  0.00  0.00    +0.000 OA
BRANCH  30  32
ATOM     32  O   UNL     1       3.104   2.545  20.796  0.00  0.00    +0.000 OA
ATOM     33  H   UNL     1       3.811   2.615  21.465  0.00  0.00    +0.000 HD
ENDBRANCH  30  32
ENDBRANCH  29  30
ENDBRANCH   8  29
TORSDOF 8
ENDMDL
MODEL 6
REMARK VINA RESULT:      -7.7      1.243      1.416
REMARK  Name = 
REMARK  9 active torsions:
REMARK  status: ('A' for Active; 'I' for Inactive)
REMARK    1  A    between atoms: C_1  and  C_2
REMARK    2  A    between atoms: C_4  and  C_5
REMARK    3  A    between atoms: C_5  and  O_6
REMARK    4  A    between atoms: O_6  and  C_7
REMARK    5  A    between atoms: C_14  and  C_15
REMARK    6  A    between atoms: C_15  and  C_16
REMARK    7  A    between atoms: C_16  and  O_18
REMARK    8  A    between atoms: C_22  and  C_23
REMARK    9  A    between atoms: N_25  and  C_26
REMARK                            x       y       z     vdW  Elec       q    Type
REMARK                         _______ _______ _______ _____ _____    ______ ____
ROOT
ATOM      1  C   UNL     1       2.868   6.495  19.528  0.00  0.00    +0.000 A 
ATOM      2  N   UNL     1       2.078   7.580  19.747  0.00  0.00    +0.000 NA
ATOM      3  C   UNL     1       2.050   8.569  18.832  0.00  0.00    +0.000 A 
ATOM      4  N   UNL     1       1.152   9.603  18.998  0.00  0.00    +0.000 N 
ATOM      5  C   UNL     1       0.751  10.008  20.339  0.00  0.00    +0.000 C 
ATOM      6  C   UNL     1      -0.748   9.806  20.544  0.00  0.00    +0.000 C 
ATOM      7  C   UNL     1      -1.554  10.448  19.419  0.00  0.00    +0.000 C 
ATOM      8  C   UNL     1      -1.105   9.920  18.046  0.00  0.00    +0.000 C 
ATOM      9  C   UNL     1       0.412  10.136  17.859  0.00  0.00    +0.000 C 
ATOM     10  C   UNL     1       2.901   8.525  17.731  0.00  0.00    +0.000 A 
ATOM     11  C   UNL     1       3.740   7.430  17.534  0.00  0.00    +0.000 A 
ATOM     12  C   UNL     1       3.713   6.362  18.431  0.00  0.00    +0.000 A 
ENDROOT
BRANCH  12  13
ATOM     13  C   UNL     1       4.508   5.148  18.086  0.00  0.00    +0.000 C 
ATOM     14  O   UNL     1       4.868   4.391  18.977  0.00  0.00    +0.000 OA
ATOM     15  N   UNL     1       4.812   4.937  16.759  0.00  0.00    +0.000 N 
ATOM     16  H   UNL     1       4.444   5.593  16.077  0.00  0.00    +0.000 HD
BRANCH  15  17
ATOM     17  C   UNL     1       5.597   3.800  16.284  0.00  0.00    +0.000 C 
ATOM     18  C   UNL     1       5.197   3.378  14.867  0.00  0.00    +0.000 C 
ATOM     19  C   UNL     1       5.508   4.477  13.852  0.00  0.00    +0.000 C 
ATOM     20  C   UNL     1       6.983   4.869  13.884  0.00  0.00    +0.000 C 
ATOM     21  C   UNL     1       7.465   5.216  15.291  0.00  0.00    +0.000 C 
ATOM     22  C   UNL     1       7.098   4.128  16.305  0.00  0.00    +0.000 C 
ENDBRANCH  15  17
ENDBRANCH  12  13
BRANCH   1  23
ATOM     23  O   UNL     1       2.811   5.483  20.470  0.00  0.00    +0.000 OA
BRANCH  23  24
ATOM     24  C   UNL     1       1.546   4.817  20.445  0.00  0.00    +0.000 C 
BRANCH  24  28
ATOM     25  C   UNL     1       2.424   2.221  17.689  0.00  0.00    +0.000 C 
ATOM     26  C   UNL     1       1.530   3.173  18.407  0.00  0.00    +0.000 C 
ATOM     27  C   UNL     1       0.528   2.663  19.410  0.00  0.00    +0.000 C 
ATOM     28  C   UNL     1       1.736   3.439  19.881  0.00  0.00    +0.000 C 
ENDBRANCH  24  28
ENDBRANCH  23  24
ENDBRANCH   1  23
BRANCH   8  29
ATOM     29  C   UNL     1      -1.911  10.600  16.932  0.00  0.00    +0.000 C 
BRANCH  29  30
ATOM     30  C   UNL     1      -3.377  10.722  17.275  0.00  0.00    +0.000 C 
ATOM     31  O   UNL     1      -4.046   9.784  17.685  0.00  0.00    +0.000 OA
BRANCH  30  32
ATOM     32  O   UNL     1      -3.869  11.968  17.127  0.00  0.00    +0.000 OA
ATOM     33  H   UNL     1      -3.707  12.563  17.882  0.00  0.00    +0.000 HD
ENDBRANCH  30  32
ENDBRANCH  29  30
ENDBRANCH   8  29
TORSDOF 8
ENDMDL
MODEL 7
REMARK VINA RESULT:      -7.7      2.936      8.411
REMARK  Name = 
REMARK  9 active torsions:
REMARK  status: ('A' for Active; 'I' for Inactive)
REMARK    1  A    between atoms: C_1  and  C_2
REMARK    2  A    between atoms: C_4  and  C_5
REMARK    3  A    between atoms: C_5  and  O_6
REMARK    4  A    between atoms: O_6  and  C_7
REMARK    5  A    between atoms: C_14  and  C_15
REMARK    6  A    between atoms: C_15  and  C_16
REMARK    7  A    between atoms: C_16  and  O_18
REMARK    8  A    between atoms: C_22  and  C_23
REMARK    9  A    between atoms: N_25  and  C_26
REMARK                            x       y       z     vdW  Elec       q    Type
REMARK                         _______ _______ _______ _____ _____    ______ ____
ROOT
ATOM      1  C   UNL     1       1.339   9.375  20.090  0.00  0.00    +0.000 A 
ATOM      2  N   UNL     1       1.738   8.086  19.917  0.00  0.00    +0.000 NA
ATOM      3  C   UNL     1       2.107   7.672  18.689  0.00  0.00    +0.000 A 
ATOM      4  N   UNL     1       2.631   6.404  18.545  0.00  0.00    +0.000 N 
ATOM      5  C   UNL     1       2.207   5.337  19.441  0.00  0.00    +0.000 C 
ATOM      6  C   UNL     1       3.385   4.808  20.255  0.00  0.00    +0.000 C 
ATOM      7  C   UNL     1       4.565   4.450  19.356  0.00  0.00    +0.000 C 
ATOM      8  C   UNL     1       4.983   5.651  18.489  0.00  0.00    +0.000 C 
ATOM      9  C   UNL     1       3.778   6.168  17.674  0.00  0.00    +0.000 C 
ATOM     10  C   UNL     1       1.978   8.525  17.596  0.00  0.00    +0.000 A 
ATOM     11  C   UNL     1       1.527   9.832  17.774  0.00  0.00    +0.000 A 
ATOM     12  C   UNL     1       1.225  10.296  19.055  0.00  0.00    +0.000 A 
ENDROOT
BRANCH  12  13
ATOM     13  C   UNL     1       0.906  11.745  19.209  0.00  0.00    +0.000 C 
ATOM     14  O   UNL     1      -0.193  12.159  18.864  0.00  0.00    +0.000 OA
ATOM     15  N   UNL     1       1.882  12.563  19.732  0.00  0.00    +0.000 N 
ATOM     16  H   UNL     1       2.753  12.134  20.028  0.00  0.00    +0.000 HD
BRANCH  15  17
ATOM     17  C   UNL     1       1.711  14.002  19.920  0.00  0.00    +0.000 C 
ATOM     18  C   UNL     1       2.247  14.471  21.277  0.00  0.00    +0.000 C 
ATOM     19  C   UNL     1       3.759  14.275  21.373  0.00  0.00    +0.000 C 
ATOM     20  C   UNL     1       4.491  14.995  20.244  0.00  0.00    +0.000 C 
ATOM     21  C   UNL     1       3.939  14.635  18.866  0.00  0.00    +0.000 C 
ATOM     22  C   UNL     1       2.416  14.785  18.803  0.00  0.00    +0.000 C 
ENDBRANCH  15  17
ENDBRANCH  12  13
BRANCH   1  23
ATOM     23  O   UNL     1       1.030   9.762  21.383  0.00  0.00    +0.000 OA
BRANCH  23  24
ATOM     24  C   UNL     1      -0.363   9.598  21.658  0.00  0.00    +0.000 C 
BRANCH  24  28
ATOM     25  C   UNL     1      -2.840  12.037  23.396  0.00  0.00    +0.000 C 
ATOM     26  C   UNL     1      -1.866  11.630  22.345  0.00  0.00    +0.000 C 
ATOM     27  C   UNL     1      -0.430  12.078  22.427  0.00  0.00    +0.000 C 
ATOM     28  C   UNL     1      -0.781  10.628  22.667  0.00  0.00    +0.000 C 
ENDBRANCH  24  28
ENDBRANCH  23  24
ENDBRANCH   1  23
BRANCH   8  29
ATOM     29  C   UNL     1       6.152   5.258  17.576  0.00  0.00    +0.000 C 
BRANCH  29  30
ATOM     30  C   UNL     1       7.285   6.258  17.632  0.00  0.00    +0.000 C 
ATOM     31  O   UNL     1       7.628   6.931  16.670  0.00  0.00    +0.000 OA
BRANCH  30  32
ATOM     32  O   UNL     1       7.854   6.367  18.848  0.00  0.00    +0.000 OA
ATOM     33  H   UNL     1       8.212   5.535  19.207  0.00  0.00    +0.000 HD
ENDBRANCH  30  32
ENDBRANCH  29  30
ENDBRANCH   8  29
TORSDOF 8
ENDMDL
MODEL 8
REMARK VINA RESULT:      -7.6      2.810      9.187
REMARK  Name = 
REMARK  9 active torsions:
REMARK  status: ('A' for Active; 'I' for Inactive)
REMARK    1  A    between atoms: C_1  and  C_2
REMARK    2  A    between atoms: C_4  and  C_5
REMARK    3  A    between atoms: C_5  and  O_6
REMARK    4  A    between atoms: O_6  and  C_7
REMARK    5  A    between atoms: C_14  and  C_15
REMARK    6  A    between atoms: C_15  and  C_16
REMARK    7  A    between atoms: C_16  and  O_18
REMARK    8  A    between atoms: C_22  and  C_23
REMARK    9  A    between atoms: N_25  and  C_26
REMARK                            x       y       z     vdW  Elec       q    Type
REMARK                         _______ _______ _______ _____ _____    ______ ____
ROOT
ATOM      1  C   UNL     1      -0.119  10.184  20.278  0.00  0.00    +0.000 A 
ATOM      2  N   UNL     1       0.695   9.220  19.770  0.00  0.00    +0.000 NA
ATOM      3  C   UNL     1       1.388   8.432  20.616  0.00  0.00    +0.000 A 
ATOM      4  N   UNL     1       2.111   7.376  20.099  0.00  0.00    +0.000 N 
ATOM      5  C   UNL     1       2.674   7.469  18.759  0.00  0.00    +0.000 C 
ATOM      6  C   UNL     1       2.082   6.403  17.842  0.00  0.00    +0.000 C 
ATOM      7  C   UNL     1       2.169   5.016  18.474  0.00  0.00    +0.000 C 
ATOM      8  C   UNL     1       1.498   4.995  19.857  0.00  0.00    +0.000 C 
ATOM      9  C   UNL     1       2.114   6.079  20.768  0.00  0.00    +0.000 C 
ATOM     10  C   UNL     1       1.350   8.675  21.986  0.00  0.00    +0.000 A 
ATOM     11  C   UNL     1       0.547   9.692  22.497  0.00  0.00    +0.000 A 
ATOM     12  C   UNL     1      -0.240  10.457  21.636  0.00  0.00    +0.000 A 
ENDROOT
BRANCH  12  13
ATOM     13  C   UNL     1      -1.202  11.420  22.248  0.00  0.00    +0.000 C 
ATOM     14  O   UNL     1      -1.817  11.098  23.256  0.00  0.00    +0.000 OA
ATOM     15  N   UNL     1      -1.363  12.642  21.634  0.00  0.00    +0.000 N 
ATOM     16  H   UNL     1      -0.788  12.845  20.823  0.00  0.00    +0.000 HD
BRANCH  15  17
ATOM     17  C   UNL     1      -2.283  13.670  22.116  0.00  0.00    +0.000 C 
ATOM     18  C   UNL     1      -1.693  14.465  23.286  0.00  0.00    +0.000 C 
ATOM     19  C   UNL     1      -0.464  15.260  22.851  0.00  0.00    +0.000 C 
ATOM     20  C   UNL     1      -0.783  16.198  21.690  0.00  0.00    +0.000 C 
ATOM     21  C   UNL     1      -1.456  15.476  20.525  0.00  0.00    +0.000 C 
ATOM     22  C   UNL     1      -2.655  14.641  20.986  0.00  0.00    +0.000 C 
ENDBRANCH  15  17
ENDBRANCH  12  13
BRANCH   1  23
ATOM     23  O   UNL     1      -0.853  10.922  19.366  0.00  0.00    +0.000 OA
BRANCH  23  24
ATOM     24  C   UNL     1      -0.995  10.227  18.125  0.00  0.00    +0.000 C 
BRANCH  24  28
ATOM     25  C   UNL     1      -4.674  11.147  17.276  0.00  0.00    +0.000 C 
ATOM     26  C   UNL     1      -3.471  10.268  17.274  0.00  0.00    +0.000 C 
ATOM     27  C   UNL     1      -2.575  10.211  16.064  0.00  0.00    +0.000 C 
ATOM     28  C   UNL     1      -2.089  10.878  17.330  0.00  0.00    +0.000 C 
ENDBRANCH  24  28
ENDBRANCH  23  24
ENDBRANCH   1  23
BRANCH   8  29
ATOM     29  C   UNL     1       1.624   3.600  20.482  0.00  0.00    +0.000 C 
BRANCH  29  30
ATOM     30  C   UNL     1       1.315   2.498  19.495  0.00  0.00    +0.000 C 
ATOM     31  O   UNL     1       2.161   1.721  19.076  0.00  0.00    +0.000 OA
BRANCH  30  32
ATOM     32  O   UNL     1       0.014   2.426  19.150  0.00  0.00    +0.000 OA
ATOM     33  H   UNL     1      -0.611   2.548  19.888  0.00  0.00    +0.000 HD
ENDBRANCH  30  32
ENDBRANCH  29  30
ENDBRANCH   8  29
TORSDOF 8
ENDMDL
MODEL 9
REMARK VINA RESULT:      -7.6      2.982      9.226
REMARK  Name = 
REMARK  9 active torsions:
REMARK  status: ('A' for Active; 'I' for Inactive)
REMARK    1  A    between atoms: C_1  and  C_2
REMARK    2  A    between atoms: C_4  and  C_5
REMARK    3  A    between atoms: C_5  and  O_6
REMARK    4  A    between atoms: O_6  and  C_7
REMARK    5  A    between atoms: C_14  and  C_15
REMARK    6  A    between atoms: C_15  and  C_16
REMARK    7  A    between atoms: C_16  and  O_18
REMARK    8  A    between atoms: C_22  and  C_23
REMARK    9  A    between atoms: N_25  and  C_26
REMARK                            x       y       z     vdW  Elec       q    Type
REMARK                         _______ _______ _______ _____ _____    ______ ____
ROOT
ATOM      1  C   UNL     1       0.218  10.055  20.351  0.00  0.00    +0.000 A 
ATOM      2  N   UNL     1       0.980   9.050  19.842  0.00  0.00    +0.000 NA
ATOM      3  C   UNL     1       1.510   8.137  20.680  0.00  0.00    +0.000 A 
ATOM      4  N   UNL     1       2.173   7.052  20.146  0.00  0.00    +0.000 N 
ATOM      5  C   UNL     1       2.868   7.180  18.872  0.00  0.00    +0.000 C 
ATOM      6  C   UNL     1       2.265   6.247  17.825  0.00  0.00    +0.000 C 
ATOM      7  C   UNL     1       2.158   4.818  18.350  0.00  0.00    +0.000 C 
ATOM      8  C   UNL     1       1.359   4.770  19.663  0.00  0.00    +0.000 C 
ATOM      9  C   UNL     1       1.988   5.717  20.707  0.00  0.00    +0.000 C 
ATOM     10  C   UNL     1       1.365   8.286  22.056  0.00  0.00    +0.000 A 
ATOM     11  C   UNL     1       0.618   9.343  22.574  0.00  0.00    +0.000 A 
ATOM     12  C   UNL     1      -0.005  10.244  21.711  0.00  0.00    +0.000 A 
ENDROOT
BRANCH  12  13
ATOM     13  C   UNL     1      -0.923  11.255  22.311  0.00  0.00    +0.000 C 
ATOM     14  O   UNL     1      -1.605  10.950  23.280  0.00  0.00    +0.000 OA
ATOM     15  N   UNL     1      -0.969  12.503  21.730  0.00  0.00    +0.000 N 
ATOM     16  H   UNL     1      -0.344  12.688  20.951  0.00  0.00    +0.000 HD
BRANCH  15  17
ATOM     17  C   UNL     1      -1.835  13.580  22.203  0.00  0.00    +0.000 C 
ATOM     18  C   UNL     1      -1.118  14.495  23.202  0.00  0.00    +0.000 C 
ATOM     19  C   UNL     1       0.044  15.235  22.541  0.00  0.00    +0.000 C 
ATOM     20  C   UNL     1      -0.420  16.042  21.331  0.00  0.00    +0.000 C 
ATOM     21  C   UNL     1      -1.219  15.200  20.339  0.00  0.00    +0.000 C 
ATOM     22  C   UNL     1      -2.347  14.424  21.027  0.00  0.00    +0.000 C 
ENDBRANCH  15  17
ENDBRANCH  12  13
BRANCH   1  23
ATOM     23  O   UNL     1      -0.351  10.928  19.440  0.00  0.00    +0.000 OA
BRANCH  23  24
ATOM     24  C   UNL     1       0.611  11.388  18.487  0.00  0.00    +0.000 C 
BRANCH  24  28
ATOM     25  C   UNL     1       2.695  14.652  18.161  0.00  0.00    +0.000 C 
ATOM     26  C   UNL     1       2.444  13.254  18.612  0.00  0.00    +0.000 C 
ATOM     27  C   UNL     1       1.973  12.984  20.018  0.00  0.00    +0.000 C 
ATOM     28  C   UNL     1       1.028  12.782  18.856  0.00  0.00    +0.000 C 
ENDBRANCH  24  28
ENDBRANCH  23  24
ENDBRANCH   1  23
BRANCH   8  29
ATOM     29  C   UNL     1       1.290   3.328  20.183  0.00  0.00    +0.000 C 
BRANCH  29  30
ATOM     30  C   UNL     1       1.121   2.322  19.068  0.00  0.00    +0.000 C 
ATOM     31  O   UNL     1       0.111   2.249  18.383  0.00  0.00    +0.000 OA
BRANCH  30  32
ATOM     32  O   UNL     1       2.202   1.542  18.872  0.00  0.00    +0.000 OA
ATOM     33  H   UNL     1       2.897   1.631  19.549  0.00  0.00    +0.000 HD
ENDBRANCH  30  32
ENDBRANCH  29  30
ENDBRANCH   8  29
TORSDOF 8
ENDMDL
