MODEL 1
REMARK VINA RESULT:      -7.3      0.000      0.000
REMARK  Name = 
REMARK  7 active torsions:
REMARK  status: ('A' for Active; 'I' for Inactive)
REMARK    1  A    between atoms: C_1  and  C_2
REMARK    2  A    between atoms: C_2  and  C_3
REMARK    3  A    between atoms: C_3  and  C_4
REMARK    4  A    between atoms: C_4  and  C_5
REMARK    5  A    between atoms: N_16  and  S_17
REMARK    6  A    between atoms: S_17  and  C_20
REMARK    7  A    between atoms: C_25  and  N_26
REMARK                            x       y       z     vdW  Elec       q    Type
REMARK                         _______ _______ _______ _____ _____    ______ ____
ROOT
ATOM      1  C   UNL     1       4.062   6.099  18.207  0.00  0.00    +0.000 C 
ATOM      2  C   UNL     1       3.241   4.953  17.519  0.00  0.00    +0.000 C 
ATOM      3  C   UNL     1       4.100   3.901  16.736  0.00  0.00    +0.000 C 
ATOM      4  C   UNL     1       4.122   2.456  17.256  0.00  0.00    +0.000 C 
ATOM      5  C   UNL     1       2.769   2.019  17.775  0.00  0.00    +0.000 C 
ATOM      6  N   UNL     1       2.346   2.883  18.857  0.00  0.00    +0.000 NA
ATOM      7  C   UNL     1       3.099   2.733  20.095  0.00  0.00    +0.000 C 
ATOM      8  C   UNL     1       2.286   3.280  21.272  0.00  0.00    +0.000 C 
ATOM      9  C   UNL     1       1.181   4.235  20.822  0.00  0.00    +0.000 C 
ATOM     10  C   UNL     1       1.639   5.116  19.651  0.00  0.00    +0.000 C 
ATOM     11  C   UNL     1       2.639   6.149  20.163  0.00  0.00    +0.000 C 
ATOM     12  N   UNL     1       3.168   6.968  19.058  0.00  0.00    +0.000 NA
ATOM     13  C   UNL     1       2.141   4.282  18.437  0.00  0.00    +0.000 C 
ENDROOT
BRANCH  12  14
ATOM     14  S   UNL     1       2.107   8.176  18.418  0.00  0.00    +0.000 S 
ATOM     15  O   UNL     1       2.871   9.275  17.886  0.00  0.00    +0.000 OA
ATOM     16  O   UNL     1       1.124   7.509  17.594  0.00  0.00    +0.000 OA
BRANCH  14  17
ATOM     17  C   UNL     1       1.257   8.833  19.852  0.00  0.00    +0.000 A 
ATOM     18  C   UNL     1       1.483   8.288  21.124  0.00  0.00    +0.000 A 
ATOM     19  C   UNL     1       0.902   8.865  22.269  0.00  0.00    +0.000 A 
ATOM     20  C   UNL     1       0.122  10.022  22.159  0.00  0.00    +0.000 A 
ATOM     21  C   UNL     1      -0.120  10.565  20.899  0.00  0.00    +0.000 A 
ATOM     22  C   UNL     1       0.438   9.958  19.755  0.00  0.00    +0.000 A 
BRANCH  22  23
ATOM     23  N   UNL     1       0.065  10.550  18.488  0.00  0.00    +0.000 N 
ATOM     24  O   UNL     1      -0.857  10.007  17.871  0.00  0.00    +0.000 OA
ATOM     25  O   UNL     1       0.596  11.629  18.200  0.00  0.00    +0.000 OA
ENDBRANCH  22  23
ENDBRANCH  14  17
ENDBRANCH  12  14
BRANCH   1  26
ATOM     26  C   UNL     1       5.014   6.947  17.324  0.00  0.00    +0.000 C 
BRANCH  26  27
ATOM     27  C   UNL     1       6.524   6.876  17.673  0.00  0.00    +0.000 C 
BRANCH  27  29
ATOM     28  C   UNL     1       7.607   4.594  17.638  0.00  0.00    +0.000 C 
ATOM     29  C   UNL     1       6.967   5.673  18.509  0.00  0.00    +0.000 C 
ENDBRANCH  27  29
ENDBRANCH  26  27
ENDBRANCH   1  26
TORSDOF 6
ENDMDL
MODEL 2
REMARK VINA RESULT:      -6.9      3.848      8.732
REMARK  Name = 
REMARK  7 active torsions:
REMARK  status: ('A' for Active; 'I' for Inactive)
REMARK    1  A    between atoms: C_1  and  C_2
REMARK    2  A    between atoms: C_2  and  C_3
REMARK    3  A    between atoms: C_3  and  C_4
REMARK    4  A    between atoms: C_4  and  C_5
REMARK    5  A    between atoms: N_16  and  S_17
REMARK    6  A    between atoms: S_17  and  C_20
REMARK    7  A    between atoms: C_25  and  N_26
REMARK                            x       y       z     vdW  Elec       q    Type
REMARK                         _______ _______ _______ _____ _____    ______ ____
ROOT
ATOM      1  C   UNL     1      -2.186  10.977  19.954  0.00  0.00    +0.000 C 
ATOM      2  C   UNL     1      -2.779  12.385  19.596  0.00  0.00    +0.000 C 
ATOM      3  C   UNL     1      -4.197  12.357  18.928  0.00  0.00    +0.000 C 
ATOM      4  C   UNL     1      -5.372  12.969  19.704  0.00  0.00    +0.000 C 
ATOM      5  C   UNL     1      -4.968  14.220  20.453  0.00  0.00    +0.000 C 
ATOM      6  N   UNL     1      -3.912  13.920  21.396  0.00  0.00    +0.000 NA
ATOM      7  C   UNL     1      -4.318  13.117  22.541  0.00  0.00    +0.000 C 
ATOM      8  C   UNL     1      -3.312  13.285  23.683  0.00  0.00    +0.000 C 
ATOM      9  C   UNL     1      -1.964  13.816  23.195  0.00  0.00    +0.000 C 
ATOM     10  C   UNL     1      -1.581  13.218  21.835  0.00  0.00    +0.000 C 
ATOM     11  C   UNL     1      -1.196  11.753  22.021  0.00  0.00    +0.000 C 
ATOM     12  N   UNL     1      -0.896  11.115  20.727  0.00  0.00    +0.000 NA
ATOM     13  C   UNL     1      -2.666  13.464  20.748  0.00  0.00    +0.000 C 
ENDROOT
BRANCH  12  14
ATOM     14  S   UNL     1       0.622  11.518  20.003  0.00  0.00    +0.000 S 
ATOM     15  O   UNL     1       0.411  12.328  18.829  0.00  0.00    +0.000 OA
ATOM     16  O   UNL     1       1.504  11.977  21.052  0.00  0.00    +0.000 OA
BRANCH  14  17
ATOM     17  C   UNL     1       1.262   9.957  19.399  0.00  0.00    +0.000 A 
ATOM     18  C   UNL     1       1.743   9.846  18.087  0.00  0.00    +0.000 A 
ATOM     19  C   UNL     1       2.344   8.655  17.639  0.00  0.00    +0.000 A 
ATOM     20  C   UNL     1       2.509   7.574  18.512  0.00  0.00    +0.000 A 
ATOM     21  C   UNL     1       2.024   7.669  19.814  0.00  0.00    +0.000 A 
ATOM     22  C   UNL     1       1.391   8.854  20.243  0.00  0.00    +0.000 A 
BRANCH  22  23
ATOM     23  N   UNL     1       0.853   8.825  21.585  0.00  0.00    +0.000 N 
ATOM     24  O   UNL     1      -0.239   8.267  21.734  0.00  0.00    +0.000 OA
ATOM     25  O   UNL     1       1.592   9.229  22.491  0.00  0.00    +0.000 OA
ENDBRANCH  22  23
ENDBRANCH  14  17
ENDBRANCH  12  14
BRANCH   1  26
ATOM     26  C   UNL     1      -2.066   9.926  18.821  0.00  0.00    +0.000 C 
BRANCH  26  27
ATOM     27  C   UNL     1      -2.027  10.476  17.370  0.00  0.00    +0.000 C 
BRANCH  27  29
ATOM     28  C   UNL     1      -2.973  10.544  15.029  0.00  0.00    +0.000 C 
ATOM     29  C   UNL     1      -2.986   9.821  16.375  0.00  0.00    +0.000 C 
ENDBRANCH  27  29
ENDBRANCH  26  27
ENDBRANCH   1  26
TORSDOF 6
ENDMDL
MODEL 3
REMARK VINA RESULT:      -6.7      5.750      9.698
REMARK  Name = 
REMARK  7 active torsions:
REMARK  status: ('A' for Active; 'I' for Inactive)
REMARK    1  A    between atoms: C_1  and  C_2
REMARK    2  A    between atoms: C_2  and  C_3
REMARK    3  A    between atoms: C_3  and  C_4
REMARK    4  A    between atoms: C_4  and  C_5
REMARK    5  A    between atoms: N_16  and  S_17
REMARK    6  A    between atoms: S_17  and  C_20
REMARK    7  A    between atoms: C_25  and  N_26
REMARK                            x       y       z     vdW  Elec       q    Type
REMARK                         _______ _______ _______ _____ _____    ______ ____
ROOT
ATOM      1  C   UNL     1      -3.221  12.416  20.291  0.00  0.00    +0.000 C 
ATOM      2  C   UNL     1      -3.929  13.776  20.624  0.00  0.00    +0.000 C 
ATOM      3  C   UNL     1      -5.320  13.985  19.932  0.00  0.00    +0.000 C 
ATOM      4  C   UNL     1      -6.566  14.060  20.826  0.00  0.00    +0.000 C 
ATOM      5  C   UNL     1      -6.298  14.807  22.115  0.00  0.00    +0.000 C 
ATOM      6  N   UNL     1      -5.244  14.153  22.862  0.00  0.00    +0.000 NA
ATOM      7  C   UNL     1      -5.607  12.867  23.442  0.00  0.00    +0.000 C 
ATOM      8  C   UNL     1      -4.650  12.520  24.586  0.00  0.00    +0.000 C 
ATOM      9  C   UNL     1      -3.344  13.309  24.510  0.00  0.00    +0.000 C 
ATOM     10  C   UNL     1      -2.872  13.482  23.060  0.00  0.00    +0.000 C 
ATOM     11  C   UNL     1      -2.361  12.142  22.536  0.00  0.00    +0.000 C 
ATOM     12  N   UNL     1      -1.970  12.242  21.119  0.00  0.00    +0.000 NA
ATOM     13  C   UNL     1      -3.945  14.157  22.160  0.00  0.00    +0.000 C 
ENDROOT
BRANCH  12  14
ATOM     14  S   UNL     1      -0.475  13.047  20.786  0.00  0.00    +0.000 S 
ATOM     15  O   UNL     1      -0.709  14.199  19.953  0.00  0.00    +0.000 OA
ATOM     16  O   UNL     1       0.238  13.188  22.036  0.00  0.00    +0.000 OA
BRANCH  14  17
ATOM     17  C   UNL     1       0.440  11.895  19.765  0.00  0.00    +0.000 A 
ATOM     18  C   UNL     1      -0.059  10.606  19.526  0.00  0.00    +0.000 A 
ATOM     19  C   UNL     1       0.600   9.732  18.641  0.00  0.00    +0.000 A 
ATOM     20  C   UNL     1       1.742  10.153  17.951  0.00  0.00    +0.000 A 
ATOM     21  C   UNL     1       2.253  11.426  18.190  0.00  0.00    +0.000 A 
ATOM     22  C   UNL     1       1.607  12.282  19.105  0.00  0.00    +0.000 A 
BRANCH  22  23
ATOM     23  N   UNL     1       2.258  13.551  19.342  0.00  0.00    +0.000 N 
ATOM     24  O   UNL     1       3.011  13.615  20.319  0.00  0.00    +0.000 OA
ATOM     25  O   UNL     1       2.124  14.418  18.470  0.00  0.00    +0.000 OA
ENDBRANCH  22  23
ENDBRANCH  14  17
ENDBRANCH  12  14
BRANCH   1  26
ATOM     26  C   UNL     1      -2.976  12.066  18.801  0.00  0.00    +0.000 C 
BRANCH  26  27
ATOM     27  C   UNL     1      -3.872  10.950  18.199  0.00  0.00    +0.000 C 
BRANCH  27  29
ATOM     28  C   UNL     1      -2.746   9.883  16.204  0.00  0.00    +0.000 C 
ATOM     29  C   UNL     1      -3.142   9.713  17.670  0.00  0.00    +0.000 C 
ENDBRANCH  27  29
ENDBRANCH  26  27
ENDBRANCH   1  26
TORSDOF 6
ENDMDL
MODEL 4
REMARK VINA RESULT:      -6.4      6.875      9.339
REMARK  Name = 
REMARK  7 active torsions:
REMARK  status: ('A' for Active; 'I' for Inactive)
REMARK    1  A    between atoms: C_1  and  C_2
REMARK    2  A    between atoms: C_2  and  C_3
REMARK    3  A    between atoms: C_3  and  C_4
REMARK    4  A    between atoms: C_4  and  C_5
REMARK    5  A    between atoms: N_16  and  S_17
REMARK    6  A    between atoms: S_17  and  C_20
REMARK    7  A    between atoms: C_25  and  N_26
REMARK                            x       y       z     vdW  Elec       q    Type
REMARK                         _______ _______ _______ _____ _____    ______ ____
ROOT
ATOM      1  C   UNL     1      -2.598  11.944  20.710  0.00  0.00    +0.000 C 
ATOM      2  C   UNL     1      -2.525  12.022  19.145  0.00  0.00    +0.000 C 
ATOM      3  C   UNL     1      -1.605  10.946  18.470  0.00  0.00    +0.000 C 
ATOM      4  C   UNL     1      -2.267   9.894  17.569  0.00  0.00    +0.000 C 
ATOM      5  C   UNL     1      -3.393  10.479  16.744  0.00  0.00    +0.000 C 
ATOM      6  N   UNL     1      -4.410  11.036  17.611  0.00  0.00    +0.000 NA
ATOM      7  C   UNL     1      -5.189  10.056  18.356  0.00  0.00    +0.000 C 
ATOM      8  C   UNL     1      -6.510  10.678  18.816  0.00  0.00    +0.000 C 
ATOM      9  C   UNL     1      -6.465  12.205  18.816  0.00  0.00    +0.000 C 
ATOM     10  C   UNL     1      -5.098  12.730  19.277  0.00  0.00    +0.000 C 
ATOM     11  C   UNL     1      -4.952  12.497  20.778  0.00  0.00    +0.000 C 
ATOM     12  N   UNL     1      -3.620  12.913  21.252  0.00  0.00    +0.000 NA
ATOM     13  C   UNL     1      -3.925  12.170  18.423  0.00  0.00    +0.000 C 
ENDROOT
BRANCH  12  14
ATOM     14  S   UNL     1      -3.352  14.617  21.396  0.00  0.00    +0.000 S 
ATOM     15  O   UNL     1      -2.299  15.029  20.502  0.00  0.00    +0.000 OA
ATOM     16  O   UNL     1      -4.639  15.272  21.351  0.00  0.00    +0.000 OA
BRANCH  14  17
ATOM     17  C   UNL     1      -2.690  14.830  23.047  0.00  0.00    +0.000 A 
ATOM     18  C   UNL     1      -1.487  15.522  23.246  0.00  0.00    +0.000 A 
ATOM     19  C   UNL     1      -1.014  15.785  24.546  0.00  0.00    +0.000 A 
ATOM     20  C   UNL     1      -1.763  15.398  25.662  0.00  0.00    +0.000 A 
ATOM     21  C   UNL     1      -2.954  14.699  25.477  0.00  0.00    +0.000 A 
ATOM     22  C   UNL     1      -3.401  14.409  24.171  0.00  0.00    +0.000 A 
BRANCH  22  23
ATOM     23  N   UNL     1      -4.605  13.612  24.085  0.00  0.00    +0.000 N 
ATOM     24  O   UNL     1      -4.479  12.395  24.253  0.00  0.00    +0.000 OA
ATOM     25  O   UNL     1      -5.675  14.228  23.998  0.00  0.00    +0.000 OA
ENDBRANCH  22  23
ENDBRANCH  14  17
ENDBRANCH  12  14
BRANCH   1  26
ATOM     26  C   UNL     1      -1.269  12.007  21.507  0.00  0.00    +0.000 C 
BRANCH  26  27
ATOM     27  C   UNL     1      -1.290  11.393  22.932  0.00  0.00    +0.000 C 
BRANCH  27  29
ATOM     28  C   UNL     1      -0.219   9.449  21.725  0.00  0.00    +0.000 C 
ATOM     29  C   UNL     1      -0.653  10.010  23.079  0.00  0.00    +0.000 C 
ENDBRANCH  27  29
ENDBRANCH  26  27
ENDBRANCH   1  26
TORSDOF 6
ENDMDL
MODEL 5
REMARK VINA RESULT:      -6.4      6.226      9.756
REMARK  Name = 
REMARK  7 active torsions:
REMARK  status: ('A' for Active; 'I' for Inactive)
REMARK    1  A    between atoms: C_1  and  C_2
REMARK    2  A    between atoms: C_2  and  C_3
REMARK    3  A    between atoms: C_3  and  C_4
REMARK    4  A    between atoms: C_4  and  C_5
REMARK    5  A    between atoms: N_16  and  S_17
REMARK    6  A    between atoms: S_17  and  C_20
REMARK    7  A    between atoms: C_25  and  N_26
REMARK                            x       y       z     vdW  Elec       q    Type
REMARK                         _______ _______ _______ _____ _____    ______ ____
ROOT
ATOM      1  C   UNL     1      -2.156  12.275  22.338  0.00  0.00    +0.000 C 
ATOM      2  C   UNL     1      -0.774  11.579  22.596  0.00  0.00    +0.000 C 
ATOM      3  C   UNL     1      -0.863  10.122  23.170  0.00  0.00    +0.000 C 
ATOM      4  C   UNL     1      -0.353   8.969  22.293  0.00  0.00    +0.000 C 
ATOM      5  C   UNL     1       0.891   9.350  21.521  0.00  0.00    +0.000 C 
ATOM      6  N   UNL     1       0.619  10.484  20.663  0.00  0.00    +0.000 NA
ATOM      7  C   UNL     1      -0.250  10.204  19.528  0.00  0.00    +0.000 C 
ATOM      8  C   UNL     1      -0.065  11.275  18.449  0.00  0.00    +0.000 C 
ATOM      9  C   UNL     1       0.564  12.553  19.002  0.00  0.00    +0.000 C 
ATOM     10  C   UNL     1       0.044  12.876  20.409  0.00  0.00    +0.000 C 
ATOM     11  C   UNL     1      -1.402  13.357  20.310  0.00  0.00    +0.000 C 
ATOM     12  N   UNL     1      -1.971  13.604  21.647  0.00  0.00    +0.000 NA
ATOM     13  C   UNL     1       0.265  11.707  21.410  0.00  0.00    +0.000 C 
ENDROOT
BRANCH  12  14
ATOM     14  S   UNL     1      -1.449  15.044  22.452  0.00  0.00    +0.000 S 
ATOM     15  O   UNL     1      -0.617  14.706  23.579  0.00  0.00    +0.000 OA
ATOM     16  O   UNL     1      -0.970  15.964  21.445  0.00  0.00    +0.000 OA
BRANCH  14  17
ATOM     17  C   UNL     1      -2.946  15.735  23.152  0.00  0.00    +0.000 A 
ATOM     18  C   UNL     1      -3.058  15.934  24.536  0.00  0.00    +0.000 A 
ATOM     19  C   UNL     1      -4.186  16.573  25.083  0.00  0.00    +0.000 A 
ATOM     20  C   UNL     1      -5.197  17.061  24.247  0.00  0.00    +0.000 A 
ATOM     21  C   UNL     1      -5.102  16.859  22.873  0.00  0.00    +0.000 A 
ATOM     22  C   UNL     1      -3.985  16.186  22.337  0.00  0.00    +0.000 A 
BRANCH  22  23
ATOM     23  N   UNL     1      -4.018  15.957  20.909  0.00  0.00    +0.000 N 
ATOM     24  O   UNL     1      -4.596  14.935  20.524  0.00  0.00    +0.000 OA
ATOM     25  O   UNL     1      -3.596  16.869  20.188  0.00  0.00    +0.000 OA
ENDBRANCH  22  23
ENDBRANCH  14  17
ENDBRANCH  12  14
BRANCH   1  26
ATOM     26  C   UNL     1      -3.155  12.378  23.520  0.00  0.00    +0.000 C 
BRANCH  26  27
ATOM     27  C   UNL     1      -4.640  12.634  23.148  0.00  0.00    +0.000 C 
BRANCH  27  29
ATOM     28  C   UNL     1      -6.841  13.677  23.818  0.00  0.00    +0.000 C 
ATOM     29  C   UNL     1      -5.576  12.975  24.309  0.00  0.00    +0.000 C 
ENDBRANCH  27  29
ENDBRANCH  26  27
ENDBRANCH   1  26
TORSDOF 6
ENDMDL
MODEL 6
REMARK VINA RESULT:      -6.3      7.222      9.591
REMARK  Name = 
REMARK  7 active torsions:
REMARK  status: ('A' for Active; 'I' for Inactive)
REMARK    1  A    between atoms: C_1  and  C_2
REMARK    2  A    between atoms: C_2  and  C_3
REMARK    3  A    between atoms: C_3  and  C_4
REMARK    4  A    between atoms: C_4  and  C_5
REMARK    5  A    between atoms: N_16  and  S_17
REMARK    6  A    between atoms: S_17  and  C_20
REMARK    7  A    between atoms: C_25  and  N_26
REMARK                            x       y       z     vdW  Elec       q    Type
REMARK                         _______ _______ _______ _____ _____    ______ ____
ROOT
ATOM      1  C   UNL     1      -0.838  12.948  19.223  0.00  0.00    +0.000 C 
ATOM      2  C   UNL     1       0.618  12.928  19.806  0.00  0.00    +0.000 C 
ATOM      3  C   UNL     1       1.681  12.207  18.907  0.00  0.00    +0.000 C 
ATOM      4  C   UNL     1       2.812  13.054  18.306  0.00  0.00    +0.000 C 
ATOM      5  C   UNL     1       3.303  14.113  19.269  0.00  0.00    +0.000 C 
ATOM      6  N   UNL     1       2.217  15.000  19.633  0.00  0.00    +0.000 NA
ATOM      7  C   UNL     1       1.763  15.885  18.569  0.00  0.00    +0.000 C 
ATOM      8  C   UNL     1       1.013  17.079  19.166  0.00  0.00    +0.000 C 
ATOM      9  C   UNL     1       0.525  16.807  20.588  0.00  0.00    +0.000 C 
ATOM     10  C   UNL     1       0.041  15.359  20.751  0.00  0.00    +0.000 C 
ATOM     11  C   UNL     1      -1.287  15.189  20.017  0.00  0.00    +0.000 C 
ATOM     12  N   UNL     1      -1.751  13.792  20.080  0.00  0.00    +0.000 NA
ATOM     13  C   UNL     1       1.129  14.319  20.361  0.00  0.00    +0.000 C 
ENDROOT
BRANCH  12  14
ATOM     14  S   UNL     1      -2.412  13.267  21.590  0.00  0.00    +0.000 S 
ATOM     15  O   UNL     1      -1.879  11.975  21.941  0.00  0.00    +0.000 OA
ATOM     16  O   UNL     1      -2.316  14.368  22.521  0.00  0.00    +0.000 OA
BRANCH  14  17
ATOM     17  C   UNL     1      -4.150  12.992  21.250  0.00  0.00    +0.000 A 
ATOM     18  C   UNL     1      -4.605  12.871  19.929  0.00  0.00    +0.000 A 
ATOM     19  C   UNL     1      -5.948  12.551  19.657  0.00  0.00    +0.000 A 
ATOM     20  C   UNL     1      -6.842  12.304  20.704  0.00  0.00    +0.000 A 
ATOM     21  C   UNL     1      -6.405  12.434  22.020  0.00  0.00    +0.000 A 
ATOM     22  C   UNL     1      -5.066  12.790  22.283  0.00  0.00    +0.000 A 
BRANCH  22  23
ATOM     23  N   UNL     1      -4.730  12.976  23.677  0.00  0.00    +0.000 N 
ATOM     24  O   UNL     1      -5.007  14.072  24.174  0.00  0.00    +0.000 OA
ATOM     25  O   UNL     1      -4.330  11.979  24.292  0.00  0.00    +0.000 OA
ENDBRANCH  22  23
ENDBRANCH  14  17
ENDBRANCH  12  14
BRANCH   1  26
ATOM     26  C   UNL     1      -1.494  11.593  18.849  0.00  0.00    +0.000 C 
BRANCH  26  27
ATOM     27  C   UNL     1      -2.187  11.523  17.462  0.00  0.00    +0.000 C 
BRANCH  27  29
ATOM     28  C   UNL     1      -2.813  10.213  15.394  0.00  0.00    +0.000 C 
ATOM     29  C   UNL     1      -2.272  10.136  16.821  0.00  0.00    +0.000 C 
ENDBRANCH  27  29
ENDBRANCH  26  27
ENDBRANCH   1  26
TORSDOF 6
ENDMDL
MODEL 7
REMARK VINA RESULT:      -6.3      4.248      9.373
REMARK  Name = 
REMARK  7 active torsions:
REMARK  status: ('A' for Active; 'I' for Inactive)
REMARK    1  A    between atoms: C_1  and  C_2
REMARK    2  A    between atoms: C_2  and  C_3
REMARK    3  A    between atoms: C_3  and  C_4
REMARK    4  A    between atoms: C_4  and  C_5
REMARK    5  A    between atoms: N_16  and  S_17
REMARK    6  A    between atoms: S_17  and  C_20
REMARK    7  A    between atoms: C_25  and  N_26
REMARK                            x       y       z     vdW  Elec       q    Type
REMARK                         _______ _______ _______ _____ _____    ______ ____
ROOT
ATOM      1  C   UNL     1      -0.146  14.020  20.765  0.00  0.00    +0.000 C 
ATOM      2  C   UNL     1      -0.124  15.031  19.565  0.00  0.00    +0.000 C 
ATOM      3  C   UNL     1      -0.451  16.517  19.944  0.00  0.00    +0.000 C 
ATOM      4  C   UNL     1       0.659  17.564  19.779  0.00  0.00    +0.000 C 
ATOM      5  C   UNL     1       1.494  17.318  18.541  0.00  0.00    +0.000 C 
ATOM      6  N   UNL     1       2.112  16.010  18.607  0.00  0.00    +0.000 NA
ATOM      7  C   UNL     1       3.172  15.879  19.599  0.00  0.00    +0.000 C 
ATOM      8  C   UNL     1       4.069  14.688  19.252  0.00  0.00    +0.000 C 
ATOM      9  C   UNL     1       3.385  13.701  18.307  0.00  0.00    +0.000 C 
ATOM     10  C   UNL     1       1.894  13.547  18.634  0.00  0.00    +0.000 C 
ATOM     11  C   UNL     1       1.744  12.760  19.933  0.00  0.00    +0.000 C 
ATOM     12  N   UNL     1       0.329  12.655  20.330  0.00  0.00    +0.000 NA
ATOM     13  C   UNL     1       1.135  14.905  18.615  0.00  0.00    +0.000 C 
ENDROOT
BRANCH  12  14
ATOM     14  S   UNL     1      -0.642  11.538  19.433  0.00  0.00    +0.000 S 
ATOM     15  O   UNL     1      -1.751  11.091  20.236  0.00  0.00    +0.000 OA
ATOM     16  O   UNL     1      -0.876  12.108  18.125  0.00  0.00    +0.000 OA
BRANCH  14  17
ATOM     17  C   UNL     1       0.406  10.101  19.220  0.00  0.00    +0.000 A 
ATOM     18  C   UNL     1       0.949   9.797  17.964  0.00  0.00    +0.000 A 
ATOM     19  C   UNL     1       1.857   8.733  17.810  0.00  0.00    +0.000 A 
ATOM     20  C   UNL     1       2.266   7.986  18.920  0.00  0.00    +0.000 A 
ATOM     21  C   UNL     1       1.724   8.271  20.171  0.00  0.00    +0.000 A 
ATOM     22  C   UNL     1       0.788   9.316  20.309  0.00  0.00    +0.000 A 
BRANCH  22  23
ATOM     23  N   UNL     1       0.225   9.482  21.631  0.00  0.00    +0.000 N 
ATOM     24  O   UNL     1      -0.656   8.683  21.964  0.00  0.00    +0.000 OA
ATOM     25  O   UNL     1       0.771  10.312  22.369  0.00  0.00    +0.000 OA
ENDBRANCH  22  23
ENDBRANCH  14  17
ENDBRANCH  12  14
BRANCH   1  26
ATOM     26  C   UNL     1      -1.435  13.933  21.623  0.00  0.00    +0.000 C 
BRANCH  26  27
ATOM     27  C   UNL     1      -1.318  13.166  22.967  0.00  0.00    +0.000 C 
BRANCH  27  29
ATOM     28  C   UNL     1      -3.768  12.701  22.562  0.00  0.00    +0.000 C 
ATOM     29  C   UNL     1      -2.632  12.685  23.585  0.00  0.00    +0.000 C 
ENDBRANCH  27  29
ENDBRANCH  26  27
ENDBRANCH   1  26
TORSDOF 6
ENDMDL
MODEL 8
REMARK VINA RESULT:      -6.3      5.083      9.460
REMARK  Name = 
REMARK  7 active torsions:
REMARK  status: ('A' for Active; 'I' for Inactive)
REMARK    1  A    between atoms: C_1  and  C_2
REMARK    2  A    between atoms: C_2  and  C_3
REMARK    3  A    between atoms: C_3  and  C_4
REMARK    4  A    between atoms: C_4  and  C_5
REMARK    5  A    between atoms: N_16  and  S_17
REMARK    6  A    between atoms: S_17  and  C_20
REMARK    7  A    between atoms: C_25  and  N_26
REMARK                            x       y       z     vdW  Elec       q    Type
REMARK                         _______ _______ _______ _____ _____    ______ ____
ROOT
ATOM      1  C   UNL     1      -1.265  12.419  22.021  0.00  0.00    +0.000 C 
ATOM      2  C   UNL     1      -2.733  12.919  22.259  0.00  0.00    +0.000 C 
ATOM      3  C   UNL     1      -3.467  12.261  23.478  0.00  0.00    +0.000 C 
ATOM      4  C   UNL     1      -3.841  13.159  24.666  0.00  0.00    +0.000 C 
ATOM      5  C   UNL     1      -4.301  14.530  24.220  0.00  0.00    +0.000 C 
ATOM      6  N   UNL     1      -3.254  15.188  23.467  0.00  0.00    +0.000 NA
ATOM      7  C   UNL     1      -2.100  15.604  24.252  0.00  0.00    +0.000 C 
ATOM      8  C   UNL     1      -1.326  16.696  23.506  0.00  0.00    +0.000 C 
ATOM      9  C   UNL     1      -1.645  16.716  22.012  0.00  0.00    +0.000 C 
ATOM     10  C   UNL     1      -1.823  15.298  21.453  0.00  0.00    +0.000 C 
ATOM     11  C   UNL     1      -0.461  14.611  21.386  0.00  0.00    +0.000 C 
ATOM     12  N   UNL     1      -0.593  13.217  20.929  0.00  0.00    +0.000 NA
ATOM     13  C   UNL     1      -2.914  14.490  22.211  0.00  0.00    +0.000 C 
ENDROOT
BRANCH  12  14
ATOM     14  S   UNL     1      -0.896  12.985  19.241  0.00  0.00    +0.000 S 
ATOM     15  O   UNL     1      -2.248  12.529  19.040  0.00  0.00    +0.000 OA
ATOM     16  O   UNL     1      -0.412  14.153  18.541  0.00  0.00    +0.000 OA
BRANCH  14  17
ATOM     17  C   UNL     1       0.149  11.604  18.782  0.00  0.00    +0.000 A 
ATOM     18  C   UNL     1      -0.418  10.378  18.405  0.00  0.00    +0.000 A 
ATOM     19  C   UNL     1       0.391   9.323  17.942  0.00  0.00    +0.000 A 
ATOM     20  C   UNL     1       1.773   9.497  17.809  0.00  0.00    +0.000 A 
ATOM     21  C   UNL     1       2.348  10.707  18.191  0.00  0.00    +0.000 A 
ATOM     22  C   UNL     1       1.534  11.745  18.688  0.00  0.00    +0.000 A 
BRANCH  22  23
ATOM     23  N   UNL     1       2.234  12.931  19.131  0.00  0.00    +0.000 N 
ATOM     24  O   UNL     1       2.508  12.997  20.334  0.00  0.00    +0.000 OA
ATOM     25  O   UNL     1       2.627  13.708  18.252  0.00  0.00    +0.000 OA
ENDBRANCH  22  23
ENDBRANCH  14  17
ENDBRANCH  12  14
BRANCH   1  26
ATOM     26  C   UNL     1      -1.031  10.896  21.845  0.00  0.00    +0.000 C 
BRANCH  26  27
ATOM     27  C   UNL     1      -0.435  10.145  23.065  0.00  0.00    +0.000 C 
BRANCH  27  29
ATOM     28  C   UNL     1       0.653   8.519  21.466  0.00  0.00    +0.000 C 
ATOM     29  C   UNL     1       0.793   9.275  22.787  0.00  0.00    +0.000 C 
ENDBRANCH  27  29
ENDBRANCH  26  27
ENDBRANCH   1  26
TORSDOF 6
ENDMDL
MODEL 9
REMARK VINA RESULT:      -6.3      5.869     10.186
REMARK  Name = 
REMARK  7 active torsions:
REMARK  status: ('A' for Active; 'I' for Inactive)
REMARK    1  A    between atoms: C_1  and  C_2
REMARK    2  A    between atoms: C_2  and  C_3
REMARK    3  A    between atoms: C_3  and  C_4
REMARK    4  A    between atoms: C_4  and  C_5
REMARK    5  A    between atoms: N_16  and  S_17
REMARK    6  A    between atoms: S_17  and  C_20
REMARK    7  A    between atoms: C_25  and  N_26
REMARK                            x       y       z     vdW  Elec       q    Type
REMARK                         _______ _______ _______ _____ _____    ______ ____
ROOT
ATOM      1  C   UNL     1      -3.572  12.553  20.309  0.00  0.00    +0.000 C 
ATOM      2  C   UNL     1      -4.283  13.899  20.689  0.00  0.00    +0.000 C 
ATOM      3  C   UNL     1      -5.691  14.112  20.035  0.00  0.00    +0.000 C 
ATOM      4  C   UNL     1      -6.917  14.157  20.959  0.00  0.00    +0.000 C 
ATOM      5  C   UNL     1      -6.624  14.877  22.257  0.00  0.00    +0.000 C 
ATOM      6  N   UNL     1      -5.548  14.215  22.964  0.00  0.00    +0.000 NA
ATOM      7  C   UNL     1      -5.887  12.913  23.523  0.00  0.00    +0.000 C 
ATOM      8  C   UNL     1      -4.902  12.548  24.637  0.00  0.00    +0.000 C 
ATOM      9  C   UNL     1      -3.603  13.349  24.549  0.00  0.00    +0.000 C 
ATOM     10  C   UNL     1      -3.167  13.559  23.093  0.00  0.00    +0.000 C 
ATOM     11  C   UNL     1      -2.658  12.236  22.527  0.00  0.00    +0.000 C 
ATOM     12  N   UNL     1      -2.301  12.370  21.103  0.00  0.00    +0.000 NA
ATOM     13  C   UNL     1      -4.266  14.245  22.233  0.00  0.00    +0.000 C 
ENDROOT
BRANCH  12  14
ATOM     14  S   UNL     1      -0.821  13.195  20.755  0.00  0.00    +0.000 S 
ATOM     15  O   UNL     1      -1.064  14.283  19.842  0.00  0.00    +0.000 OA
ATOM     16  O   UNL     1      -0.144  13.437  22.009  0.00  0.00    +0.000 OA
BRANCH  14  17
ATOM     17  C   UNL     1       0.151  12.005  19.833  0.00  0.00    +0.000 A 
ATOM     18  C   UNL     1      -0.342  10.715  19.598  0.00  0.00    +0.000 A 
ATOM     19  C   UNL     1       0.367   9.809  18.786  0.00  0.00    +0.000 A 
ATOM     20  C   UNL     1       1.558  10.200  18.165  0.00  0.00    +0.000 A 
ATOM     21  C   UNL     1       2.064  11.476  18.401  0.00  0.00    +0.000 A 
ATOM     22  C   UNL     1       1.365  12.364  19.244  0.00  0.00    +0.000 A 
BRANCH  22  23
ATOM     23  N   UNL     1       2.011  13.635  19.489  0.00  0.00    +0.000 N 
ATOM     24  O   UNL     1       1.723  14.560  18.723  0.00  0.00    +0.000 OA
ATOM     25  O   UNL     1       2.680  13.730  20.525  0.00  0.00    +0.000 OA
ENDBRANCH  22  23
ENDBRANCH  14  17
ENDBRANCH  12  14
BRANCH   1  26
ATOM     26  C   UNL     1      -3.360  12.238  18.806  0.00  0.00    +0.000 C 
BRANCH  26  27
ATOM     27  C   UNL     1      -4.152  11.032  18.235  0.00  0.00    +0.000 C 
BRANCH  27  29
ATOM     28  C   UNL     1      -6.648  10.816  18.561  0.00  0.00    +0.000 C 
ATOM     29  C   UNL     1      -5.534  11.346  17.659  0.00  0.00    +0.000 C 
ENDBRANCH  27  29
ENDBRANCH  26  27
ENDBRANCH   1  26
TORSDOF 6
ENDMDL
