MODEL 1
REMARK VINA RESULT:      -7.5      0.000      0.000
REMARK  Name = 
REMARK  16 active torsions:
REMARK  status: ('A' for Active; 'I' for Inactive)
REMARK    1  A    between atoms: C_1  and  C_2
REMARK    2  A    between atoms: C_2  and  C_3
REMARK    3  A    between atoms: C_3  and  C_4
REMARK    4  A    between atoms: C_4  and  C_5
REMARK    5  A    between atoms: C_5  and  C_6
REMARK    6  A    between atoms: C_5  and  N_21
REMARK    7  A    between atoms: N_7  and  N_8
REMARK    8  A    between atoms: N_8  and  C_9
REMARK    9  A    between atoms: N_12  and  C_13
REMARK   10  A    between atoms: C_13  and  C_14
REMARK   11  A    between atoms: C_14  and  C_15
REMARK   12  A    between atoms: C_22  and  O_24
REMARK   13  A    between atoms: O_24  and  C_25
REMARK   14  A    between atoms: C_25  and  C_26
REMARK   15  A    between atoms: C_25  and  C_27
REMARK   16  A    between atoms: C_25  and  C_28
REMARK                            x       y       z     vdW  Elec       q    Type
REMARK                         _______ _______ _______ _____ _____    ______ ____
ROOT
ATOM      1  C   UNL     1       6.258   5.302  17.576  0.00  0.00    +0.000 C 
ATOM      2  N   UNL     1       6.798   6.439  17.258  0.00  0.00    +0.000 NA
ENDROOT
BRANCH   2   3
ATOM      3  N   UNL     1       7.634   7.043  18.205  0.00  0.00    +0.000 N 
ATOM      4  C   UNL     1       8.165   6.112  19.191  0.00  0.00    +0.000 C 
ATOM      5  C   UNL     1       8.098   8.370  18.081  0.00  0.00    +0.000 C 
ATOM      6  O   UNL     1       7.815   9.132  17.159  0.00  0.00    +0.000 OA
ATOM      7  N   UNL     1       8.901   8.810  19.121  0.00  0.00    +0.000 N 
ATOM      8  H   UNL     1       9.408   8.126  19.657  0.00  0.00    +0.000 HD
BRANCH   7   9
ATOM      9  C   UNL     1       9.417  10.170  19.097  0.00  0.00    +0.000 C 
BRANCH   9  10
ATOM     10  C   UNL     1       9.550  10.781  20.491  0.00  0.00    +0.000 C 
BRANCH  10  11
ATOM     11  C   UNL     1      10.294  12.092  20.440  0.00  0.00    +0.000 A 
ATOM     12  C   UNL     1       9.768  13.232  21.064  0.00  0.00    +0.000 A 
ATOM     13  C   UNL     1      10.404  14.467  20.933  0.00  0.00    +0.000 A 
ATOM     14  C   UNL     1      11.575  14.574  20.186  0.00  0.00    +0.000 A 
ATOM     15  C   UNL     1      12.118  13.443  19.578  0.00  0.00    +0.000 A 
ATOM     16  C   UNL     1      11.480  12.209  19.703  0.00  0.00    +0.000 A 
ENDBRANCH  10  11
ENDBRANCH   9  10
ENDBRANCH   7   9
ENDBRANCH   2   3
BRANCH   1  17
ATOM     17  C   UNL     1       5.269   4.562  16.687  0.00  0.00    +0.000 C 
BRANCH  17  18
ATOM     18  N   UNL     1       3.918   4.589  17.230  0.00  0.00    +0.000 N 
ATOM     19  C   UNL     1       3.320   3.430  17.639  0.00  0.00    +0.000 C 
ATOM     20  O   UNL     1       3.855   2.339  17.529  0.00  0.00    +0.000 OA
ATOM     21  H   UNL     1       3.447   5.470  17.379  0.00  0.00    +0.000 HD
BRANCH  19  22
ATOM     22  O   UNL     1       2.087   3.656  18.171  0.00  0.00    +0.000 OA
BRANCH  22  23
ATOM     23  C   UNL     1       1.990   3.829  19.617  0.00  0.00    +0.000 C 
ATOM     24  C   UNL     1       0.744   3.124  20.179  0.00  0.00    +0.000 C 
ATOM     25  C   UNL     1       3.230   3.158  20.245  0.00  0.00    +0.000 C 
ATOM     26  C   UNL     1       2.031   5.316  20.003  0.00  0.00    +0.000 C 
ENDBRANCH  22  23
ENDBRANCH  19  22
ENDBRANCH  17  18
BRANCH  17  27
ATOM     27  C   UNL     1       5.300   5.094  15.241  0.00  0.00    +0.000 C 
BRANCH  27  28
ATOM     28  C   UNL     1       5.382   3.976  14.192  0.00  0.00    +0.000 C 
BRANCH  28  30
ATOM     29  C   UNL     1       6.482   3.353  12.025  0.00  0.00    +0.000 C 
ATOM     30  C   UNL     1       6.674   4.027  13.377  0.00  0.00    +0.000 C 
ENDBRANCH  28  30
ENDBRANCH  27  28
ENDBRANCH  17  27
ENDBRANCH   1  17
TORSDOF 11
ENDMDL
MODEL 2
REMARK VINA RESULT:      -7.3      5.564      9.004
REMARK  Name = 
REMARK  16 active torsions:
REMARK  status: ('A' for Active; 'I' for Inactive)
REMARK    1  A    between atoms: C_1  and  C_2
REMARK    2  A    between atoms: C_2  and  C_3
REMARK    3  A    between atoms: C_3  and  C_4
REMARK    4  A    between atoms: C_4  and  C_5
REMARK    5  A    between atoms: C_5  and  C_6
REMARK    6  A    between atoms: C_5  and  N_21
REMARK    7  A    between atoms: N_7  and  N_8
REMARK    8  A    between atoms: N_8  and  C_9
REMARK    9  A    between atoms: N_12  and  C_13
REMARK   10  A    between atoms: C_13  and  C_14
REMARK   11  A    between atoms: C_14  and  C_15
REMARK   12  A    between atoms: C_22  and  O_24
REMARK   13  A    between atoms: O_24  and  C_25
REMARK   14  A    between atoms: C_25  and  C_26
REMARK   15  A    between atoms: C_25  and  C_27
REMARK   16  A    between atoms: C_25  and  C_28
REMARK                            x       y       z     vdW  Elec       q    Type
REMARK                         _______ _______ _______ _____ _____    ______ ____
ROOT
ATOM      1  C   UNL     1       2.226   6.927  18.923  0.00  0.00    +0.000 C 
ATOM      2  N   UNL     1       1.818   7.934  19.633  0.00  0.00    +0.000 NA
ENDROOT
BRANCH   2   3
ATOM      3  N   UNL     1       1.463   9.104  18.951  0.00  0.00    +0.000 N 
ATOM      4  C   UNL     1       2.225   9.318  17.728  0.00  0.00    +0.000 C 
ATOM      5  C   UNL     1       0.330   9.874  19.289  0.00  0.00    +0.000 C 
ATOM      6  O   UNL     1      -0.446   9.619  20.208  0.00  0.00    +0.000 OA
ATOM      7  N   UNL     1       0.142  11.011  18.519  0.00  0.00    +0.000 N 
ATOM      8  H   UNL     1       0.531  11.030  17.591  0.00  0.00    +0.000 HD
BRANCH   7   9
ATOM      9  C   UNL     1      -0.988  11.882  18.799  0.00  0.00    +0.000 C 
BRANCH   9  10
ATOM     10  C   UNL     1      -0.741  12.816  19.983  0.00  0.00    +0.000 C 
BRANCH  10  11
ATOM     11  C   UNL     1      -1.845  12.698  21.005  0.00  0.00    +0.000 A 
ATOM     12  C   UNL     1      -3.185  12.848  20.623  0.00  0.00    +0.000 A 
ATOM     13  C   UNL     1      -4.200  12.840  21.581  0.00  0.00    +0.000 A 
ATOM     14  C   UNL     1      -3.886  12.672  22.929  0.00  0.00    +0.000 A 
ATOM     15  C   UNL     1      -2.559  12.501  23.318  0.00  0.00    +0.000 A 
ATOM     16  C   UNL     1      -1.543  12.516  22.361  0.00  0.00    +0.000 A 
ENDBRANCH  10  11
ENDBRANCH   9  10
ENDBRANCH   7   9
ENDBRANCH   2   3
BRANCH   1  17
ATOM     17  C   UNL     1       2.717   5.618  19.522  0.00  0.00    +0.000 C 
BRANCH  17  18
ATOM     18  N   UNL     1       4.160   5.613  19.718  0.00  0.00    +0.000 N 
ATOM     19  C   UNL     1       4.936   4.684  19.084  0.00  0.00    +0.000 C 
ATOM     20  O   UNL     1       4.466   3.807  18.376  0.00  0.00    +0.000 OA
ATOM     21  H   UNL     1       4.602   6.340  20.262  0.00  0.00    +0.000 HD
BRANCH  19  22
ATOM     22  O   UNL     1       6.261   4.870  19.339  0.00  0.00    +0.000 OA
BRANCH  22  23
ATOM     23  C   UNL     1       7.064   5.534  18.319  0.00  0.00    +0.000 C 
ATOM     24  C   UNL     1       7.683   4.515  17.346  0.00  0.00    +0.000 C 
ATOM     25  C   UNL     1       6.117   6.441  17.505  0.00  0.00    +0.000 C 
ATOM     26  C   UNL     1       8.130   6.441  18.953  0.00  0.00    +0.000 C 
ENDBRANCH  22  23
ENDBRANCH  19  22
ENDBRANCH  17  18
BRANCH  17  27
ATOM     27  C   UNL     1       1.974   5.280  20.829  0.00  0.00    +0.000 C 
BRANCH  27  28
ATOM     28  C   UNL     1       2.295   3.874  21.356  0.00  0.00    +0.000 C 
BRANCH  28  30
ATOM     29  C   UNL     1       0.884   2.771  19.599  0.00  0.00    +0.000 C 
ATOM     30  C   UNL     1       1.169   2.875  21.091  0.00  0.00    +0.000 C 
ENDBRANCH  28  30
ENDBRANCH  27  28
ENDBRANCH  17  27
ENDBRANCH   1  17
TORSDOF 11
ENDMDL
MODEL 3
REMARK VINA RESULT:      -7.3      1.910      4.817
REMARK  Name = 
REMARK  16 active torsions:
REMARK  status: ('A' for Active; 'I' for Inactive)
REMARK    1  A    between atoms: C_1  and  C_2
REMARK    2  A    between atoms: C_2  and  C_3
REMARK    3  A    between atoms: C_3  and  C_4
REMARK    4  A    between atoms: C_4  and  C_5
REMARK    5  A    between atoms: C_5  and  C_6
REMARK    6  A    between atoms: C_5  and  N_21
REMARK    7  A    between atoms: N_7  and  N_8
REMARK    8  A    between atoms: N_8  and  C_9
REMARK    9  A    between atoms: N_12  and  C_13
REMARK   10  A    between atoms: C_13  and  C_14
REMARK   11  A    between atoms: C_14  and  C_15
REMARK   12  A    between atoms: C_22  and  O_24
REMARK   13  A    between atoms: O_24  and  C_25
REMARK   14  A    between atoms: C_25  and  C_26
REMARK   15  A    between atoms: C_25  and  C_27
REMARK   16  A    between atoms: C_25  and  C_28
REMARK                            x       y       z     vdW  Elec       q    Type
REMARK                         _______ _______ _______ _____ _____    ______ ____
ROOT
ATOM      1  C   UNL     1       5.488   5.260  17.555  0.00  0.00    +0.000 C 
ATOM      2  N   UNL     1       6.736   5.039  17.836  0.00  0.00    +0.000 NA
ENDROOT
BRANCH   2   3
ATOM      3  N   UNL     1       7.425   6.035  18.538  0.00  0.00    +0.000 N 
ATOM      4  C   UNL     1       7.983   5.577  19.803  0.00  0.00    +0.000 C 
ATOM      5  C   UNL     1       7.743   7.289  17.973  0.00  0.00    +0.000 C 
ATOM      6  O   UNL     1       7.445   7.645  16.835  0.00  0.00    +0.000 OA
ATOM      7  N   UNL     1       8.411   8.161  18.819  0.00  0.00    +0.000 N 
ATOM      8  H   UNL     1       8.951   7.775  19.575  0.00  0.00    +0.000 HD
BRANCH   7   9
ATOM      9  C   UNL     1       8.769   9.486  18.337  0.00  0.00    +0.000 C 
BRANCH   9  10
ATOM     10  C   UNL     1       9.190  10.433  19.460  0.00  0.00    +0.000 C 
BRANCH  10  11
ATOM     11  C   UNL     1      10.326  11.324  19.021  0.00  0.00    +0.000 A 
ATOM     12  C   UNL     1      11.334  11.687  19.924  0.00  0.00    +0.000 A 
ATOM     13  C   UNL     1      12.329  12.589  19.549  0.00  0.00    +0.000 A 
ATOM     14  C   UNL     1      12.333  13.130  18.264  0.00  0.00    +0.000 A 
ATOM     15  C   UNL     1      11.348  12.760  17.351  0.00  0.00    +0.000 A 
ATOM     16  C   UNL     1      10.348  11.863  17.727  0.00  0.00    +0.000 A 
ENDBRANCH  10  11
ENDBRANCH   9  10
ENDBRANCH   7   9
ENDBRANCH   2   3
BRANCH   1  17
ATOM     17  C   UNL     1       4.629   4.310  16.734  0.00  0.00    +0.000 C 
BRANCH  17  18
ATOM     18  N   UNL     1       5.410   3.584  15.742  0.00  0.00    +0.000 N 
ATOM     19  C   UNL     1       5.766   4.192  14.571  0.00  0.00    +0.000 C 
ATOM     20  O   UNL     1       5.418   5.327  14.285  0.00  0.00    +0.000 OA
ATOM     21  H   UNL     1       5.756   2.658  15.945  0.00  0.00    +0.000 HD
BRANCH  19  22
ATOM     22  O   UNL     1       6.541   3.384  13.795  0.00  0.00    +0.000 OA
BRANCH  22  23
ATOM     23  C   UNL     1       6.428   3.517  12.347  0.00  0.00    +0.000 C 
ATOM     24  C   UNL     1       6.912   2.243  11.632  0.00  0.00    +0.000 C 
ATOM     25  C   UNL     1       4.932   3.698  12.017  0.00  0.00    +0.000 C 
ATOM     26  C   UNL     1       7.162   4.770  11.844  0.00  0.00    +0.000 C 
ENDBRANCH  22  23
ENDBRANCH  19  22
ENDBRANCH  17  18
BRANCH  17  27
ATOM     27  C   UNL     1       3.834   3.345  17.634  0.00  0.00    +0.000 C 
BRANCH  27  28
ATOM     28  C   UNL     1       3.212   4.037  18.855  0.00  0.00    +0.000 C 
BRANCH  28  30
ATOM     29  C   UNL     1       1.056   2.773  19.066  0.00  0.00    +0.000 C 
ATOM     30  C   UNL     1       1.688   4.125  18.770  0.00  0.00    +0.000 C 
ENDBRANCH  28  30
ENDBRANCH  27  28
ENDBRANCH  17  27
ENDBRANCH   1  17
TORSDOF 11
ENDMDL
MODEL 4
REMARK VINA RESULT:      -7.3      5.638      9.067
REMARK  Name = 
REMARK  16 active torsions:
REMARK  status: ('A' for Active; 'I' for Inactive)
REMARK    1  A    between atoms: C_1  and  C_2
REMARK    2  A    between atoms: C_2  and  C_3
REMARK    3  A    between atoms: C_3  and  C_4
REMARK    4  A    between atoms: C_4  and  C_5
REMARK    5  A    between atoms: C_5  and  C_6
REMARK    6  A    between atoms: C_5  and  N_21
REMARK    7  A    between atoms: N_7  and  N_8
REMARK    8  A    between atoms: N_8  and  C_9
REMARK    9  A    between atoms: N_12  and  C_13
REMARK   10  A    between atoms: C_13  and  C_14
REMARK   11  A    between atoms: C_14  and  C_15
REMARK   12  A    between atoms: C_22  and  O_24
REMARK   13  A    between atoms: O_24  and  C_25
REMARK   14  A    between atoms: C_25  and  C_26
REMARK   15  A    between atoms: C_25  and  C_27
REMARK   16  A    between atoms: C_25  and  C_28
REMARK                            x       y       z     vdW  Elec       q    Type
REMARK                         _______ _______ _______ _____ _____    ______ ____
ROOT
ATOM      1  C   UNL     1       2.248   6.940  18.840  0.00  0.00    +0.000 C 
ATOM      2  N   UNL     1       1.899   7.797  19.751  0.00  0.00    +0.000 NA
ENDROOT
BRANCH   2   3
ATOM      3  N   UNL     1       1.559   9.087  19.326  0.00  0.00    +0.000 N 
ATOM      4  C   UNL     1       1.785   9.311  17.905  0.00  0.00    +0.000 C 
ATOM      5  C   UNL     1       0.855   9.999  20.141  0.00  0.00    +0.000 C 
ATOM      6  O   UNL     1       0.484   9.776  21.291  0.00  0.00    +0.000 OA
ATOM      7  N   UNL     1       0.621  11.238  19.565  0.00  0.00    +0.000 N 
ATOM      8  H   UNL     1       0.593  11.303  18.561  0.00  0.00    +0.000 HD
BRANCH   7   9
ATOM      9  C   UNL     1      -0.083  12.257  20.329  0.00  0.00    +0.000 C 
BRANCH   9  10
ATOM     10  C   UNL     1      -1.527  12.454  19.870  0.00  0.00    +0.000 C 
BRANCH  10  11
ATOM     11  C   UNL     1      -2.456  12.598  21.050  0.00  0.00    +0.000 A 
ATOM     12  C   UNL     1      -1.985  12.392  22.354  0.00  0.00    +0.000 A 
ATOM     13  C   UNL     1      -2.864  12.426  23.437  0.00  0.00    +0.000 A 
ATOM     14  C   UNL     1      -4.219  12.677  23.230  0.00  0.00    +0.000 A 
ATOM     15  C   UNL     1      -4.694  12.905  21.940  0.00  0.00    +0.000 A 
ATOM     16  C   UNL     1      -3.818  12.864  20.855  0.00  0.00    +0.000 A 
ENDBRANCH  10  11
ENDBRANCH   9  10
ENDBRANCH   7   9
ENDBRANCH   2   3
BRANCH   1  17
ATOM     17  C   UNL     1       2.718   5.526  19.149  0.00  0.00    +0.000 C 
BRANCH  17  18
ATOM     18  N   UNL     1       4.108   5.316  18.770  0.00  0.00    +0.000 N 
ATOM     19  C   UNL     1       4.414   4.532  17.693  0.00  0.00    +0.000 C 
ATOM     20  O   UNL     1       3.563   3.948  17.041  0.00  0.00    +0.000 OA
ATOM     21  H   UNL     1       4.847   5.807  19.252  0.00  0.00    +0.000 HD
BRANCH  19  22
ATOM     22  O   UNL     1       5.755   4.498  17.455  0.00  0.00    +0.000 OA
BRANCH  22  23
ATOM     23  C   UNL     1       6.296   5.435  16.476  0.00  0.00    +0.000 C 
ATOM     24  C   UNL     1       5.193   6.341  15.903  0.00  0.00    +0.000 C 
ATOM     25  C   UNL     1       7.307   6.338  17.213  0.00  0.00    +0.000 C 
ATOM     26  C   UNL     1       7.066   4.698  15.368  0.00  0.00    +0.000 C 
ENDBRANCH  22  23
ENDBRANCH  19  22
ENDBRANCH  17  18
BRANCH  17  27
ATOM     27  C   UNL     1       2.481   5.162  20.628  0.00  0.00    +0.000 C 
BRANCH  27  28
ATOM     28  C   UNL     1       2.113   3.686  20.832  0.00  0.00    +0.000 C 
BRANCH  28  30
ATOM     29  C   UNL     1       1.054   2.357  18.986  0.00  0.00    +0.000 C 
ATOM     30  C   UNL     1       0.799   3.307  20.148  0.00  0.00    +0.000 C 
ENDBRANCH  28  30
ENDBRANCH  27  28
ENDBRANCH  17  27
ENDBRANCH   1  17
TORSDOF 11
ENDMDL
MODEL 5
REMARK VINA RESULT:      -7.2      6.036      8.995
REMARK  Name = 
REMARK  16 active torsions:
REMARK  status: ('A' for Active; 'I' for Inactive)
REMARK    1  A    between atoms: C_1  and  C_2
REMARK    2  A    between atoms: C_2  and  C_3
REMARK    3  A    between atoms: C_3  and  C_4
REMARK    4  A    between atoms: C_4  and  C_5
REMARK    5  A    between atoms: C_5  and  C_6
REMARK    6  A    between atoms: C_5  and  N_21
REMARK    7  A    between atoms: N_7  and  N_8
REMARK    8  A    between atoms: N_8  and  C_9
REMARK    9  A    between atoms: N_12  and  C_13
REMARK   10  A    between atoms: C_13  and  C_14
REMARK   11  A    between atoms: C_14  and  C_15
REMARK   12  A    between atoms: C_22  and  O_24
REMARK   13  A    between atoms: O_24  and  C_25
REMARK   14  A    between atoms: C_25  and  C_26
REMARK   15  A    between atoms: C_25  and  C_27
REMARK   16  A    between atoms: C_25  and  C_28
REMARK                            x       y       z     vdW  Elec       q    Type
REMARK                         _______ _______ _______ _____ _____    ______ ____
ROOT
ATOM      1  C   UNL     1       2.290   7.112  19.189  0.00  0.00    +0.000 C 
ATOM      2  N   UNL     1       1.598   7.669  20.137  0.00  0.00    +0.000 NA
ENDROOT
BRANCH   2   3
ATOM      3  N   UNL     1       1.312   9.033  20.011  0.00  0.00    +0.000 N 
ATOM      4  C   UNL     1       1.424   9.528  18.646  0.00  0.00    +0.000 C 
ATOM      5  C   UNL     1       0.752   9.797  21.057  0.00  0.00    +0.000 C 
ATOM      6  O   UNL     1       0.472   9.366  22.173  0.00  0.00    +0.000 OA
ATOM      7  N   UNL     1       0.553  11.137  20.763  0.00  0.00    +0.000 N 
ATOM      8  H   UNL     1       0.439  11.404  19.799  0.00  0.00    +0.000 HD
BRANCH   7   9
ATOM      9  C   UNL     1      -0.004  12.015  21.780  0.00  0.00    +0.000 C 
BRANCH   9  10
ATOM     10  C   UNL     1      -1.527  12.120  21.705  0.00  0.00    +0.000 C 
BRANCH  10  11
ATOM     11  C   UNL     1      -2.077  12.870  22.893  0.00  0.00    +0.000 A 
ATOM     12  C   UNL     1      -3.299  12.494  23.467  0.00  0.00    +0.000 A 
ATOM     13  C   UNL     1      -3.858  13.246  24.501  0.00  0.00    +0.000 A 
ATOM     14  C   UNL     1      -3.196  14.377  24.978  0.00  0.00    +0.000 A 
ATOM     15  C   UNL     1      -1.971  14.748  24.429  0.00  0.00    +0.000 A 
ATOM     16  C   UNL     1      -1.414  14.000  23.391  0.00  0.00    +0.000 A 
ENDBRANCH  10  11
ENDBRANCH   9  10
ENDBRANCH   7   9
ENDBRANCH   2   3
BRANCH   1  17
ATOM     17  C   UNL     1       2.744   5.661  19.220  0.00  0.00    +0.000 C 
BRANCH  17  18
ATOM     18  N   UNL     1       4.148   5.519  18.861  0.00  0.00    +0.000 N 
ATOM     19  C   UNL     1       4.517   4.673  17.853  0.00  0.00    +0.000 C 
ATOM     20  O   UNL     1       3.715   3.978  17.250  0.00  0.00    +0.000 OA
ATOM     21  H   UNL     1       4.847   6.100  19.301  0.00  0.00    +0.000 HD
BRANCH  19  22
ATOM     22  O   UNL     1       5.858   4.716  17.619  0.00  0.00    +0.000 OA
BRANCH  22  23
ATOM     23  C   UNL     1       6.354   5.709  16.672  0.00  0.00    +0.000 C 
ATOM     24  C   UNL     1       7.205   6.777  17.380  0.00  0.00    +0.000 C 
ATOM     25  C   UNL     1       7.268   4.973  15.670  0.00  0.00    +0.000 C 
ATOM     26  C   UNL     1       5.204   6.333  15.868  0.00  0.00    +0.000 C 
ENDBRANCH  22  23
ENDBRANCH  19  22
ENDBRANCH  17  18
BRANCH  17  27
ATOM     27  C   UNL     1       2.447   5.003  20.581  0.00  0.00    +0.000 C 
BRANCH  27  28
ATOM     28  C   UNL     1       1.144   4.190  20.583  0.00  0.00    +0.000 C 
BRANCH  28  30
ATOM     29  C   UNL     1       0.930   2.387  18.852  0.00  0.00    +0.000 C 
ATOM     30  C   UNL     1       1.373   2.711  20.272  0.00  0.00    +0.000 C 
ENDBRANCH  28  30
ENDBRANCH  27  28
ENDBRANCH  17  27
ENDBRANCH   1  17
TORSDOF 11
ENDMDL
MODEL 6
REMARK VINA RESULT:      -7.2      5.482      8.566
REMARK  Name = 
REMARK  16 active torsions:
REMARK  status: ('A' for Active; 'I' for Inactive)
REMARK    1  A    between atoms: C_1  and  C_2
REMARK    2  A    between atoms: C_2  and  C_3
REMARK    3  A    between atoms: C_3  and  C_4
REMARK    4  A    between atoms: C_4  and  C_5
REMARK    5  A    between atoms: C_5  and  C_6
REMARK    6  A    between atoms: C_5  and  N_21
REMARK    7  A    between atoms: N_7  and  N_8
REMARK    8  A    between atoms: N_8  and  C_9
REMARK    9  A    between atoms: N_12  and  C_13
REMARK   10  A    between atoms: C_13  and  C_14
REMARK   11  A    between atoms: C_14  and  C_15
REMARK   12  A    between atoms: C_22  and  O_24
REMARK   13  A    between atoms: O_24  and  C_25
REMARK   14  A    between atoms: C_25  and  C_26
REMARK   15  A    between atoms: C_25  and  C_27
REMARK   16  A    between atoms: C_25  and  C_28
REMARK                            x       y       z     vdW  Elec       q    Type
REMARK                         _______ _______ _______ _____ _____    ______ ____
ROOT
ATOM      1  C   UNL     1       3.261   7.750  17.946  0.00  0.00    +0.000 C 
ATOM      2  N   UNL     1       2.353   7.878  18.865  0.00  0.00    +0.000 NA
ENDROOT
BRANCH   2   3
ATOM      3  N   UNL     1       1.675   9.100  18.935  0.00  0.00    +0.000 N 
ATOM      4  C   UNL     1       1.786   9.899  17.723  0.00  0.00    +0.000 C 
ATOM      5  C   UNL     1       0.785   9.423  19.983  0.00  0.00    +0.000 C 
ATOM      6  O   UNL     1       0.525   8.691  20.936  0.00  0.00    +0.000 OA
ATOM      7  N   UNL     1       0.217  10.684  19.902  0.00  0.00    +0.000 N 
ATOM      8  H   UNL     1       0.139  11.117  18.997  0.00  0.00    +0.000 HD
BRANCH   7   9
ATOM      9  C   UNL     1      -0.701  11.120  20.943  0.00  0.00    +0.000 C 
BRANCH   9  10
ATOM     10  C   UNL     1      -1.303  12.497  20.666  0.00  0.00    +0.000 C 
BRANCH  10  11
ATOM     11  C   UNL     1      -2.633  12.377  19.966  0.00  0.00    +0.000 A 
ATOM     12  C   UNL     1      -3.806  12.834  20.583  0.00  0.00    +0.000 A 
ATOM     13  C   UNL     1      -5.048  12.633  19.981  0.00  0.00    +0.000 A 
ATOM     14  C   UNL     1      -5.131  11.982  18.751  0.00  0.00    +0.000 A 
ATOM     15  C   UNL     1      -3.970  11.542  18.118  0.00  0.00    +0.000 A 
ATOM     16  C   UNL     1      -2.727  11.736  18.722  0.00  0.00    +0.000 A 
ENDBRANCH  10  11
ENDBRANCH   9  10
ENDBRANCH   7   9
ENDBRANCH   2   3
BRANCH   1  17
ATOM     17  C   UNL     1       4.135   6.514  17.792  0.00  0.00    +0.000 C 
BRANCH  17  18
ATOM     18  N   UNL     1       3.383   5.283  17.989  0.00  0.00    +0.000 N 
ATOM     19  C   UNL     1       3.768   4.389  18.948  0.00  0.00    +0.000 C 
ATOM     20  O   UNL     1       4.762   4.552  19.638  0.00  0.00    +0.000 OA
ATOM     21  H   UNL     1       2.531   5.119  17.472  0.00  0.00    +0.000 HD
BRANCH  19  22
ATOM     22  O   UNL     1       2.915   3.331  19.028  0.00  0.00    +0.000 OA
BRANCH  22  23
ATOM     23  C   UNL     1       1.914   3.341  20.089  0.00  0.00    +0.000 C 
ATOM     24  C   UNL     1       1.477   4.776  20.428  0.00  0.00    +0.000 C 
ATOM     25  C   UNL     1       0.674   2.588  19.560  0.00  0.00    +0.000 C 
ATOM     26  C   UNL     1       2.411   2.584  21.330  0.00  0.00    +0.000 C 
ENDBRANCH  22  23
ENDBRANCH  19  22
ENDBRANCH  17  18
BRANCH  17  27
ATOM     27  C   UNL     1       4.872   6.507  16.439  0.00  0.00    +0.000 C 
BRANCH  27  28
ATOM     28  C   UNL     1       6.310   5.980  16.540  0.00  0.00    +0.000 C 
BRANCH  28  30
ATOM     29  C   UNL     1       7.721   6.246  18.598  0.00  0.00    +0.000 C 
ATOM     30  C   UNL     1       7.228   6.918  17.324  0.00  0.00    +0.000 C 
ENDBRANCH  28  30
ENDBRANCH  27  28
ENDBRANCH  17  27
ENDBRANCH   1  17
TORSDOF 11
ENDMDL
MODEL 7
REMARK VINA RESULT:      -7.2      5.138      7.572
REMARK  Name = 
REMARK  16 active torsions:
REMARK  status: ('A' for Active; 'I' for Inactive)
REMARK    1  A    between atoms: C_1  and  C_2
REMARK    2  A    between atoms: C_2  and  C_3
REMARK    3  A    between atoms: C_3  and  C_4
REMARK    4  A    between atoms: C_4  and  C_5
REMARK    5  A    between atoms: C_5  and  C_6
REMARK    6  A    between atoms: C_5  and  N_21
REMARK    7  A    between atoms: N_7  and  N_8
REMARK    8  A    between atoms: N_8  and  C_9
REMARK    9  A    between atoms: N_12  and  C_13
REMARK   10  A    between atoms: C_13  and  C_14
REMARK   11  A    between atoms: C_14  and  C_15
REMARK   12  A    between atoms: C_22  and  O_24
REMARK   13  A    between atoms: O_24  and  C_25
REMARK   14  A    between atoms: C_25  and  C_26
REMARK   15  A    between atoms: C_25  and  C_27
REMARK   16  A    between atoms: C_25  and  C_28
REMARK                            x       y       z     vdW  Elec       q    Type
REMARK                         _______ _______ _______ _____ _____    ______ ____
ROOT
ATOM      1  C   UNL     1       1.953   6.556  19.330  0.00  0.00    +0.000 C 
ATOM      2  N   UNL     1       2.251   7.726  19.809  0.00  0.00    +0.000 NA
ENDROOT
BRANCH   2   3
ATOM      3  N   UNL     1       1.557   8.828  19.297  0.00  0.00    +0.000 N 
ATOM      4  C   UNL     1       1.837   9.092  17.892  0.00  0.00    +0.000 C 
ATOM      5  C   UNL     1       0.521   9.476  20.004  0.00  0.00    +0.000 C 
ATOM      6  O   UNL     1       0.131   9.162  21.126  0.00  0.00    +0.000 OA
ATOM      7  N   UNL     1      -0.042  10.562  19.353  0.00  0.00    +0.000 N 
ATOM      8  H   UNL     1       0.009  10.598  18.349  0.00  0.00    +0.000 HD
BRANCH   7   9
ATOM      9  C   UNL     1      -1.107  11.309  20.004  0.00  0.00    +0.000 C 
BRANCH   9  10
ATOM     10  C   UNL     1      -0.584  12.393  20.946  0.00  0.00    +0.000 C 
BRANCH  10  11
ATOM     11  C   UNL     1       0.468  13.237  20.269  0.00  0.00    +0.000 A 
ATOM     12  C   UNL     1       1.813  13.137  20.651  0.00  0.00    +0.000 A 
ATOM     13  C   UNL     1       2.771  13.987  20.097  0.00  0.00    +0.000 A 
ATOM     14  C   UNL     1       2.396  14.939  19.150  0.00  0.00    +0.000 A 
ATOM     15  C   UNL     1       1.065  15.033  18.748  0.00  0.00    +0.000 A 
ATOM     16  C   UNL     1       0.105  14.187  19.305  0.00  0.00    +0.000 A 
ENDBRANCH  10  11
ENDBRANCH   9  10
ENDBRANCH   7   9
ENDBRANCH   2   3
BRANCH   1  17
ATOM     17  C   UNL     1       2.671   5.275  19.728  0.00  0.00    +0.000 C 
BRANCH  17  18
ATOM     18  N   UNL     1       4.112   5.461  19.819  0.00  0.00    +0.000 N 
ATOM     19  C   UNL     1       4.957   4.602  19.173  0.00  0.00    +0.000 C 
ATOM     20  O   UNL     1       4.557   3.636  18.543  0.00  0.00    +0.000 OA
ATOM     21  H   UNL     1       4.493   6.266  20.295  0.00  0.00    +0.000 HD
BRANCH  19  22
ATOM     22  O   UNL     1       6.261   4.965  19.322  0.00  0.00    +0.000 OA
BRANCH  22  23
ATOM     23  C   UNL     1       6.931   5.582  18.183  0.00  0.00    +0.000 C 
ATOM     24  C   UNL     1       5.956   6.448  17.366  0.00  0.00    +0.000 C 
ATOM     25  C   UNL     1       8.026   6.514  18.742  0.00  0.00    +0.000 C 
ATOM     26  C   UNL     1       7.630   4.528  17.310  0.00  0.00    +0.000 C 
ENDBRANCH  22  23
ENDBRANCH  19  22
ENDBRANCH  17  18
BRANCH  17  27
ATOM     27  C   UNL     1       2.099   4.689  21.034  0.00  0.00    +0.000 C 
BRANCH  27  28
ATOM     28  C   UNL     1       1.669   3.222  20.897  0.00  0.00    +0.000 C 
BRANCH  28  30
ATOM     29  C   UNL     1       1.351   2.068  18.692  0.00  0.00    +0.000 C 
ATOM     30  C   UNL     1       0.719   2.996  19.721  0.00  0.00    +0.000 C 
ENDBRANCH  28  30
ENDBRANCH  27  28
ENDBRANCH  17  27
ENDBRANCH   1  17
TORSDOF 11
ENDMDL
MODEL 8
REMARK VINA RESULT:      -7.1      5.428      7.958
REMARK  Name = 
REMARK  16 active torsions:
REMARK  status: ('A' for Active; 'I' for Inactive)
REMARK    1  A    between atoms: C_1  and  C_2
REMARK    2  A    between atoms: C_2  and  C_3
REMARK    3  A    between atoms: C_3  and  C_4
REMARK    4  A    between atoms: C_4  and  C_5
REMARK    5  A    between atoms: C_5  and  C_6
REMARK    6  A    between atoms: C_5  and  N_21
REMARK    7  A    between atoms: N_7  and  N_8
REMARK    8  A    between atoms: N_8  and  C_9
REMARK    9  A    between atoms: N_12  and  C_13
REMARK   10  A    between atoms: C_13  and  C_14
REMARK   11  A    between atoms: C_14  and  C_15
REMARK   12  A    between atoms: C_22  and  O_24
REMARK   13  A    between atoms: O_24  and  C_25
REMARK   14  A    between atoms: C_25  and  C_26
REMARK   15  A    between atoms: C_25  and  C_27
REMARK   16  A    between atoms: C_25  and  C_28
REMARK                            x       y       z     vdW  Elec       q    Type
REMARK                         _______ _______ _______ _____ _____    ______ ____
ROOT
ATOM      1  C   UNL     1       3.646   7.559  17.973  0.00  0.00    +0.000 C 
ATOM      2  N   UNL     1       2.402   7.575  18.346  0.00  0.00    +0.000 NA
ENDROOT
BRANCH   2   3
ATOM      3  N   UNL     1       1.863   8.805  18.741  0.00  0.00    +0.000 N 
ATOM      4  C   UNL     1       1.747   9.767  17.653  0.00  0.00    +0.000 C 
ATOM      5  C   UNL     1       1.280   9.013  20.009  0.00  0.00    +0.000 C 
ATOM      6  O   UNL     1       1.195   8.163  20.894  0.00  0.00    +0.000 OA
ATOM      7  N   UNL     1       0.814  10.298  20.237  0.00  0.00    +0.000 N 
ATOM      8  H   UNL     1       0.559  10.862  19.444  0.00  0.00    +0.000 HD
BRANCH   7   9
ATOM      9  C   UNL     1       0.211  10.621  21.521  0.00  0.00    +0.000 C 
BRANCH   9  10
ATOM     10  C   UNL     1      -0.166  12.096  21.647  0.00  0.00    +0.000 C 
BRANCH  10  11
ATOM     11  C   UNL     1      -1.650  12.259  21.869  0.00  0.00    +0.000 A 
ATOM     12  C   UNL     1      -2.499  12.564  20.796  0.00  0.00    +0.000 A 
ATOM     13  C   UNL     1      -3.854  12.814  21.015  0.00  0.00    +0.000 A 
ATOM     14  C   UNL     1      -4.376  12.751  22.306  0.00  0.00    +0.000 A 
ATOM     15  C   UNL     1      -3.545  12.429  23.377  0.00  0.00    +0.000 A 
ATOM     16  C   UNL     1      -2.188  12.185  23.160  0.00  0.00    +0.000 A 
ENDBRANCH  10  11
ENDBRANCH   9  10
ENDBRANCH   7   9
ENDBRANCH   2   3
BRANCH   1  17
ATOM     17  C   UNL     1       4.394   6.291  17.590  0.00  0.00    +0.000 C 
BRANCH  17  18
ATOM     18  N   UNL     1       3.588   5.096  17.797  0.00  0.00    +0.000 N 
ATOM     19  C   UNL     1       3.913   4.212  18.787  0.00  0.00    +0.000 C 
ATOM     20  O   UNL     1       4.895   4.352  19.499  0.00  0.00    +0.000 OA
ATOM     21  H   UNL     1       2.743   4.953  17.262  0.00  0.00    +0.000 HD
BRANCH  19  22
ATOM     22  O   UNL     1       3.016   3.190  18.870  0.00  0.00    +0.000 OA
BRANCH  22  23
ATOM     23  C   UNL     1       1.990   3.265  19.904  0.00  0.00    +0.000 C 
ATOM     24  C   UNL     1       1.654   4.727  20.249  0.00  0.00    +0.000 C 
ATOM     25  C   UNL     1       0.712   2.615  19.334  0.00  0.00    +0.000 C 
ATOM     26  C   UNL     1       2.395   2.461  21.149  0.00  0.00    +0.000 C 
ENDBRANCH  22  23
ENDBRANCH  19  22
ENDBRANCH  17  18
BRANCH  17  27
ATOM     27  C   UNL     1       4.927   6.363  16.146  0.00  0.00    +0.000 C 
BRANCH  27  28
ATOM     28  C   UNL     1       6.171   5.493  15.921  0.00  0.00    +0.000 C 
BRANCH  28  30
ATOM     29  C   UNL     1       6.267   4.104  13.834  0.00  0.00    +0.000 C 
ATOM     30  C   UNL     1       5.838   4.139  15.294  0.00  0.00    +0.000 C 
ENDBRANCH  28  30
ENDBRANCH  27  28
ENDBRANCH  17  27
ENDBRANCH   1  17
TORSDOF 11
ENDMDL
MODEL 9
REMARK VINA RESULT:      -7.1      6.103     10.674
REMARK  Name = 
REMARK  16 active torsions:
REMARK  status: ('A' for Active; 'I' for Inactive)
REMARK    1  A    between atoms: C_1  and  C_2
REMARK    2  A    between atoms: C_2  and  C_3
REMARK    3  A    between atoms: C_3  and  C_4
REMARK    4  A    between atoms: C_4  and  C_5
REMARK    5  A    between atoms: C_5  and  C_6
REMARK    6  A    between atoms: C_5  and  N_21
REMARK    7  A    between atoms: N_7  and  N_8
REMARK    8  A    between atoms: N_8  and  C_9
REMARK    9  A    between atoms: N_12  and  C_13
REMARK   10  A    between atoms: C_13  and  C_14
REMARK   11  A    between atoms: C_14  and  C_15
REMARK   12  A    between atoms: C_22  and  O_24
REMARK   13  A    between atoms: O_24  and  C_25
REMARK   14  A    between atoms: C_25  and  C_26
REMARK   15  A    between atoms: C_25  and  C_27
REMARK   16  A    between atoms: C_25  and  C_28
REMARK                            x       y       z     vdW  Elec       q    Type
REMARK                         _______ _______ _______ _____ _____    ______ ____
ROOT
ATOM      1  C   UNL     1      -0.174  10.180  18.660  0.00  0.00    +0.000 C 
ATOM      2  N   UNL     1       1.064  10.075  19.036  0.00  0.00    +0.000 NA
ENDROOT
BRANCH   2   3
ATOM      3  N   UNL     1       1.645   8.802  18.997  0.00  0.00    +0.000 N 
ATOM      4  C   UNL     1       2.469   8.574  17.818  0.00  0.00    +0.000 C 
ATOM      5  C   UNL     1       1.621   7.916  20.095  0.00  0.00    +0.000 C 
ATOM      6  O   UNL     1       1.088   8.149  21.177  0.00  0.00    +0.000 OA
ATOM      7  N   UNL     1       2.227   6.689  19.872  0.00  0.00    +0.000 N 
ATOM      8  H   UNL     1       2.942   6.630  19.166  0.00  0.00    +0.000 HD
BRANCH   7   9
ATOM      9  C   UNL     1       2.241   5.697  20.936  0.00  0.00    +0.000 C 
BRANCH   9  10
ATOM     10  C   UNL     1       1.351   4.492  20.637  0.00  0.00    +0.000 C 
BRANCH  10  11
ATOM     11  C   UNL     1       2.074   3.483  19.779  0.00  0.00    +0.000 A 
ATOM     12  C   UNL     1       3.272   2.905  20.220  0.00  0.00    +0.000 A 
ATOM     13  C   UNL     1       3.994   2.049  19.388  0.00  0.00    +0.000 A 
ATOM     14  C   UNL     1       3.521   1.755  18.110  0.00  0.00    +0.000 A 
ATOM     15  C   UNL     1       2.321   2.307  17.669  0.00  0.00    +0.000 A 
ATOM     16  C   UNL     1       1.601   3.169  18.498  0.00  0.00    +0.000 A 
ENDBRANCH  10  11
ENDBRANCH   9  10
ENDBRANCH   7   9
ENDBRANCH   2   3
BRANCH   1  17
ATOM     17  C   UNL     1      -0.965  11.478  18.718  0.00  0.00    +0.000 C 
BRANCH  17  18
ATOM     18  N   UNL     1      -0.194  12.612  18.227  0.00  0.00    +0.000 N 
ATOM     19  C   UNL     1       0.246  13.571  19.095  0.00  0.00    +0.000 C 
ATOM     20  O   UNL     1      -0.017  13.550  20.287  0.00  0.00    +0.000 OA
ATOM     21  H   UNL     1       0.084  12.656  17.257  0.00  0.00    +0.000 HD
BRANCH  19  22
ATOM     22  O   UNL     1       0.997  14.518  18.468  0.00  0.00    +0.000 OA
BRANCH  22  23
ATOM     23  C   UNL     1       2.446  14.453  18.626  0.00  0.00    +0.000 C 
ATOM     24  C   UNL     1       2.985  13.063  18.248  0.00  0.00    +0.000 C 
ATOM     25  C   UNL     1       3.062  15.474  17.646  0.00  0.00    +0.000 C 
ATOM     26  C   UNL     1       2.870  14.867  20.043  0.00  0.00    +0.000 C 
ENDBRANCH  22  23
ENDBRANCH  19  22
ENDBRANCH  17  18
BRANCH  17  27
ATOM     27  C   UNL     1      -2.311  11.355  17.978  0.00  0.00    +0.000 C 
BRANCH  27  28
ATOM     28  C   UNL     1      -2.229  10.469  16.727  0.00  0.00    +0.000 C 
BRANCH  28  30
ATOM     29  C   UNL     1      -3.045  10.041  14.393  0.00  0.00    +0.000 C 
ATOM     30  C   UNL     1      -3.051  11.018  15.561  0.00  0.00    +0.000 C 
ENDBRANCH  28  30
ENDBRANCH  27  28
ENDBRANCH  17  27
ENDBRANCH   1  17
TORSDOF 11
ENDMDL
