MODEL 1
REMARK VINA RESULT:      -8.2      0.000      0.000
REMARK  Name = 
REMARK  5 active torsions:
REMARK  status: ('A' for Active; 'I' for Inactive)
REMARK    1  A    between atoms: C_1  and  O_2
REMARK    2  A    between atoms: O_2  and  C_3
REMARK    3  A    between atoms: C_8  and  N_9
REMARK    4  A    between atoms: N_12  and  S_13
REMARK    5  A    between atoms: S_13  and  C_16
REMARK                            x       y       z     vdW  Elec       q    Type
REMARK                         _______ _______ _______ _____ _____    ______ ____
ROOT
ATOM      1  N   UNL     1       3.724   4.451  18.426  0.00  0.00    +0.000 N 
ATOM      2  C   UNL     1       4.030   3.715  17.191  0.00  0.00    +0.000 C 
ATOM      3  C   UNL     1       4.222   4.705  16.026  0.00  0.00    +0.000 C 
ATOM      4  N   UNL     1       5.239   5.767  16.322  0.00  0.00    +0.000 NA
ATOM      5  C   UNL     1       4.897   6.458  17.618  0.00  0.00    +0.000 C 
ATOM      6  C   UNL     1       4.736   5.464  18.789  0.00  0.00    +0.000 C 
ENDROOT
BRANCH   1  12
ATOM      7  C   UNL     1       3.477   2.905  20.330  0.00  0.00    +0.000 A 
ATOM      8  C   UNL     1       2.694   2.421  21.392  0.00  0.00    +0.000 A 
ATOM      9  C   UNL     1       1.392   2.878  21.586  0.00  0.00    +0.000 A 
ATOM     10  C   UNL     1       0.847   3.793  20.698  0.00  0.00    +0.000 A 
ATOM     11  C   UNL     1       1.611   4.259  19.625  0.00  0.00    +0.000 A 
ATOM     12  C   UNL     1       2.944   3.852  19.417  0.00  0.00    +0.000 A 
BRANCH   7  14
ATOM     13  C   UNL     1       5.231   1.371  20.846  0.00  0.00    +0.000 C 
ATOM     14  O   UNL     1       4.788   2.523  20.143  0.00  0.00    +0.000 OA
ENDBRANCH   7  14
ENDBRANCH   1  12
BRANCH   4  15
ATOM     15  S   UNL     1       6.873   5.328  16.155  0.00  0.00    +0.000 S 
ATOM     16  O   UNL     1       7.684   6.514  16.315  0.00  0.00    +0.000 OA
ATOM     17  O   UNL     1       7.115   4.146  16.954  0.00  0.00    +0.000 OA
BRANCH  15  18
ATOM     18  C   UNL     1       6.961   4.860  14.445  0.00  0.00    +0.000 A 
ATOM     19  C   UNL     1       7.795   5.587  13.586  0.00  0.00    +0.000 A 
ATOM     20  C   UNL     1       7.871   5.236  12.239  0.00  0.00    +0.000 A 
ATOM     21  C   UNL     1       7.116   4.163  11.758  0.00  0.00    +0.000 A 
ATOM     22  C   UNL     1       6.297   3.448  12.628  0.00  0.00    +0.000 A 
ATOM     23  F   UNL     1       5.574   2.424  12.156  0.00  0.00    +0.000 F 
ATOM     24  C   UNL     1       6.212   3.780  13.974  0.00  0.00    +0.000 A 
ENDBRANCH  15  18
ENDBRANCH   4  15
TORSDOF 4
ENDMDL
MODEL 2
REMARK VINA RESULT:      -8.0      1.420      2.385
REMARK  Name = 
REMARK  5 active torsions:
REMARK  status: ('A' for Active; 'I' for Inactive)
REMARK    1  A    between atoms: C_1  and  O_2
REMARK    2  A    between atoms: O_2  and  C_3
REMARK    3  A    between atoms: C_8  and  N_9
REMARK    4  A    between atoms: N_12  and  S_13
REMARK    5  A    between atoms: S_13  and  C_16
REMARK                            x       y       z     vdW  Elec       q    Type
REMARK                         _______ _______ _______ _____ _____    ______ ____
ROOT
ATOM      1  N   UNL     1       4.368   3.974  18.804  0.00  0.00    +0.000 N 
ATOM      2  C   UNL     1       5.433   4.954  19.066  0.00  0.00    +0.000 C 
ATOM      3  C   UNL     1       6.721   4.534  18.331  0.00  0.00    +0.000 C 
ATOM      4  N   UNL     1       6.508   4.303  16.864  0.00  0.00    +0.000 NA
ATOM      5  C   UNL     1       5.380   3.325  16.657  0.00  0.00    +0.000 C 
ATOM      6  C   UNL     1       4.083   3.765  17.370  0.00  0.00    +0.000 C 
ENDROOT
BRANCH   1  12
ATOM      7  C   UNL     1       2.204   4.570  19.823  0.00  0.00    +0.000 A 
ATOM      8  C   UNL     1       1.164   4.248  20.711  0.00  0.00    +0.000 A 
ATOM      9  C   UNL     1       1.243   3.117  21.523  0.00  0.00    +0.000 A 
ATOM     10  C   UNL     1       2.377   2.322  21.484  0.00  0.00    +0.000 A 
ATOM     11  C   UNL     1       3.427   2.652  20.622  0.00  0.00    +0.000 A 
ATOM     12  C   UNL     1       3.369   3.762  19.757  0.00  0.00    +0.000 A 
BRANCH   7  14
ATOM     13  C   UNL     1       2.362   6.931  19.515  0.00  0.00    +0.000 C 
ATOM     14  O   UNL     1       2.135   5.643  18.961  0.00  0.00    +0.000 OA
ENDBRANCH   7  14
ENDBRANCH   1  12
BRANCH   4  15
ATOM     15  S   UNL     1       6.450   5.684  15.873  0.00  0.00    +0.000 S 
ATOM     16  O   UNL     1       5.109   6.223  15.920  0.00  0.00    +0.000 OA
ATOM     17  O   UNL     1       7.598   6.512  16.171  0.00  0.00    +0.000 OA
BRANCH  15  18
ATOM     18  C   UNL     1       6.679   4.992  14.254  0.00  0.00    +0.000 A 
ATOM     19  C   UNL     1       7.728   5.467  13.457  0.00  0.00    +0.000 A 
ATOM     20  C   UNL     1       7.919   4.938  12.181  0.00  0.00    +0.000 A 
ATOM     21  C   UNL     1       7.063   3.940  11.709  0.00  0.00    +0.000 A 
ATOM     22  C   UNL     1       6.029   3.475  12.519  0.00  0.00    +0.000 A 
ATOM     23  F   UNL     1       5.211   2.520  12.055  0.00  0.00    +0.000 F 
ATOM     24  C   UNL     1       5.826   3.987  13.794  0.00  0.00    +0.000 A 
ENDBRANCH  15  18
ENDBRANCH   4  15
TORSDOF 4
ENDMDL
MODEL 3
REMARK VINA RESULT:      -7.9      1.149      1.920
REMARK  Name = 
REMARK  5 active torsions:
REMARK  status: ('A' for Active; 'I' for Inactive)
REMARK    1  A    between atoms: C_1  and  O_2
REMARK    2  A    between atoms: O_2  and  C_3
REMARK    3  A    between atoms: C_8  and  N_9
REMARK    4  A    between atoms: N_12  and  S_13
REMARK    5  A    between atoms: S_13  and  C_16
REMARK                            x       y       z     vdW  Elec       q    Type
REMARK                         _______ _______ _______ _____ _____    ______ ____
ROOT
ATOM      1  N   UNL     1       4.030   4.550  18.612  0.00  0.00    +0.000 N 
ATOM      2  C   UNL     1       4.290   3.693  17.445  0.00  0.00    +0.000 C 
ATOM      3  C   UNL     1       4.349   4.553  16.168  0.00  0.00    +0.000 C 
ATOM      4  N   UNL     1       5.327   5.686  16.270  0.00  0.00    +0.000 NA
ATOM      5  C   UNL     1       5.038   6.503  17.504  0.00  0.00    +0.000 C 
ATOM      6  C   UNL     1       5.010   5.642  18.786  0.00  0.00    +0.000 C 
ENDROOT
BRANCH   1  12
ATOM      7  C   UNL     1       2.198   4.660  20.257  0.00  0.00    +0.000 A 
ATOM      8  C   UNL     1       1.470   4.042  21.288  0.00  0.00    +0.000 A 
ATOM      9  C   UNL     1       1.848   2.794  21.781  0.00  0.00    +0.000 A 
ATOM     10  C   UNL     1       2.979   2.171  21.277  0.00  0.00    +0.000 A 
ATOM     11  C   UNL     1       3.723   2.792  20.271  0.00  0.00    +0.000 A 
ATOM     12  C   UNL     1       3.352   4.033  19.717  0.00  0.00    +0.000 A 
BRANCH   7  14
ATOM     13  C   UNL     1       1.743   6.980  20.576  0.00  0.00    +0.000 C 
ATOM     14  O   UNL     1       1.820   5.862  19.702  0.00  0.00    +0.000 OA
ENDBRANCH   7  14
ENDBRANCH   1  12
BRANCH   4  15
ATOM     15  S   UNL     1       6.966   5.305  16.032  0.00  0.00    +0.000 S 
ATOM     16  O   UNL     1       7.743   6.516  16.171  0.00  0.00    +0.000 OA
ATOM     17  O   UNL     1       7.281   4.125  16.807  0.00  0.00    +0.000 OA
BRANCH  15  18
ATOM     18  C   UNL     1       7.000   4.856  14.314  0.00  0.00    +0.000 A 
ATOM     19  C   UNL     1       7.817   5.583  13.440  0.00  0.00    +0.000 A 
ATOM     20  C   UNL     1       7.851   5.248  12.087  0.00  0.00    +0.000 A 
ATOM     21  C   UNL     1       7.070   4.189  11.616  0.00  0.00    +0.000 A 
ATOM     22  C   UNL     1       6.268   3.472  12.502  0.00  0.00    +0.000 A 
ATOM     23  F   UNL     1       5.520   2.462  12.039  0.00  0.00    +0.000 F 
ATOM     24  C   UNL     1       6.225   3.790  13.853  0.00  0.00    +0.000 A 
ENDBRANCH  15  18
ENDBRANCH   4  15
TORSDOF 4
ENDMDL
MODEL 4
REMARK VINA RESULT:      -7.9      1.770      2.451
REMARK  Name = 
REMARK  5 active torsions:
REMARK  status: ('A' for Active; 'I' for Inactive)
REMARK    1  A    between atoms: C_1  and  O_2
REMARK    2  A    between atoms: O_2  and  C_3
REMARK    3  A    between atoms: C_8  and  N_9
REMARK    4  A    between atoms: N_12  and  S_13
REMARK    5  A    between atoms: S_13  and  C_16
REMARK                            x       y       z     vdW  Elec       q    Type
REMARK                         _______ _______ _______ _____ _____    ______ ____
ROOT
ATOM      1  N   UNL     1       4.706   4.541  17.801  0.00  0.00    +0.000 N 
ATOM      2  C   UNL     1       5.813   5.509  17.748  0.00  0.00    +0.000 C 
ATOM      3  C   UNL     1       7.068   4.835  17.162  0.00  0.00    +0.000 C 
ATOM      4  N   UNL     1       6.817   4.184  15.833  0.00  0.00    +0.000 NA
ATOM      5  C   UNL     1       5.649   3.237  15.939  0.00  0.00    +0.000 C 
ATOM      6  C   UNL     1       4.384   3.924  16.499  0.00  0.00    +0.000 C 
ENDROOT
BRANCH   1  12
ATOM      7  C   UNL     1       3.448   3.631  19.716  0.00  0.00    +0.000 A 
ATOM      8  C   UNL     1       2.539   3.842  20.766  0.00  0.00    +0.000 A 
ATOM      9  C   UNL     1       1.909   5.075  20.929  0.00  0.00    +0.000 A 
ATOM     10  C   UNL     1       2.151   6.094  20.021  0.00  0.00    +0.000 A 
ATOM     11  C   UNL     1       3.033   5.883  18.959  0.00  0.00    +0.000 A 
ATOM     12  C   UNL     1       3.721   4.666  18.782  0.00  0.00    +0.000 A 
BRANCH   7  14
ATOM     13  C   UNL     1       3.479   1.409  18.848  0.00  0.00    +0.000 C 
ATOM     14  O   UNL     1       4.136   2.448  19.559  0.00  0.00    +0.000 OA
ENDBRANCH   7  14
ENDBRANCH   1  12
BRANCH   4  15
ATOM     15  S   UNL     1       6.789   5.206  14.475  0.00  0.00    +0.000 S 
ATOM     16  O   UNL     1       5.724   6.168  14.648  0.00  0.00    +0.000 OA
ATOM     17  O   UNL     1       8.142   5.634  14.194  0.00  0.00    +0.000 OA
BRANCH  15  18
ATOM     18  C   UNL     1       6.287   4.096  13.183  0.00  0.00    +0.000 A 
ATOM     19  C   UNL     1       4.930   4.018  12.848  0.00  0.00    +0.000 A 
ATOM     20  C   UNL     1       4.517   3.147  11.839  0.00  0.00    +0.000 A 
ATOM     21  C   UNL     1       5.462   2.362  11.173  0.00  0.00    +0.000 A 
ATOM     22  C   UNL     1       6.809   2.458  11.516  0.00  0.00    +0.000 A 
ATOM     23  F   UNL     1       7.705   1.697  10.873  0.00  0.00    +0.000 F 
ATOM     24  C   UNL     1       7.238   3.322  12.514  0.00  0.00    +0.000 A 
ENDBRANCH  15  18
ENDBRANCH   4  15
TORSDOF 4
ENDMDL
MODEL 5
REMARK VINA RESULT:      -7.8      1.954      2.979
REMARK  Name = 
REMARK  5 active torsions:
REMARK  status: ('A' for Active; 'I' for Inactive)
REMARK    1  A    between atoms: C_1  and  O_2
REMARK    2  A    between atoms: O_2  and  C_3
REMARK    3  A    between atoms: C_8  and  N_9
REMARK    4  A    between atoms: N_12  and  S_13
REMARK    5  A    between atoms: S_13  and  C_16
REMARK                            x       y       z     vdW  Elec       q    Type
REMARK                         _______ _______ _______ _____ _____    ______ ____
ROOT
ATOM      1  N   UNL     1       4.784   4.221  18.087  0.00  0.00    +0.000 N 
ATOM      2  C   UNL     1       5.887   5.193  18.040  0.00  0.00    +0.000 C 
ATOM      3  C   UNL     1       7.105   4.566  17.334  0.00  0.00    +0.000 C 
ATOM      4  N   UNL     1       6.776   4.013  15.979  0.00  0.00    +0.000 NA
ATOM      5  C   UNL     1       5.615   3.058  16.084  0.00  0.00    +0.000 C 
ATOM      6  C   UNL     1       4.386   3.699  16.764  0.00  0.00    +0.000 C 
ENDROOT
BRANCH   1  12
ATOM      7  C   UNL     1       2.938   5.345  19.272  0.00  0.00    +0.000 A 
ATOM      8  C   UNL     1       1.938   5.298  20.258  0.00  0.00    +0.000 A 
ATOM      9  C   UNL     1       1.811   4.191  21.096  0.00  0.00    +0.000 A 
ATOM     10  C   UNL     1       2.707   3.139  20.983  0.00  0.00    +0.000 A 
ATOM     11  C   UNL     1       3.720   3.191  20.022  0.00  0.00    +0.000 A 
ATOM     12  C   UNL     1       3.858   4.272  19.130  0.00  0.00    +0.000 A 
BRANCH   7  14
ATOM     13  C   UNL     1       2.432   7.617  18.749  0.00  0.00    +0.000 C 
ATOM     14  O   UNL     1       3.055   6.393  18.386  0.00  0.00    +0.000 OA
ENDBRANCH   7  14
ENDBRANCH   1  12
BRANCH   4  15
ATOM     15  S   UNL     1       6.671   5.130  14.702  0.00  0.00    +0.000 S 
ATOM     16  O   UNL     1       5.559   6.016  14.960  0.00  0.00    +0.000 OA
ATOM     17  O   UNL     1       7.994   5.652  14.438  0.00  0.00    +0.000 OA
BRANCH  15  18
ATOM     18  C   UNL     1       6.209   4.094  13.336  0.00  0.00    +0.000 A 
ATOM     19  C   UNL     1       4.859   4.009  12.977  0.00  0.00    +0.000 A 
ATOM     20  C   UNL     1       4.478   3.195  11.910  0.00  0.00    +0.000 A 
ATOM     21  C   UNL     1       5.448   2.472  11.210  0.00  0.00    +0.000 A 
ATOM     22  C   UNL     1       6.788   2.574  11.577  0.00  0.00    +0.000 A 
ATOM     23  F   UNL     1       7.708   1.874  10.902  0.00  0.00    +0.000 F 
ATOM     24  C   UNL     1       7.185   3.383  12.634  0.00  0.00    +0.000 A 
ENDBRANCH  15  18
ENDBRANCH   4  15
TORSDOF 4
ENDMDL
MODEL 6
REMARK VINA RESULT:      -7.7      1.002      1.562
REMARK  Name = 
REMARK  5 active torsions:
REMARK  status: ('A' for Active; 'I' for Inactive)
REMARK    1  A    between atoms: C_1  and  O_2
REMARK    2  A    between atoms: O_2  and  C_3
REMARK    3  A    between atoms: C_8  and  N_9
REMARK    4  A    between atoms: N_12  and  S_13
REMARK    5  A    between atoms: S_13  and  C_16
REMARK                            x       y       z     vdW  Elec       q    Type
REMARK                         _______ _______ _______ _____ _____    ______ ____
ROOT
ATOM      1  N   UNL     1       4.297   3.744  18.719  0.00  0.00    +0.000 N 
ATOM      2  C   UNL     1       5.218   4.837  19.063  0.00  0.00    +0.000 C 
ATOM      3  C   UNL     1       6.598   4.577  18.429  0.00  0.00    +0.000 C 
ATOM      4  N   UNL     1       6.527   4.337  16.950  0.00  0.00    +0.000 NA
ATOM      5  C   UNL     1       5.538   3.237  16.655  0.00  0.00    +0.000 C 
ATOM      6  C   UNL     1       4.148   3.517  17.267  0.00  0.00    +0.000 C 
ENDROOT
BRANCH   1  12
ATOM      7  C   UNL     1       3.482   2.659  20.776  0.00  0.00    +0.000 A 
ATOM      8  C   UNL     1       2.437   2.450  21.692  0.00  0.00    +0.000 A 
ATOM      9  C   UNL     1       1.173   2.996  21.471  0.00  0.00    +0.000 A 
ATOM     10  C   UNL     1       0.931   3.720  20.314  0.00  0.00    +0.000 A 
ATOM     11  C   UNL     1       1.958   3.908  19.386  0.00  0.00    +0.000 A 
ATOM     12  C   UNL     1       3.260   3.408  19.591  0.00  0.00    +0.000 A 
BRANCH   7  14
ATOM     13  C   UNL     1       5.040   0.865  20.558  0.00  0.00    +0.000 C 
ATOM     14  O   UNL     1       4.758   2.189  20.991  0.00  0.00    +0.000 OA
ENDBRANCH   7  14
ENDBRANCH   1  12
BRANCH   4  15
ATOM     15  S   UNL     1       6.384   5.711  15.959  0.00  0.00    +0.000 S 
ATOM     16  O   UNL     1       5.017   6.178  16.019  0.00  0.00    +0.000 OA
ATOM     17  O   UNL     1       7.489   6.600  16.244  0.00  0.00    +0.000 OA
BRANCH  15  18
ATOM     18  C   UNL     1       6.635   5.031  14.338  0.00  0.00    +0.000 A 
ATOM     19  C   UNL     1       7.708   5.495  13.567  0.00  0.00    +0.000 A 
ATOM     20  C   UNL     1       7.916   4.975  12.290  0.00  0.00    +0.000 A 
ATOM     21  C   UNL     1       7.052   3.996  11.791  0.00  0.00    +0.000 A 
ATOM     22  C   UNL     1       5.993   3.542  12.575  0.00  0.00    +0.000 A 
ATOM     23  F   UNL     1       5.169   2.607  12.085  0.00  0.00    +0.000 F 
ATOM     24  C   UNL     1       5.774   4.046  13.851  0.00  0.00    +0.000 A 
ENDBRANCH  15  18
ENDBRANCH   4  15
TORSDOF 4
ENDMDL
MODEL 7
REMARK VINA RESULT:      -7.6      1.760      2.391
REMARK  Name = 
REMARK  5 active torsions:
REMARK  status: ('A' for Active; 'I' for Inactive)
REMARK    1  A    between atoms: C_1  and  O_2
REMARK    2  A    between atoms: O_2  and  C_3
REMARK    3  A    between atoms: C_8  and  N_9
REMARK    4  A    between atoms: N_12  and  S_13
REMARK    5  A    between atoms: S_13  and  C_16
REMARK                            x       y       z     vdW  Elec       q    Type
REMARK                         _______ _______ _______ _____ _____    ______ ____
ROOT
ATOM      1  N   UNL     1       4.691   4.665  17.792  0.00  0.00    +0.000 N 
ATOM      2  C   UNL     1       5.824   5.601  17.723  0.00  0.00    +0.000 C 
ATOM      3  C   UNL     1       7.061   4.883  17.150  0.00  0.00    +0.000 C 
ATOM      4  N   UNL     1       6.793   4.217  15.833  0.00  0.00    +0.000 NA
ATOM      5  C   UNL     1       5.599   3.304  15.954  0.00  0.00    +0.000 C 
ATOM      6  C   UNL     1       4.353   4.035  16.499  0.00  0.00    +0.000 C 
ENDROOT
BRANCH   1  12
ATOM      7  C   UNL     1       3.379   3.810  19.695  0.00  0.00    +0.000 A 
ATOM      8  C   UNL     1       2.477   4.060  20.742  0.00  0.00    +0.000 A 
ATOM      9  C   UNL     1       1.909   5.322  20.909  0.00  0.00    +0.000 A 
ATOM     10  C   UNL     1       2.207   6.333  20.009  0.00  0.00    +0.000 A 
ATOM     11  C   UNL     1       3.082   6.083  18.949  0.00  0.00    +0.000 A 
ATOM     12  C   UNL     1       3.709   4.834  18.769  0.00  0.00    +0.000 A 
BRANCH   7  14
ATOM     13  C   UNL     1       3.264   1.562  18.902  0.00  0.00    +0.000 C 
ATOM     14  O   UNL     1       4.007   2.594  19.534  0.00  0.00    +0.000 OA
ENDBRANCH   7  14
ENDBRANCH   1  12
BRANCH   4  15
ATOM     15  S   UNL     1       6.795   5.215  14.457  0.00  0.00    +0.000 S 
ATOM     16  O   UNL     1       5.725   6.178  14.590  0.00  0.00    +0.000 OA
ATOM     17  O   UNL     1       8.153   5.640  14.199  0.00  0.00    +0.000 OA
BRANCH  15  18
ATOM     18  C   UNL     1       6.323   4.082  13.174  0.00  0.00    +0.000 A 
ATOM     19  C   UNL     1       7.314   3.312  12.553  0.00  0.00    +0.000 A 
ATOM     20  C   UNL     1       6.961   2.421  11.539  0.00  0.00    +0.000 A 
ATOM     21  C   UNL     1       5.623   2.306  11.152  0.00  0.00    +0.000 A 
ATOM     22  C   UNL     1       4.650   3.076  11.786  0.00  0.00    +0.000 A 
ATOM     23  F   UNL     1       3.371   2.961  11.405  0.00  0.00    +0.000 F 
ATOM     24  C   UNL     1       4.983   3.965  12.800  0.00  0.00    +0.000 A 
ENDBRANCH  15  18
ENDBRANCH   4  15
TORSDOF 4
ENDMDL
MODEL 8
REMARK VINA RESULT:      -7.6      0.943      1.364
REMARK  Name = 
REMARK  5 active torsions:
REMARK  status: ('A' for Active; 'I' for Inactive)
REMARK    1  A    between atoms: C_1  and  O_2
REMARK    2  A    between atoms: O_2  and  C_3
REMARK    3  A    between atoms: C_8  and  N_9
REMARK    4  A    between atoms: N_12  and  S_13
REMARK    5  A    between atoms: S_13  and  C_16
REMARK                            x       y       z     vdW  Elec       q    Type
REMARK                         _______ _______ _______ _____ _____    ______ ____
ROOT
ATOM      1  N   UNL     1       3.734   4.426  18.530  0.00  0.00    +0.000 N 
ATOM      2  C   UNL     1       4.001   3.746  17.254  0.00  0.00    +0.000 C 
ATOM      3  C   UNL     1       4.209   4.790  16.140  0.00  0.00    +0.000 C 
ATOM      4  N   UNL     1       5.263   5.804  16.476  0.00  0.00    +0.000 NA
ATOM      5  C   UNL     1       4.958   6.436  17.810  0.00  0.00    +0.000 C 
ATOM      6  C   UNL     1       4.781   5.388  18.930  0.00  0.00    +0.000 C 
ENDROOT
BRANCH   1  12
ATOM      7  C   UNL     1       3.489   2.869  20.425  0.00  0.00    +0.000 A 
ATOM      8  C   UNL     1       2.694   2.358  21.466  0.00  0.00    +0.000 A 
ATOM      9  C   UNL     1       1.373   2.772  21.626  0.00  0.00    +0.000 A 
ATOM     10  C   UNL     1       0.822   3.670  20.726  0.00  0.00    +0.000 A 
ATOM     11  C   UNL     1       1.597   4.162  19.673  0.00  0.00    +0.000 A 
ATOM     12  C   UNL     1       2.948   3.800  19.500  0.00  0.00    +0.000 A 
BRANCH   7  14
ATOM     13  C   UNL     1       5.238   1.301  20.845  0.00  0.00    +0.000 C 
ATOM     14  O   UNL     1       4.815   2.531  20.272  0.00  0.00    +0.000 OA
ENDBRANCH   7  14
ENDBRANCH   1  12
BRANCH   4  15
ATOM     15  S   UNL     1       6.880   5.325  16.263  0.00  0.00    +0.000 S 
ATOM     16  O   UNL     1       7.725   6.488  16.415  0.00  0.00    +0.000 OA
ATOM     17  O   UNL     1       7.111   4.128  17.042  0.00  0.00    +0.000 OA
BRANCH  15  18
ATOM     18  C   UNL     1       6.913   4.874  14.545  0.00  0.00    +0.000 A 
ATOM     19  C   UNL     1       6.255   3.707  14.139  0.00  0.00    +0.000 A 
ATOM     20  C   UNL     1       6.276   3.336  12.795  0.00  0.00    +0.000 A 
ATOM     21  C   UNL     1       6.953   4.132  11.866  0.00  0.00    +0.000 A 
ATOM     22  C   UNL     1       7.596   5.293  12.289  0.00  0.00    +0.000 A 
ATOM     23  F   UNL     1       8.246   6.046  11.391  0.00  0.00    +0.000 F 
ATOM     24  C   UNL     1       7.583   5.680  13.622  0.00  0.00    +0.000 A 
ENDBRANCH  15  18
ENDBRANCH   4  15
TORSDOF 4
ENDMDL
MODEL 9
REMARK VINA RESULT:      -7.5      1.882      2.817
REMARK  Name = 
REMARK  5 active torsions:
REMARK  status: ('A' for Active; 'I' for Inactive)
REMARK    1  A    between atoms: C_1  and  O_2
REMARK    2  A    between atoms: O_2  and  C_3
REMARK    3  A    between atoms: C_8  and  N_9
REMARK    4  A    between atoms: N_12  and  S_13
REMARK    5  A    between atoms: S_13  and  C_16
REMARK                            x       y       z     vdW  Elec       q    Type
REMARK                         _______ _______ _______ _____ _____    ______ ____
ROOT
ATOM      1  N   UNL     1       4.690   4.128  18.150  0.00  0.00    +0.000 N 
ATOM      2  C   UNL     1       5.801   5.092  18.143  0.00  0.00    +0.000 C 
ATOM      3  C   UNL     1       7.018   4.481  17.422  0.00  0.00    +0.000 C 
ATOM      4  N   UNL     1       6.692   3.979  16.046  0.00  0.00    +0.000 NA
ATOM      5  C   UNL     1       5.522   3.030  16.111  0.00  0.00    +0.000 C 
ATOM      6  C   UNL     1       4.294   3.656  16.807  0.00  0.00    +0.000 C 
ENDROOT
BRANCH   1  12
ATOM      7  C   UNL     1       2.767   5.161  19.296  0.00  0.00    +0.000 A 
ATOM      8  C   UNL     1       1.769   5.078  20.281  0.00  0.00    +0.000 A 
ATOM      9  C   UNL     1       1.715   3.992  21.154  0.00  0.00    +0.000 A 
ATOM     10  C   UNL     1       2.680   3.001  21.076  0.00  0.00    +0.000 A 
ATOM     11  C   UNL     1       3.691   3.090  20.116  0.00  0.00    +0.000 A 
ATOM     12  C   UNL     1       3.758   4.149  19.189  0.00  0.00    +0.000 A 
BRANCH   7  14
ATOM     13  C   UNL     1       2.424   7.475  18.826  0.00  0.00    +0.000 C 
ATOM     14  O   UNL     1       2.817   6.186  18.377  0.00  0.00    +0.000 OA
ENDBRANCH   7  14
ENDBRANCH   1  12
BRANCH   4  15
ATOM     15  S   UNL     1       6.602   5.142  14.809  0.00  0.00    +0.000 S 
ATOM     16  O   UNL     1       5.458   5.988  15.060  0.00  0.00    +0.000 OA
ATOM     17  O   UNL     1       7.920   5.707  14.614  0.00  0.00    +0.000 OA
BRANCH  15  18
ATOM     18  C   UNL     1       6.217   4.147  13.389  0.00  0.00    +0.000 A 
ATOM     19  C   UNL     1       7.266   3.577  12.658  0.00  0.00    +0.000 A 
ATOM     20  C   UNL     1       6.982   2.798  11.537  0.00  0.00    +0.000 A 
ATOM     21  C   UNL     1       5.653   2.593  11.154  0.00  0.00    +0.000 A 
ATOM     22  C   UNL     1       4.623   3.164  11.897  0.00  0.00    +0.000 A 
ATOM     23  F   UNL     1       3.353   2.965  11.519  0.00  0.00    +0.000 F 
ATOM     24  C   UNL     1       4.887   3.939  13.019  0.00  0.00    +0.000 A 
ENDBRANCH  15  18
ENDBRANCH   4  15
TORSDOF 4
ENDMDL
