MODEL 1
REMARK VINA RESULT:      -8.0      0.000      0.000
REMARK  Name = 
REMARK  7 active torsions:
REMARK  status: ('A' for Active; 'I' for Inactive)
REMARK    1  A    between atoms: C_1  and  C_2
REMARK    2  A    between atoms: C_2  and  C_3
REMARK    3  A    between atoms: C_6  and  O_7
REMARK    4  A    between atoms: C_8  and  C_9
REMARK    5  A    between atoms: C_9  and  O_11
REMARK    6  A    between atoms: C_14  and  C_15
REMARK    7  A    between atoms: C_14  and  C_16
REMARK                            x       y       z     vdW  Elec       q    Type
REMARK                         _______ _______ _______ _____ _____    ______ ____
ROOT
ATOM      1  C   UNL     1       3.006   6.692  18.949  0.00  0.00    +0.000 C 
ATOM      2  C   UNL     1       3.696   5.319  19.497  0.00  0.00    +0.000 C 
ATOM      3  C   UNL     1       2.378   5.152  20.431  0.00  0.00    +0.000 C 
ATOM      4  C   UNL     1       4.526   5.302  18.160  0.00  0.00    +0.000 A 
ATOM      5  C   UNL     1       5.647   6.093  17.893  0.00  0.00    +0.000 A 
ATOM      6  C   UNL     1       6.370   5.877  16.709  0.00  0.00    +0.000 A 
ATOM      7  C   UNL     1       5.978   4.903  15.772  0.00  0.00    +0.000 A 
ATOM      8  C   UNL     1       4.893   4.077  16.070  0.00  0.00    +0.000 A 
ATOM      9  C   UNL     1       4.222   4.256  17.277  0.00  0.00    +0.000 A 
ATOM     10  C   UNL     1       3.364   3.293  18.032  0.00  0.00    +0.000 C 
ATOM     11  C   UNL     1       3.754   1.813  17.822  0.00  0.00    +0.000 C 
ATOM     12  C   UNL     1       1.873   3.427  17.659  0.00  0.00    +0.000 C 
ATOM     13  N   UNL     1       3.508   3.787  19.426  0.00  0.00    +0.000 NA
ATOM     14  O   UNL     1       4.648   3.241  20.089  0.00  0.00    +0.000 OA
ENDROOT
BRANCH   6  15
ATOM     15  O   UNL     1       7.531   6.590  16.526  0.00  0.00    +0.000 OA
ATOM     16  H   UNL     1       8.043   6.483  17.353  0.00  0.00    +0.000 HD
ENDBRANCH   6  15
BRANCH   7  17
ATOM     17  C   UNL     1       6.724   4.626  14.499  0.00  0.00    +0.000 C 
ATOM     18  O   UNL     1       7.620   5.341  14.077  0.00  0.00    +0.000 OA
BRANCH  17  19
ATOM     19  O   UNL     1       6.347   3.498  13.848  0.00  0.00    +0.000 OA
ATOM     20  H   UNL     1       5.405   3.285  14.037  0.00  0.00    +0.000 HD
ENDBRANCH  17  19
ENDBRANCH   7  17
TORSDOF 3
ENDMDL
MODEL 2
REMARK VINA RESULT:      -7.5      0.728      1.043
REMARK  Name = 
REMARK  7 active torsions:
REMARK  status: ('A' for Active; 'I' for Inactive)
REMARK    1  A    between atoms: C_1  and  C_2
REMARK    2  A    between atoms: C_2  and  C_3
REMARK    3  A    between atoms: C_6  and  O_7
REMARK    4  A    between atoms: C_8  and  C_9
REMARK    5  A    between atoms: C_9  and  O_11
REMARK    6  A    between atoms: C_14  and  C_15
REMARK    7  A    between atoms: C_14  and  C_16
REMARK                            x       y       z     vdW  Elec       q    Type
REMARK                         _______ _______ _______ _____ _____    ______ ____
ROOT
ATOM      1  C   UNL     1       2.852   6.741  19.484  0.00  0.00    +0.000 C 
ATOM      2  C   UNL     1       3.221   5.203  19.878  0.00  0.00    +0.000 C 
ATOM      3  C   UNL     1       1.800   5.172  20.663  0.00  0.00    +0.000 C 
ATOM      4  C   UNL     1       4.178   5.200  18.629  0.00  0.00    +0.000 A 
ATOM      5  C   UNL     1       5.444   5.790  18.577  0.00  0.00    +0.000 A 
ATOM      6  C   UNL     1       6.243   5.594  17.440  0.00  0.00    +0.000 A 
ATOM      7  C   UNL     1       5.789   4.844  16.339  0.00  0.00    +0.000 A 
ATOM      8  C   UNL     1       4.548   4.210  16.419  0.00  0.00    +0.000 A 
ATOM      9  C   UNL     1       3.792   4.356  17.578  0.00  0.00    +0.000 A 
ATOM     10  C   UNL     1       2.697   3.486  18.107  0.00  0.00    +0.000 C 
ATOM     11  C   UNL     1       2.838   1.999  17.714  0.00  0.00    +0.000 C 
ATOM     12  C   UNL     1       1.305   3.951  17.633  0.00  0.00    +0.000 C 
ATOM     13  N   UNL     1       2.773   3.758  19.566  0.00  0.00    +0.000 NA
ATOM     14  O   UNL     1       3.716   2.921  20.234  0.00  0.00    +0.000 OA
ENDROOT
BRANCH   6  15
ATOM     15  O   UNL     1       7.526   6.089  17.462  0.00  0.00    +0.000 OA
ATOM     16  H   UNL     1       7.447   7.018  17.763  0.00  0.00    +0.000 HD
ENDBRANCH   6  15
BRANCH   7  17
ATOM     17  C   UNL     1       6.610   4.596  15.106  0.00  0.00    +0.000 C 
ATOM     18  O   UNL     1       6.434   3.642  14.364  0.00  0.00    +0.000 OA
BRANCH  17  19
ATOM     19  O   UNL     1       7.561   5.528  14.853  0.00  0.00    +0.000 OA
ATOM     20  H   UNL     1       8.455   5.114  14.828  0.00  0.00    +0.000 HD
ENDBRANCH  17  19
ENDBRANCH   7  17
TORSDOF 3
ENDMDL
MODEL 3
REMARK VINA RESULT:      -7.5      1.655      3.432
REMARK  Name = 
REMARK  7 active torsions:
REMARK  status: ('A' for Active; 'I' for Inactive)
REMARK    1  A    between atoms: C_1  and  C_2
REMARK    2  A    between atoms: C_2  and  C_3
REMARK    3  A    between atoms: C_6  and  O_7
REMARK    4  A    between atoms: C_8  and  C_9
REMARK    5  A    between atoms: C_9  and  O_11
REMARK    6  A    between atoms: C_14  and  C_15
REMARK    7  A    between atoms: C_14  and  C_16
REMARK                            x       y       z     vdW  Elec       q    Type
REMARK                         _______ _______ _______ _____ _____    ______ ____
ROOT
ATOM      1  C   UNL     1       3.341   1.618  18.352  0.00  0.00    +0.000 C 
ATOM      2  C   UNL     1       2.487   2.950  17.959  0.00  0.00    +0.000 C 
ATOM      3  C   UNL     1       1.231   2.238  18.702  0.00  0.00    +0.000 C 
ATOM      4  C   UNL     1       3.864   3.704  17.862  0.00  0.00    +0.000 A 
ATOM      5  C   UNL     1       4.761   3.619  16.793  0.00  0.00    +0.000 A 
ATOM      6  C   UNL     1       5.891   4.451  16.781  0.00  0.00    +0.000 A 
ATOM      7  C   UNL     1       6.159   5.348  17.831  0.00  0.00    +0.000 A 
ATOM      8  C   UNL     1       5.232   5.471  18.868  0.00  0.00    +0.000 A 
ATOM      9  C   UNL     1       4.082   4.688  18.838  0.00  0.00    +0.000 A 
ATOM     10  C   UNL     1       2.772   4.908  19.523  0.00  0.00    +0.000 C 
ATOM     11  C   UNL     1       2.430   6.397  19.751  0.00  0.00    +0.000 C 
ATOM     12  C   UNL     1       2.711   4.212  20.898  0.00  0.00    +0.000 C 
ATOM     13  N   UNL     1       1.835   4.181  18.627  0.00  0.00    +0.000 NA
ATOM     14  O   UNL     1       1.367   4.988  17.547  0.00  0.00    +0.000 OA
ENDROOT
BRANCH   6  15
ATOM     15  O   UNL     1       6.695   4.427  15.665  0.00  0.00    +0.000 OA
ATOM     16  H   UNL     1       7.016   5.345  15.549  0.00  0.00    +0.000 HD
ENDBRANCH   6  15
BRANCH   7  17
ATOM     17  C   UNL     1       7.346   6.267  17.859  0.00  0.00    +0.000 C 
ATOM     18  O   UNL     1       8.034   6.446  18.853  0.00  0.00    +0.000 OA
BRANCH  17  19
ATOM     19  O   UNL     1       7.625   6.879  16.682  0.00  0.00    +0.000 OA
ATOM     20  H   UNL     1       6.974   6.617  15.991  0.00  0.00    +0.000 HD
ENDBRANCH  17  19
ENDBRANCH   7  17
TORSDOF 3
ENDMDL
MODEL 4
REMARK VINA RESULT:      -7.3      2.210      5.520
REMARK  Name = 
REMARK  7 active torsions:
REMARK  status: ('A' for Active; 'I' for Inactive)
REMARK    1  A    between atoms: C_1  and  C_2
REMARK    2  A    between atoms: C_2  and  C_3
REMARK    3  A    between atoms: C_6  and  O_7
REMARK    4  A    between atoms: C_8  and  C_9
REMARK    5  A    between atoms: C_9  and  O_11
REMARK    6  A    between atoms: C_14  and  C_15
REMARK    7  A    between atoms: C_14  and  C_16
REMARK                            x       y       z     vdW  Elec       q    Type
REMARK                         _______ _______ _______ _____ _____    ______ ____
ROOT
ATOM      1  C   UNL     1       5.270   4.902  14.860  0.00  0.00    +0.000 C 
ATOM      2  C   UNL     1       6.500   4.451  15.832  0.00  0.00    +0.000 C 
ATOM      3  C   UNL     1       7.474   5.214  14.781  0.00  0.00    +0.000 C 
ATOM      4  C   UNL     1       5.435   4.332  16.985  0.00  0.00    +0.000 A 
ATOM      5  C   UNL     1       4.539   3.272  17.154  0.00  0.00    +0.000 A 
ATOM      6  C   UNL     1       3.735   3.233  18.303  0.00  0.00    +0.000 A 
ATOM      7  C   UNL     1       3.789   4.249  19.276  0.00  0.00    +0.000 A 
ATOM      8  C   UNL     1       4.725   5.274  19.132  0.00  0.00    +0.000 A 
ATOM      9  C   UNL     1       5.563   5.268  18.021  0.00  0.00    +0.000 A 
ATOM     10  C   UNL     1       6.886   5.937  17.833  0.00  0.00    +0.000 C 
ATOM     11  C   UNL     1       7.692   6.103  19.140  0.00  0.00    +0.000 C 
ATOM     12  C   UNL     1       6.746   7.338  17.204  0.00  0.00    +0.000 C 
ATOM     13  N   UNL     1       7.524   5.065  16.812  0.00  0.00    +0.000 NA
ATOM     14  O   UNL     1       8.206   3.951  17.386  0.00  0.00    +0.000 OA
ENDROOT
BRANCH   6  15
ATOM     15  O   UNL     1       2.947   2.124  18.499  0.00  0.00    +0.000 OA
ATOM     16  H   UNL     1       3.529   1.353  18.342  0.00  0.00    +0.000 HD
ENDBRANCH   6  15
BRANCH   7  17
ATOM     17  C   UNL     1       2.960   4.246  20.528  0.00  0.00    +0.000 C 
ATOM     18  O   UNL     1       2.667   3.228  21.137  0.00  0.00    +0.000 OA
BRANCH  17  19
ATOM     19  O   UNL     1       2.568   5.469  20.960  0.00  0.00    +0.000 OA
ATOM     20  H   UNL     1       3.020   6.180  20.448  0.00  0.00    +0.000 HD
ENDBRANCH  17  19
ENDBRANCH   7  17
TORSDOF 3
ENDMDL
MODEL 5
REMARK VINA RESULT:      -7.2      1.331      1.824
REMARK  Name = 
REMARK  7 active torsions:
REMARK  status: ('A' for Active; 'I' for Inactive)
REMARK    1  A    between atoms: C_1  and  C_2
REMARK    2  A    between atoms: C_2  and  C_3
REMARK    3  A    between atoms: C_6  and  O_7
REMARK    4  A    between atoms: C_8  and  C_9
REMARK    5  A    between atoms: C_9  and  O_11
REMARK    6  A    between atoms: C_14  and  C_15
REMARK    7  A    between atoms: C_14  and  C_16
REMARK                            x       y       z     vdW  Elec       q    Type
REMARK                         _______ _______ _______ _____ _____    ______ ____
ROOT
ATOM      1  C   UNL     1       1.925   5.192  20.447  0.00  0.00    +0.000 C 
ATOM      2  C   UNL     1       2.983   3.965  20.637  0.00  0.00    +0.000 C 
ATOM      3  C   UNL     1       1.854   3.275  21.578  0.00  0.00    +0.000 C 
ATOM      4  C   UNL     1       3.643   4.436  19.288  0.00  0.00    +0.000 A 
ATOM      5  C   UNL     1       4.502   5.529  19.145  0.00  0.00    +0.000 A 
ATOM      6  C   UNL     1       5.123   5.753  17.906  0.00  0.00    +0.000 A 
ATOM      7  C   UNL     1       4.880   4.921  16.798  0.00  0.00    +0.000 A 
ATOM      8  C   UNL     1       4.067   3.798  16.960  0.00  0.00    +0.000 A 
ATOM      9  C   UNL     1       3.507   3.549  18.210  0.00  0.00    +0.000 A 
ATOM     10  C   UNL     1       2.995   2.263  18.776  0.00  0.00    +0.000 C 
ATOM     11  C   UNL     1       3.708   1.010  18.221  0.00  0.00    +0.000 C 
ATOM     12  C   UNL     1       1.485   2.077  18.522  0.00  0.00    +0.000 C 
ATOM     13  N   UNL     1       3.166   2.485  20.235  0.00  0.00    +0.000 NA
ATOM     14  O   UNL     1       4.469   2.131  20.698  0.00  0.00    +0.000 OA
ENDROOT
BRANCH   6  15
ATOM     15  O   UNL     1       6.049   6.766  17.825  0.00  0.00    +0.000 OA
ATOM     16  H   UNL     1       5.924   7.306  18.631  0.00  0.00    +0.000 HD
ENDBRANCH   6  15
BRANCH   7  17
ATOM     17  C   UNL     1       5.528   5.111  15.456  0.00  0.00    +0.000 C 
ATOM     18  O   UNL     1       5.961   4.188  14.784  0.00  0.00    +0.000 OA
BRANCH  17  19
ATOM     19  O   UNL     1       5.583   6.394  15.022  0.00  0.00    +0.000 OA
ATOM     20  H   UNL     1       5.903   6.990  15.738  0.00  0.00    +0.000 HD
ENDBRANCH  17  19
ENDBRANCH   7  17
TORSDOF 3
ENDMDL
MODEL 6
REMARK VINA RESULT:      -7.2      1.687      3.219
REMARK  Name = 
REMARK  7 active torsions:
REMARK  status: ('A' for Active; 'I' for Inactive)
REMARK    1  A    between atoms: C_1  and  C_2
REMARK    2  A    between atoms: C_2  and  C_3
REMARK    3  A    between atoms: C_6  and  O_7
REMARK    4  A    between atoms: C_8  and  C_9
REMARK    5  A    between atoms: C_9  and  O_11
REMARK    6  A    between atoms: C_14  and  C_15
REMARK    7  A    between atoms: C_14  and  C_16
REMARK                            x       y       z     vdW  Elec       q    Type
REMARK                         _______ _______ _______ _____ _____    ______ ____
ROOT
ATOM      1  C   UNL     1       3.221   2.153  19.443  0.00  0.00    +0.000 C 
ATOM      2  C   UNL     1       2.260   3.049  18.476  0.00  0.00    +0.000 C 
ATOM      3  C   UNL     1       1.092   2.793  19.575  0.00  0.00    +0.000 C 
ATOM      4  C   UNL     1       3.577   3.684  17.895  0.00  0.00    +0.000 A 
ATOM      5  C   UNL     1       4.426   3.077  16.964  0.00  0.00    +0.000 A 
ATOM      6  C   UNL     1       5.495   3.815  16.432  0.00  0.00    +0.000 A 
ATOM      7  C   UNL     1       5.750   5.139  16.833  0.00  0.00    +0.000 A 
ATOM      8  C   UNL     1       4.866   5.760  17.718  0.00  0.00    +0.000 A 
ATOM      9  C   UNL     1       3.772   5.040  18.190  0.00  0.00    +0.000 A 
ATOM     10  C   UNL     1       2.484   5.545  18.756  0.00  0.00    +0.000 C 
ATOM     11  C   UNL     1       2.052   6.918  18.195  0.00  0.00    +0.000 C 
ATOM     12  C   UNL     1       2.535   5.677  20.292  0.00  0.00    +0.000 C 
ATOM     13  N   UNL     1       1.558   4.424  18.447  0.00  0.00    +0.000 NA
ATOM     14  O   UNL     1       0.986   4.525  17.143  0.00  0.00    +0.000 OA
ENDROOT
BRANCH   6  15
ATOM     15  O   UNL     1       6.245   3.233  15.437  0.00  0.00    +0.000 OA
ATOM     16  H   UNL     1       6.664   3.974  14.953  0.00  0.00    +0.000 HD
ENDBRANCH   6  15
BRANCH   7  17
ATOM     17  C   UNL     1       6.872   5.973  16.285  0.00  0.00    +0.000 C 
ATOM     18  O   UNL     1       7.579   5.618  15.354  0.00  0.00    +0.000 OA
BRANCH  17  19
ATOM     19  O   UNL     1       7.039   7.176  16.886  0.00  0.00    +0.000 OA
ATOM     20  H   UNL     1       6.339   7.328  17.562  0.00  0.00    +0.000 HD
ENDBRANCH  17  19
ENDBRANCH   7  17
TORSDOF 3
ENDMDL
MODEL 7
REMARK VINA RESULT:      -7.1      3.411      5.755
REMARK  Name = 
REMARK  7 active torsions:
REMARK  status: ('A' for Active; 'I' for Inactive)
REMARK    1  A    between atoms: C_1  and  C_2
REMARK    2  A    between atoms: C_2  and  C_3
REMARK    3  A    between atoms: C_6  and  O_7
REMARK    4  A    between atoms: C_8  and  C_9
REMARK    5  A    between atoms: C_9  and  O_11
REMARK    6  A    between atoms: C_14  and  C_15
REMARK    7  A    between atoms: C_14  and  C_16
REMARK                            x       y       z     vdW  Elec       q    Type
REMARK                         _______ _______ _______ _____ _____    ______ ____
ROOT
ATOM      1  C   UNL     1       4.899   5.388  17.701  0.00  0.00    +0.000 C 
ATOM      2  C   UNL     1       3.402   4.785  17.466  0.00  0.00    +0.000 C 
ATOM      3  C   UNL     1       4.136   3.382  17.106  0.00  0.00    +0.000 C 
ATOM      4  C   UNL     1       2.881   5.941  18.398  0.00  0.00    +0.000 A 
ATOM      5  C   UNL     1       2.711   7.275  18.016  0.00  0.00    +0.000 A 
ATOM      6  C   UNL     1       2.110   8.172  18.913  0.00  0.00    +0.000 A 
ATOM      7  C   UNL     1       1.702   7.768  20.198  0.00  0.00    +0.000 A 
ATOM      8  C   UNL     1       1.821   6.423  20.554  0.00  0.00    +0.000 A 
ATOM      9  C   UNL     1       2.358   5.529  19.632  0.00  0.00    +0.000 A 
ATOM     10  C   UNL     1       2.204   4.044  19.557  0.00  0.00    +0.000 C 
ATOM     11  C   UNL     1       0.863   3.527  20.124  0.00  0.00    +0.000 C 
ATOM     12  C   UNL     1       3.330   3.304  20.309  0.00  0.00    +0.000 C 
ATOM     13  N   UNL     1       2.410   3.790  18.108  0.00  0.00    +0.000 NA
ATOM     14  O   UNL     1       1.208   3.920  17.349  0.00  0.00    +0.000 OA
ENDROOT
BRANCH   6  15
ATOM     15  O   UNL     1       1.852   9.448  18.471  0.00  0.00    +0.000 OA
ATOM     16  H   UNL     1       1.161   9.356  17.785  0.00  0.00    +0.000 HD
ENDBRANCH   6  15
BRANCH   7  17
ATOM     17  C   UNL     1       1.044   8.685  21.189  0.00  0.00    +0.000 C 
ATOM     18  O   UNL     1      -0.038   9.217  20.995  0.00  0.00    +0.000 OA
BRANCH  17  19
ATOM     19  O   UNL     1       1.731   8.870  22.342  0.00  0.00    +0.000 OA
ATOM     20  H   UNL     1       2.281   9.686  22.293  0.00  0.00    +0.000 HD
ENDBRANCH  17  19
ENDBRANCH   7  17
TORSDOF 3
ENDMDL
MODEL 8
REMARK VINA RESULT:      -7.0      2.202      4.888
REMARK  Name = 
REMARK  7 active torsions:
REMARK  status: ('A' for Active; 'I' for Inactive)
REMARK    1  A    between atoms: C_1  and  C_2
REMARK    2  A    between atoms: C_2  and  C_3
REMARK    3  A    between atoms: C_6  and  O_7
REMARK    4  A    between atoms: C_8  and  C_9
REMARK    5  A    between atoms: C_9  and  O_11
REMARK    6  A    between atoms: C_14  and  C_15
REMARK    7  A    between atoms: C_14  and  C_16
REMARK                            x       y       z     vdW  Elec       q    Type
REMARK                         _______ _______ _______ _____ _____    ______ ____
ROOT
ATOM      1  C   UNL     1       7.041   6.017  19.051  0.00  0.00    +0.000 C 
ATOM      2  C   UNL     1       6.253   6.566  17.733  0.00  0.00    +0.000 C 
ATOM      3  C   UNL     1       7.699   7.098  17.219  0.00  0.00    +0.000 C 
ATOM      4  C   UNL     1       5.142   5.500  18.055  0.00  0.00    +0.000 A 
ATOM      5  C   UNL     1       4.160   5.626  19.042  0.00  0.00    +0.000 A 
ATOM      6  C   UNL     1       3.150   4.656  19.130  0.00  0.00    +0.000 A 
ATOM      7  C   UNL     1       3.117   3.545  18.267  0.00  0.00    +0.000 A 
ATOM      8  C   UNL     1       4.065   3.453  17.246  0.00  0.00    +0.000 A 
ATOM      9  C   UNL     1       5.024   4.455  17.127  0.00  0.00    +0.000 A 
ATOM     10  C   UNL     1       5.839   4.845  15.936  0.00  0.00    +0.000 C 
ATOM     11  C   UNL     1       5.136   4.579  14.586  0.00  0.00    +0.000 C 
ATOM     12  C   UNL     1       7.196   4.113  15.895  0.00  0.00    +0.000 C 
ATOM     13  N   UNL     1       6.125   6.275  16.221  0.00  0.00    +0.000 NA
ATOM     14  O   UNL     1       5.094   7.147  15.760  0.00  0.00    +0.000 OA
ENDROOT
BRANCH   6  15
ATOM     15  O   UNL     1       2.136   4.864  20.034  0.00  0.00    +0.000 OA
ATOM     16  H   UNL     1       2.427   4.433  20.864  0.00  0.00    +0.000 HD
ENDBRANCH   6  15
BRANCH   7  17
ATOM     17  C   UNL     1       2.052   2.488  18.312  0.00  0.00    +0.000 C 
ATOM     18  O   UNL     1       0.857   2.735  18.238  0.00  0.00    +0.000 OA
BRANCH  17  19
ATOM     19  O   UNL     1       2.509   1.216  18.420  0.00  0.00    +0.000 OA
ATOM     20  H   UNL     1       2.495   0.766  17.544  0.00  0.00    +0.000 HD
ENDBRANCH  17  19
ENDBRANCH   7  17
TORSDOF 3
ENDMDL
MODEL 9
REMARK VINA RESULT:      -6.9      1.793      2.412
REMARK  Name = 
REMARK  7 active torsions:
REMARK  status: ('A' for Active; 'I' for Inactive)
REMARK    1  A    between atoms: C_1  and  C_2
REMARK    2  A    between atoms: C_2  and  C_3
REMARK    3  A    between atoms: C_6  and  O_7
REMARK    4  A    between atoms: C_8  and  C_9
REMARK    5  A    between atoms: C_9  and  O_11
REMARK    6  A    between atoms: C_14  and  C_15
REMARK    7  A    between atoms: C_14  and  C_16
REMARK                            x       y       z     vdW  Elec       q    Type
REMARK                         _______ _______ _______ _____ _____    ______ ____
ROOT
ATOM      1  C   UNL     1       1.183   4.159  17.415  0.00  0.00    +0.000 C 
ATOM      2  C   UNL     1       1.786   4.135  18.931  0.00  0.00    +0.000 C 
ATOM      3  C   UNL     1       0.588   3.097  19.280  0.00  0.00    +0.000 C 
ATOM      4  C   UNL     1       3.153   4.601  18.306  0.00  0.00    +0.000 A 
ATOM      5  C   UNL     1       3.456   5.904  17.901  0.00  0.00    +0.000 A 
ATOM      6  C   UNL     1       4.762   6.204  17.484  0.00  0.00    +0.000 A 
ATOM      7  C   UNL     1       5.765   5.218  17.435  0.00  0.00    +0.000 A 
ATOM      8  C   UNL     1       5.474   3.933  17.894  0.00  0.00    +0.000 A 
ATOM      9  C   UNL     1       4.192   3.663  18.367  0.00  0.00    +0.000 A 
ATOM     10  C   UNL     1       3.735   2.576  19.286  0.00  0.00    +0.000 C 
ATOM     11  C   UNL     1       4.813   2.117  20.294  0.00  0.00    +0.000 C 
ATOM     12  C   UNL     1       3.268   1.323  18.518  0.00  0.00    +0.000 C 
ATOM     13  N   UNL     1       2.526   3.186  19.898  0.00  0.00    +0.000 NA
ATOM     14  O   UNL     1       2.829   3.982  21.043  0.00  0.00    +0.000 OA
ENDROOT
BRANCH   6  15
ATOM     15  O   UNL     1       5.062   7.515  17.201  0.00  0.00    +0.000 OA
ATOM     16  H   UNL     1       5.500   7.505  16.325  0.00  0.00    +0.000 HD
ENDBRANCH   6  15
BRANCH   7  17
ATOM     17  C   UNL     1       7.179   5.491  17.009  0.00  0.00    +0.000 C 
ATOM     18  O   UNL     1       7.570   6.589  16.642  0.00  0.00    +0.000 OA
BRANCH  17  19
ATOM     19  O   UNL     1       8.015   4.427  17.079  0.00  0.00    +0.000 OA
ATOM     20  H   UNL     1       8.955   4.723  17.095  0.00  0.00    +0.000 HD
ENDBRANCH  17  19
ENDBRANCH   7  17
TORSDOF 3
ENDMDL
