MODEL 1
REMARK VINA RESULT:      -7.3      0.000      0.000
REMARK  Name = 
REMARK  6 active torsions:
REMARK  status: ('A' for Active; 'I' for Inactive)
REMARK    1  A    between atoms: C_1  and  N_2
REMARK    2  A    between atoms: N_2  and  C_3
REMARK    3  A    between atoms: N_2  and  C_10
REMARK    4  A    between atoms: C_3  and  C_4
REMARK    5  A    between atoms: C_10  and  C_11
REMARK    6  A    between atoms: C_14  and  C_15
REMARK                            x       y       z     vdW  Elec       q    Type
REMARK                         _______ _______ _______ _____ _____    ______ ____
ROOT
ATOM      1  C   UNL     1       5.460   6.371  17.422  0.00  0.00    +0.000 C 
ENDROOT
BRANCH   1   2
ATOM      2  C   UNL     1       6.160   5.815  16.227  0.00  0.00    +0.000 A 
ATOM      3  N   UNL     1       7.407   5.997  15.845  0.00  0.00    +0.000 NA
ATOM      4  N   UNL     1       7.554   5.296  14.670  0.00  0.00    +0.000 NA
ATOM      5  C   UNL     1       6.387   4.733  14.404  0.00  0.00    +0.000 A 
ATOM      6  O   UNL     1       5.449   5.024  15.366  0.00  0.00    +0.000 OA
BRANCH   5   7
ATOM      7  C   UNL     1       6.136   3.913  13.259  0.00  0.00    +0.000 A 
ATOM      8  C   UNL     1       4.918   3.469  12.767  0.00  0.00    +0.000 A 
ATOM      9  C   UNL     1       5.186   2.688  11.617  0.00  0.00    +0.000 A 
ATOM     10  C   UNL     1       6.551   2.694  11.468  0.00  0.00    +0.000 A 
ATOM     11  O   UNL     1       7.133   3.432  12.446  0.00  0.00    +0.000 OA
ENDBRANCH   5   7
ENDBRANCH   1   2
BRANCH   1  13
ATOM     12  C   UNL     1       5.875   4.979  19.338  0.00  0.00    +0.000 C 
ATOM     13  N   UNL     1       4.875   5.357  18.329  0.00  0.00    +0.000 NA
BRANCH  13  14
ATOM     14  C   UNL     1       3.646   5.873  18.968  0.00  0.00    +0.000 C 
BRANCH  14  15
ATOM     15  C   UNL     1       2.738   4.780  19.486  0.00  0.00    +0.000 A 
ATOM     16  C   UNL     1       2.042   3.950  18.594  0.00  0.00    +0.000 A 
ATOM     17  C   UNL     1       1.151   2.993  19.075  0.00  0.00    +0.000 A 
ATOM     18  C   UNL     1       0.957   2.849  20.450  0.00  0.00    +0.000 A 
ATOM     19  C   UNL     1       1.664   3.648  21.343  0.00  0.00    +0.000 A 
ATOM     20  C   UNL     1       2.555   4.607  20.867  0.00  0.00    +0.000 A 
ENDBRANCH  14  15
ENDBRANCH  13  14
ENDBRANCH   1  13
TORSDOF 5
ENDMDL
MODEL 2
REMARK VINA RESULT:      -7.2      1.085      1.714
REMARK  Name = 
REMARK  6 active torsions:
REMARK  status: ('A' for Active; 'I' for Inactive)
REMARK    1  A    between atoms: C_1  and  N_2
REMARK    2  A    between atoms: N_2  and  C_3
REMARK    3  A    between atoms: N_2  and  C_10
REMARK    4  A    between atoms: C_3  and  C_4
REMARK    5  A    between atoms: C_10  and  C_11
REMARK    6  A    between atoms: C_14  and  C_15
REMARK                            x       y       z     vdW  Elec       q    Type
REMARK                         _______ _______ _______ _____ _____    ______ ____
ROOT
ATOM      1  C   UNL     1       6.416   4.689  17.824  0.00  0.00    +0.000 C 
ENDROOT
BRANCH   1   2
ATOM      2  C   UNL     1       6.661   4.735  16.353  0.00  0.00    +0.000 A 
ATOM      3  N   UNL     1       7.491   5.507  15.681  0.00  0.00    +0.000 NA
ATOM      4  N   UNL     1       7.323   5.185  14.353  0.00  0.00    +0.000 NA
ATOM      5  C   UNL     1       6.398   4.242  14.295  0.00  0.00    +0.000 A 
ATOM      6  O   UNL     1       5.933   3.906  15.545  0.00  0.00    +0.000 OA
BRANCH   5   7
ATOM      7  C   UNL     1       5.943   3.639  13.080  0.00  0.00    +0.000 A 
ATOM      8  C   UNL     1       6.669   2.896  12.162  0.00  0.00    +0.000 A 
ATOM      9  C   UNL     1       5.780   2.518  11.127  0.00  0.00    +0.000 A 
ATOM     10  C   UNL     1       4.560   3.051  11.465  0.00  0.00    +0.000 A 
ATOM     11  O   UNL     1       4.644   3.723  12.640  0.00  0.00    +0.000 OA
ENDBRANCH   5   7
ENDBRANCH   1   2
BRANCH   1  13
ATOM     12  C   UNL     1       4.690   6.352  17.636  0.00  0.00    +0.000 C 
ATOM     13  N   UNL     1       5.042   5.059  18.238  0.00  0.00    +0.000 NA
BRANCH  13  14
ATOM     14  C   UNL     1       4.077   4.010  17.845  0.00  0.00    +0.000 C 
BRANCH  14  15
ATOM     15  C   UNL     1       2.986   3.790  18.869  0.00  0.00    +0.000 A 
ATOM     16  C   UNL     1       3.199   4.112  20.217  0.00  0.00    +0.000 A 
ATOM     17  C   UNL     1       2.217   3.839  21.167  0.00  0.00    +0.000 A 
ATOM     18  C   UNL     1       1.012   3.253  20.778  0.00  0.00    +0.000 A 
ATOM     19  C   UNL     1       0.780   2.956  19.438  0.00  0.00    +0.000 A 
ATOM     20  C   UNL     1       1.759   3.227  18.484  0.00  0.00    +0.000 A 
ENDBRANCH  14  15
ENDBRANCH  13  14
ENDBRANCH   1  13
TORSDOF 5
ENDMDL
MODEL 3
REMARK VINA RESULT:      -7.2      0.987      1.481
REMARK  Name = 
REMARK  6 active torsions:
REMARK  status: ('A' for Active; 'I' for Inactive)
REMARK    1  A    between atoms: C_1  and  N_2
REMARK    2  A    between atoms: N_2  and  C_3
REMARK    3  A    between atoms: N_2  and  C_10
REMARK    4  A    between atoms: C_3  and  C_4
REMARK    5  A    between atoms: C_10  and  C_11
REMARK    6  A    between atoms: C_14  and  C_15
REMARK                            x       y       z     vdW  Elec       q    Type
REMARK                         _______ _______ _______ _____ _____    ______ ____
ROOT
ATOM      1  C   UNL     1       5.523   6.265  17.358  0.00  0.00    +0.000 C 
ENDROOT
BRANCH   1   2
ATOM      2  C   UNL     1       6.156   5.712  16.125  0.00  0.00    +0.000 A 
ATOM      3  N   UNL     1       7.386   5.883  15.683  0.00  0.00    +0.000 NA
ATOM      4  N   UNL     1       7.465   5.192  14.495  0.00  0.00    +0.000 NA
ATOM      5  C   UNL     1       6.280   4.646  14.282  0.00  0.00    +0.000 A 
ATOM      6  O   UNL     1       5.394   4.940  15.292  0.00  0.00    +0.000 OA
BRANCH   5   7
ATOM      7  C   UNL     1       5.961   3.842  13.143  0.00  0.00    +0.000 A 
ATOM      8  C   UNL     1       6.817   3.097  12.347  0.00  0.00    +0.000 A 
ATOM      9  C   UNL     1       6.031   2.477  11.346  0.00  0.00    +0.000 A 
ATOM     10  C   UNL     1       4.739   2.876  11.582  0.00  0.00    +0.000 A 
ATOM     11  O   UNL     1       4.683   3.693  12.662  0.00  0.00    +0.000 OA
ENDBRANCH   5   7
ENDBRANCH   1   2
BRANCH   1  13
ATOM     12  C   UNL     1       6.687   5.423  19.286  0.00  0.00    +0.000 C 
ATOM     13  N   UNL     1       5.451   5.321  18.497  0.00  0.00    +0.000 NA
BRANCH  13  14
ATOM     14  C   UNL     1       4.263   5.599  19.332  0.00  0.00    +0.000 C 
BRANCH  14  15
ATOM     15  C   UNL     1       3.172   4.563  19.180  0.00  0.00    +0.000 A 
ATOM     16  C   UNL     1       3.112   3.460  20.045  0.00  0.00    +0.000 A 
ATOM     17  C   UNL     1       2.149   2.471  19.855  0.00  0.00    +0.000 A 
ATOM     18  C   UNL     1       1.232   2.581  18.809  0.00  0.00    +0.000 A 
ATOM     19  C   UNL     1       1.265   3.686  17.963  0.00  0.00    +0.000 A 
ATOM     20  C   UNL     1       2.227   4.677  18.149  0.00  0.00    +0.000 A 
ENDBRANCH  14  15
ENDBRANCH  13  14
ENDBRANCH   1  13
TORSDOF 5
ENDMDL
MODEL 4
REMARK VINA RESULT:      -7.2      0.761      1.455
REMARK  Name = 
REMARK  6 active torsions:
REMARK  status: ('A' for Active; 'I' for Inactive)
REMARK    1  A    between atoms: C_1  and  N_2
REMARK    2  A    between atoms: N_2  and  C_3
REMARK    3  A    between atoms: N_2  and  C_10
REMARK    4  A    between atoms: C_3  and  C_4
REMARK    5  A    between atoms: C_10  and  C_11
REMARK    6  A    between atoms: C_14  and  C_15
REMARK                            x       y       z     vdW  Elec       q    Type
REMARK                         _______ _______ _______ _____ _____    ______ ____
ROOT
ATOM      1  C   UNL     1       5.943   5.178  17.788  0.00  0.00    +0.000 C 
ENDROOT
BRANCH   1   2
ATOM      2  C   UNL     1       6.407   5.052  16.375  0.00  0.00    +0.000 A 
ATOM      3  N   UNL     1       7.400   5.679  15.776  0.00  0.00    +0.000 NA
ATOM      4  N   UNL     1       7.399   5.237  14.473  0.00  0.00    +0.000 NA
ATOM      5  C   UNL     1       6.405   4.373  14.354  0.00  0.00    +0.000 A 
ATOM      6  O   UNL     1       5.729   4.207  15.540  0.00  0.00    +0.000 OA
BRANCH   5   7
ATOM      7  C   UNL     1       6.079   3.688  13.141  0.00  0.00    +0.000 A 
ATOM      8  C   UNL     1       4.829   3.477  12.579  0.00  0.00    +0.000 A 
ATOM      9  C   UNL     1       5.023   2.749  11.381  0.00  0.00    +0.000 A 
ATOM     10  C   UNL     1       6.377   2.553  11.274  0.00  0.00    +0.000 A 
ATOM     11  O   UNL     1       7.024   3.117  12.324  0.00  0.00    +0.000 OA
ENDBRANCH   5   7
ENDBRANCH   1   2
BRANCH   1  13
ATOM     12  C   UNL     1       4.546   7.052  17.225  0.00  0.00    +0.000 C 
ATOM     13  N   UNL     1       4.597   5.775  17.950  0.00  0.00    +0.000 NA
BRANCH  13  14
ATOM     14  C   UNL     1       3.552   4.848  17.465  0.00  0.00    +0.000 C 
BRANCH  14  15
ATOM     15  C   UNL     1       2.620   4.376  18.559  0.00  0.00    +0.000 A 
ATOM     16  C   UNL     1       2.638   4.985  19.822  0.00  0.00    +0.000 A 
ATOM     17  C   UNL     1       1.829   4.500  20.847  0.00  0.00    +0.000 A 
ATOM     18  C   UNL     1       0.988   3.410  20.616  0.00  0.00    +0.000 A 
ATOM     19  C   UNL     1       0.943   2.816  19.358  0.00  0.00    +0.000 A 
ATOM     20  C   UNL     1       1.750   3.298  18.330  0.00  0.00    +0.000 A 
ENDBRANCH  14  15
ENDBRANCH  13  14
ENDBRANCH   1  13
TORSDOF 5
ENDMDL
MODEL 5
REMARK VINA RESULT:      -7.2      0.812      1.099
REMARK  Name = 
REMARK  6 active torsions:
REMARK  status: ('A' for Active; 'I' for Inactive)
REMARK    1  A    between atoms: C_1  and  N_2
REMARK    2  A    between atoms: N_2  and  C_3
REMARK    3  A    between atoms: N_2  and  C_10
REMARK    4  A    between atoms: C_3  and  C_4
REMARK    5  A    between atoms: C_10  and  C_11
REMARK    6  A    between atoms: C_14  and  C_15
REMARK                            x       y       z     vdW  Elec       q    Type
REMARK                         _______ _______ _______ _____ _____    ______ ____
ROOT
ATOM      1  C   UNL     1       6.108   5.061  17.701  0.00  0.00    +0.000 C 
ENDROOT
BRANCH   1   2
ATOM      2  C   UNL     1       6.483   4.952  16.260  0.00  0.00    +0.000 A 
ATOM      3  N   UNL     1       7.424   5.600  15.603  0.00  0.00    +0.000 NA
ATOM      4  N   UNL     1       7.348   5.166  14.299  0.00  0.00    +0.000 NA
ATOM      5  C   UNL     1       6.364   4.285  14.238  0.00  0.00    +0.000 A 
ATOM      6  O   UNL     1       5.768   4.099  15.464  0.00  0.00    +0.000 OA
BRANCH   5   7
ATOM      7  C   UNL     1       5.973   3.601  13.044  0.00  0.00    +0.000 A 
ATOM      8  C   UNL     1       4.724   3.557  12.445  0.00  0.00    +0.000 A 
ATOM      9  C   UNL     1       4.839   2.753  11.286  0.00  0.00    +0.000 A 
ATOM     10  C   UNL     1       6.149   2.346  11.239  0.00  0.00    +0.000 A 
ATOM     11  O   UNL     1       6.843   2.854  12.288  0.00  0.00    +0.000 OA
ENDBRANCH   5   7
ENDBRANCH   1   2
BRANCH   1  13
ATOM     12  C   UNL     1       4.738   6.996  17.303  0.00  0.00    +0.000 C 
ATOM     13  N   UNL     1       4.786   5.680  17.955  0.00  0.00    +0.000 NA
BRANCH  13  14
ATOM     14  C   UNL     1       3.698   4.805  17.468  0.00  0.00    +0.000 C 
BRANCH  14  15
ATOM     15  C   UNL     1       2.763   4.349  18.566  0.00  0.00    +0.000 A 
ATOM     16  C   UNL     1       1.900   3.262  18.360  0.00  0.00    +0.000 A 
ATOM     17  C   UNL     1       0.990   2.892  19.347  0.00  0.00    +0.000 A 
ATOM     18  C   UNL     1       0.942   3.596  20.552  0.00  0.00    +0.000 A 
ATOM     19  C   UNL     1       1.814   4.657  20.776  0.00  0.00    +0.000 A 
ATOM     20  C   UNL     1       2.725   5.031  19.792  0.00  0.00    +0.000 A 
ENDBRANCH  14  15
ENDBRANCH  13  14
ENDBRANCH   1  13
TORSDOF 5
ENDMDL
MODEL 6
REMARK VINA RESULT:      -7.1      2.193      3.945
REMARK  Name = 
REMARK  6 active torsions:
REMARK  status: ('A' for Active; 'I' for Inactive)
REMARK    1  A    between atoms: C_1  and  N_2
REMARK    2  A    between atoms: N_2  and  C_3
REMARK    3  A    between atoms: N_2  and  C_10
REMARK    4  A    between atoms: C_3  and  C_4
REMARK    5  A    between atoms: C_10  and  C_11
REMARK    6  A    between atoms: C_14  and  C_15
REMARK                            x       y       z     vdW  Elec       q    Type
REMARK                         _______ _______ _______ _____ _____    ______ ____
ROOT
ATOM      1  C   UNL     1       3.501   3.259  19.896  0.00  0.00    +0.000 C 
ENDROOT
BRANCH   1   2
ATOM      2  C   UNL     1       4.664   3.712  19.079  0.00  0.00    +0.000 A 
ATOM      3  N   UNL     1       5.823   4.186  19.490  0.00  0.00    +0.000 NA
ATOM      4  N   UNL     1       6.539   4.485  18.353  0.00  0.00    +0.000 NA
ATOM      5  C   UNL     1       5.773   4.181  17.319  0.00  0.00    +0.000 A 
ATOM      6  O   UNL     1       4.556   3.677  17.716  0.00  0.00    +0.000 OA
BRANCH   5   7
ATOM      7  C   UNL     1       6.166   4.348  15.953  0.00  0.00    +0.000 A 
ATOM      8  C   UNL     1       5.452   4.038  14.806  0.00  0.00    +0.000 A 
ATOM      9  C   UNL     1       6.262   4.383  13.698  0.00  0.00    +0.000 A 
ATOM     10  C   UNL     1       7.427   4.884  14.225  0.00  0.00    +0.000 A 
ATOM     11  O   UNL     1       7.380   4.872  15.580  0.00  0.00    +0.000 OA
ENDBRANCH   5   7
ENDBRANCH   1   2
BRANCH   1  13
ATOM     12  C   UNL     1       1.098   3.202  19.955  0.00  0.00    +0.000 C 
ATOM     13  N   UNL     1       2.267   4.061  19.721  0.00  0.00    +0.000 NA
BRANCH  13  14
ATOM     14  C   UNL     1       2.265   5.222  20.637  0.00  0.00    +0.000 C 
BRANCH  14  15
ATOM     15  C   UNL     1       2.138   6.547  19.919  0.00  0.00    +0.000 A 
ATOM     16  C   UNL     1       1.537   7.645  20.553  0.00  0.00    +0.000 A 
ATOM     17  C   UNL     1       1.357   8.841  19.862  0.00  0.00    +0.000 A 
ATOM     18  C   UNL     1       1.786   8.955  18.539  0.00  0.00    +0.000 A 
ATOM     19  C   UNL     1       2.409   7.881  17.911  0.00  0.00    +0.000 A 
ATOM     20  C   UNL     1       2.591   6.682  18.598  0.00  0.00    +0.000 A 
ENDBRANCH  14  15
ENDBRANCH  13  14
ENDBRANCH   1  13
TORSDOF 5
ENDMDL
MODEL 7
REMARK VINA RESULT:      -7.1      2.242      3.396
REMARK  Name = 
REMARK  6 active torsions:
REMARK  status: ('A' for Active; 'I' for Inactive)
REMARK    1  A    between atoms: C_1  and  N_2
REMARK    2  A    between atoms: N_2  and  C_3
REMARK    3  A    between atoms: N_2  and  C_10
REMARK    4  A    between atoms: C_3  and  C_4
REMARK    5  A    between atoms: C_10  and  C_11
REMARK    6  A    between atoms: C_14  and  C_15
REMARK                            x       y       z     vdW  Elec       q    Type
REMARK                         _______ _______ _______ _____ _____    ______ ____
ROOT
ATOM      1  C   UNL     1       3.706   3.477  18.339  0.00  0.00    +0.000 C 
ENDROOT
BRANCH   1   2
ATOM      2  C   UNL     1       4.920   3.921  17.593  0.00  0.00    +0.000 A 
ATOM      3  N   UNL     1       6.042   4.419  18.070  0.00  0.00    +0.000 NA
ATOM      4  N   UNL     1       6.833   4.695  16.978  0.00  0.00    +0.000 NA
ATOM      5  C   UNL     1       6.145   4.353  15.902  0.00  0.00    +0.000 A 
ATOM      6  O   UNL     1       4.908   3.847  16.227  0.00  0.00    +0.000 OA
BRANCH   5   7
ATOM      7  C   UNL     1       6.631   4.486  14.563  0.00  0.00    +0.000 A 
ATOM      8  C   UNL     1       6.177   3.858  13.414  0.00  0.00    +0.000 A 
ATOM      9  C   UNL     1       6.978   4.313  12.339  0.00  0.00    +0.000 A 
ATOM     10  C   UNL     1       7.879   5.191  12.887  0.00  0.00    +0.000 A 
ATOM     11  O   UNL     1       7.678   5.308  14.223  0.00  0.00    +0.000 OA
ENDBRANCH   5   7
ENDBRANCH   1   2
BRANCH   1  13
ATOM     12  C   UNL     1       1.414   3.881  18.945  0.00  0.00    +0.000 C 
ATOM     13  N   UNL     1       2.665   4.518  18.509  0.00  0.00    +0.000 NA
BRANCH  13  14
ATOM     14  C   UNL     1       3.105   5.543  19.479  0.00  0.00    +0.000 C 
BRANCH  14  15
ATOM     15  C   UNL     1       2.425   6.880  19.283  0.00  0.00    +0.000 A 
ATOM     16  C   UNL     1       2.446   7.513  18.031  0.00  0.00    +0.000 A 
ATOM     17  C   UNL     1       1.882   8.777  17.875  0.00  0.00    +0.000 A 
ATOM     18  C   UNL     1       1.284   9.415  18.963  0.00  0.00    +0.000 A 
ATOM     19  C   UNL     1       1.234   8.783  20.202  0.00  0.00    +0.000 A 
ATOM     20  C   UNL     1       1.796   7.519  20.363  0.00  0.00    +0.000 A 
ENDBRANCH  14  15
ENDBRANCH  13  14
ENDBRANCH   1  13
TORSDOF 5
ENDMDL
MODEL 8
REMARK VINA RESULT:      -7.1      4.234      6.447
REMARK  Name = 
REMARK  6 active torsions:
REMARK  status: ('A' for Active; 'I' for Inactive)
REMARK    1  A    between atoms: C_1  and  N_2
REMARK    2  A    between atoms: N_2  and  C_3
REMARK    3  A    between atoms: N_2  and  C_10
REMARK    4  A    between atoms: C_3  and  C_4
REMARK    5  A    between atoms: C_10  and  C_11
REMARK    6  A    between atoms: C_14  and  C_15
REMARK                            x       y       z     vdW  Elec       q    Type
REMARK                         _______ _______ _______ _____ _____    ______ ____
ROOT
ATOM      1  C   UNL     1       7.590   5.661  18.229  0.00  0.00    +0.000 C 
ENDROOT
BRANCH   1   2
ATOM      2  C   UNL     1       7.753   7.131  18.030  0.00  0.00    +0.000 A 
ATOM      3  N   UNL     1       7.198   7.905  17.119  0.00  0.00    +0.000 NA
ATOM      4  N   UNL     1       7.689   9.171  17.342  0.00  0.00    +0.000 NA
ATOM      5  C   UNL     1       8.515   9.093  18.371  0.00  0.00    +0.000 A 
ATOM      6  O   UNL     1       8.600   7.811  18.862  0.00  0.00    +0.000 OA
BRANCH   5   7
ATOM      7  C   UNL     1       9.228  10.209  18.913  0.00  0.00    +0.000 A 
ATOM      8  C   UNL     1       9.882  11.226  18.236  0.00  0.00    +0.000 A 
ATOM      9  C   UNL     1      10.435  12.094  19.208  0.00  0.00    +0.000 A 
ATOM     10  C   UNL     1      10.091  11.562  20.426  0.00  0.00    +0.000 A 
ATOM     11  O   UNL     1       9.361  10.430  20.263  0.00  0.00    +0.000 OA
ENDBRANCH   5   7
ENDBRANCH   1   2
BRANCH   1  13
ATOM     12  C   UNL     1       6.725   4.319  16.432  0.00  0.00    +0.000 C 
ATOM     13  N   UNL     1       6.363   5.084  17.632  0.00  0.00    +0.000 NA
BRANCH  13  14
ATOM     14  C   UNL     1       5.656   4.232  18.612  0.00  0.00    +0.000 C 
BRANCH  14  15
ATOM     15  C   UNL     1       4.190   4.046  18.293  0.00  0.00    +0.000 A 
ATOM     16  C   UNL     1       3.345   5.157  18.151  0.00  0.00    +0.000 A 
ATOM     17  C   UNL     1       1.982   4.978  17.929  0.00  0.00    +0.000 A 
ATOM     18  C   UNL     1       1.452   3.690  17.836  0.00  0.00    +0.000 A 
ATOM     19  C   UNL     1       2.287   2.582  17.948  0.00  0.00    +0.000 A 
ATOM     20  C   UNL     1       3.651   2.756  18.170  0.00  0.00    +0.000 A 
ENDBRANCH  14  15
ENDBRANCH  13  14
ENDBRANCH   1  13
TORSDOF 5
ENDMDL
MODEL 9
REMARK VINA RESULT:      -7.0      1.131      1.491
REMARK  Name = 
REMARK  6 active torsions:
REMARK  status: ('A' for Active; 'I' for Inactive)
REMARK    1  A    between atoms: C_1  and  N_2
REMARK    2  A    between atoms: N_2  and  C_3
REMARK    3  A    between atoms: N_2  and  C_10
REMARK    4  A    between atoms: C_3  and  C_4
REMARK    5  A    between atoms: C_10  and  C_11
REMARK    6  A    between atoms: C_14  and  C_15
REMARK                            x       y       z     vdW  Elec       q    Type
REMARK                         _______ _______ _______ _____ _____    ______ ____
ROOT
ATOM      1  C   UNL     1       5.141   4.905  18.446  0.00  0.00    +0.000 C 
ENDROOT
BRANCH   1   2
ATOM      2  C   UNL     1       6.049   4.736  17.273  0.00  0.00    +0.000 A 
ATOM      3  N   UNL     1       7.358   4.873  17.220  0.00  0.00    +0.000 NA
ATOM      4  N   UNL     1       7.714   4.640  15.911  0.00  0.00    +0.000 NA
ATOM      5  C   UNL     1       6.601   4.381  15.244  0.00  0.00    +0.000 A 
ATOM      6  O   UNL     1       5.496   4.424  16.061  0.00  0.00    +0.000 OA
BRANCH   5   7
ATOM      7  C   UNL     1       6.555   4.083  13.846  0.00  0.00    +0.000 A 
ATOM      8  C   UNL     1       7.423   4.497  12.847  0.00  0.00    +0.000 A 
ATOM      9  C   UNL     1       6.960   3.944  11.630  0.00  0.00    +0.000 A 
ATOM     10  C   UNL     1       5.835   3.224  11.947  0.00  0.00    +0.000 A 
ATOM     11  O   UNL     1       5.584   3.295  13.278  0.00  0.00    +0.000 OA
ENDBRANCH   5   7
ENDBRANCH   1   2
BRANCH   1  13
ATOM     12  C   UNL     1       4.906   7.133  17.572  0.00  0.00    +0.000 C 
ATOM     13  N   UNL     1       4.257   6.092  18.382  0.00  0.00    +0.000 NA
BRANCH  13  14
ATOM     14  C   UNL     1       2.936   5.732  17.825  0.00  0.00    +0.000 C 
BRANCH  14  15
ATOM     15  C   UNL     1       2.205   4.694  18.647  0.00  0.00    +0.000 A 
ATOM     16  C   UNL     1       1.726   3.519  18.048  0.00  0.00    +0.000 A 
ATOM     17  C   UNL     1       0.990   2.601  18.794  0.00  0.00    +0.000 A 
ATOM     18  C   UNL     1       0.736   2.842  20.145  0.00  0.00    +0.000 A 
ATOM     19  C   UNL     1       1.231   3.992  20.755  0.00  0.00    +0.000 A 
ATOM     20  C   UNL     1       1.967   4.912  20.013  0.00  0.00    +0.000 A 
ENDBRANCH  14  15
ENDBRANCH  13  14
ENDBRANCH   1  13
TORSDOF 5
ENDMDL
