MODEL 1
REMARK VINA RESULT:      -9.3      0.000      0.000
REMARK  Name = 
REMARK  4 active torsions:
REMARK  status: ('A' for Active; 'I' for Inactive)
REMARK    1  A    between atoms: N_3  and  C_4
REMARK    2  A    between atoms: N_11  and  C_12
REMARK    3  A    between atoms: C_16  and  C_17
REMARK    4  A    between atoms: C_21  and  N_22
REMARK                            x       y       z     vdW  Elec       q    Type
REMARK                         _______ _______ _______ _____ _____    ______ ____
ROOT
ATOM      1  C   UNL     1       3.747   4.292  18.712  0.00  0.00    +0.000 A 
ATOM      2  C   UNL     1       3.343   3.594  19.851  0.00  0.00    +0.000 A 
ATOM      3  C   UNL     1       2.521   4.191  20.799  0.00  0.00    +0.000 A 
ATOM      4  C   UNL     1       2.079   5.496  20.610  0.00  0.00    +0.000 A 
ATOM      5  C   UNL     1       2.437   6.230  19.464  0.00  0.00    +0.000 A 
ATOM      6  C   UNL     1       3.270   5.597  18.515  0.00  0.00    +0.000 A 
ENDROOT
BRANCH   1  10
ATOM      7  O   UNL     1       4.744   5.539  16.294  0.00  0.00    +0.000 OA
ATOM      8  C   UNL     1       5.059   4.394  16.597  0.00  0.00    +0.000 C 
ATOM      9  N   UNL     1       5.843   3.580  15.802  0.00  0.00    +0.000 N 
ATOM     10  N   UNL     1       4.630   3.746  17.749  0.00  0.00    +0.000 N 
ATOM     11  H   UNL     1       5.872   2.600  16.036  0.00  0.00    +0.000 HD
ATOM     12  H   UNL     1       4.863   2.771  17.854  0.00  0.00    +0.000 HD
BRANCH   9  13
ATOM     13  C   UNL     1       6.376   3.942  14.540  0.00  0.00    +0.000 A 
ATOM     14  C   UNL     1       7.353   4.934  14.371  0.00  0.00    +0.000 A 
ATOM     15  C   UNL     1       7.789   5.297  13.094  0.00  0.00    +0.000 A 
ATOM     16  C   UNL     1       7.258   4.658  11.985  0.00  0.00    +0.000 A 
ATOM     17  F   UNL     1       7.660   5.019  10.760  0.00  0.00    +0.000 F 
ATOM     18  C   UNL     1       6.315   3.648  12.130  0.00  0.00    +0.000 A 
ATOM     19  C   UNL     1       5.880   3.284  13.409  0.00  0.00    +0.000 A 
ENDBRANCH   9  13
ENDBRANCH   1  10
BRANCH   5  20
ATOM     20  C   UNL     1       1.944   7.610  19.256  0.00  0.00    +0.000 A 
ATOM     21  C   UNL     1       1.966   8.229  18.008  0.00  0.00    +0.000 A 
ATOM     22  C   UNL     1       1.545   9.544  17.906  0.00  0.00    +0.000 A 
ATOM     23  C   UNL     1       1.098  10.196  19.047  0.00  0.00    +0.000 A 
ATOM     24  C   UNL     1       1.060   9.532  20.273  0.00  0.00    +0.000 A 
ATOM     25  N   UNL     1       1.488   8.253  20.365  0.00  0.00    +0.000 NA
BRANCH  24  26
ATOM     26  N   UNL     1       0.609  10.168  21.407  0.00  0.00    +0.000 N 
ATOM     27  C   UNL     1       0.534   9.488  22.691  0.00  0.00    +0.000 C 
ATOM     28  C   UNL     1      -0.787   9.984  23.274  0.00  0.00    +0.000 C 
ATOM     29  C   UNL     1      -0.901  11.403  22.743  0.00  0.00    +0.000 C 
ATOM     30  C   UNL     1      -0.255  11.341  21.362  0.00  0.00    +0.000 C 
ENDBRANCH  24  26
ENDBRANCH   5  20
TORSDOF 4
ENDMDL
MODEL 2
REMARK VINA RESULT:      -8.9      4.590     10.975
REMARK  Name = 
REMARK  4 active torsions:
REMARK  status: ('A' for Active; 'I' for Inactive)
REMARK    1  A    between atoms: N_3  and  C_4
REMARK    2  A    between atoms: N_11  and  C_12
REMARK    3  A    between atoms: C_16  and  C_17
REMARK    4  A    between atoms: C_21  and  N_22
REMARK                            x       y       z     vdW  Elec       q    Type
REMARK                         _______ _______ _______ _____ _____    ______ ____
ROOT
ATOM      1  C   UNL     1       1.056   9.324  20.322  0.00  0.00    +0.000 A 
ATOM      2  C   UNL     1       1.101   9.990  19.097  0.00  0.00    +0.000 A 
ATOM      3  C   UNL     1       1.676   9.394  17.981  0.00  0.00    +0.000 A 
ATOM      4  C   UNL     1       2.204   8.111  18.076  0.00  0.00    +0.000 A 
ATOM      5  C   UNL     1       2.157   7.388  19.283  0.00  0.00    +0.000 A 
ATOM      6  C   UNL     1       1.563   8.018  20.399  0.00  0.00    +0.000 A 
ENDROOT
BRANCH   1  10
ATOM      7  O   UNL     1      -1.094  11.253  20.547  0.00  0.00    +0.000 OA
ATOM      8  C   UNL     1      -0.495  10.848  21.537  0.00  0.00    +0.000 C 
ATOM      9  N   UNL     1      -0.729  11.311  22.818  0.00  0.00    +0.000 N 
ATOM     10  N   UNL     1       0.532   9.912  21.499  0.00  0.00    +0.000 N 
ATOM     11  H   UNL     1      -0.052  11.072  23.524  0.00  0.00    +0.000 HD
ATOM     12  H   UNL     1       1.028   9.723  22.355  0.00  0.00    +0.000 HD
BRANCH   9  13
ATOM     13  C   UNL     1      -1.673  12.311  23.162  0.00  0.00    +0.000 A 
ATOM     14  C   UNL     1      -3.018  12.036  23.449  0.00  0.00    +0.000 A 
ATOM     15  C   UNL     1      -3.918  13.073  23.713  0.00  0.00    +0.000 A 
ATOM     16  C   UNL     1      -3.469  14.383  23.705  0.00  0.00    +0.000 A 
ATOM     17  F   UNL     1      -4.335  15.378  23.938  0.00  0.00    +0.000 F 
ATOM     18  C   UNL     1      -2.134  14.677  23.459  0.00  0.00    +0.000 A 
ATOM     19  C   UNL     1      -1.233  13.639  23.195  0.00  0.00    +0.000 A 
ENDBRANCH   9  13
ENDBRANCH   1  10
BRANCH   5  20
ATOM     20  C   UNL     1       2.698   6.013  19.371  0.00  0.00    +0.000 A 
ATOM     21  C   UNL     1       2.228   5.086  20.298  0.00  0.00    +0.000 A 
ATOM     22  C   UNL     1       2.827   3.840  20.361  0.00  0.00    +0.000 A 
ATOM     23  C   UNL     1       3.865   3.550  19.486  0.00  0.00    +0.000 A 
ATOM     24  C   UNL     1       4.287   4.494  18.550  0.00  0.00    +0.000 A 
ATOM     25  N   UNL     1       3.706   5.713  18.507  0.00  0.00    +0.000 NA
BRANCH  24  26
ATOM     26  N   UNL     1       5.310   4.211  17.673  0.00  0.00    +0.000 N 
ATOM     27  C   UNL     1       6.681   4.622  17.934  0.00  0.00    +0.000 C 
ATOM     28  C   UNL     1       7.175   5.086  16.566  0.00  0.00    +0.000 C 
ATOM     29  C   UNL     1       6.435   4.181  15.594  0.00  0.00    +0.000 C 
ATOM     30  C   UNL     1       5.084   3.940  16.260  0.00  0.00    +0.000 C 
ENDBRANCH  24  26
ENDBRANCH   5  20
TORSDOF 4
ENDMDL
MODEL 3
REMARK VINA RESULT:      -8.9      4.159      6.323
REMARK  Name = 
REMARK  4 active torsions:
REMARK  status: ('A' for Active; 'I' for Inactive)
REMARK    1  A    between atoms: N_3  and  C_4
REMARK    2  A    between atoms: N_11  and  C_12
REMARK    3  A    between atoms: C_16  and  C_17
REMARK    4  A    between atoms: C_21  and  N_22
REMARK                            x       y       z     vdW  Elec       q    Type
REMARK                         _______ _______ _______ _____ _____    ______ ____
ROOT
ATOM      1  C   UNL     1       0.816  10.245  19.170  0.00  0.00    +0.000 A 
ATOM      2  C   UNL     1       1.388  11.487  19.451  0.00  0.00    +0.000 A 
ATOM      3  C   UNL     1       0.710  12.665  19.165  0.00  0.00    +0.000 A 
ATOM      4  C   UNL     1      -0.561  12.615  18.603  0.00  0.00    +0.000 A 
ATOM      5  C   UNL     1      -1.190  11.387  18.327  0.00  0.00    +0.000 A 
ATOM      6  C   UNL     1      -0.479  10.205  18.633  0.00  0.00    +0.000 A 
ENDROOT
BRANCH   1  10
ATOM      7  O   UNL     1       2.403   8.717  17.288  0.00  0.00    +0.000 OA
ATOM      8  C   UNL     1       2.227   8.327  18.437  0.00  0.00    +0.000 C 
ATOM      9  N   UNL     1       2.694   7.118  18.916  0.00  0.00    +0.000 N 
ATOM     10  N   UNL     1       1.492   9.020  19.391  0.00  0.00    +0.000 N 
ATOM     11  H   UNL     1       2.325   6.800  19.797  0.00  0.00    +0.000 HD
ATOM     12  H   UNL     1       1.321   8.565  20.274  0.00  0.00    +0.000 HD
BRANCH   9  13
ATOM     13  C   UNL     1       3.423   6.169  18.158  0.00  0.00    +0.000 A 
ATOM     14  C   UNL     1       4.703   6.414  17.640  0.00  0.00    +0.000 A 
ATOM     15  C   UNL     1       5.344   5.462  16.839  0.00  0.00    +0.000 A 
ATOM     16  C   UNL     1       4.709   4.261  16.568  0.00  0.00    +0.000 A 
ATOM     17  F   UNL     1       5.313   3.358  15.785  0.00  0.00    +0.000 F 
ATOM     18  C   UNL     1       3.456   3.982  17.100  0.00  0.00    +0.000 A 
ATOM     19  C   UNL     1       2.816   4.934  17.902  0.00  0.00    +0.000 A 
ENDBRANCH   9  13
ENDBRANCH   1  10
BRANCH   5  20
ATOM     20  C   UNL     1      -2.553  11.338  17.752  0.00  0.00    +0.000 A 
ATOM     21  C   UNL     1      -2.788  11.013  16.418  0.00  0.00    +0.000 A 
ATOM     22  C   UNL     1      -4.086  11.050  15.939  0.00  0.00    +0.000 A 
ATOM     23  C   UNL     1      -5.113  11.393  16.809  0.00  0.00    +0.000 A 
ATOM     24  C   UNL     1      -4.841  11.681  18.147  0.00  0.00    +0.000 A 
ATOM     25  N   UNL     1      -3.569  11.657  18.600  0.00  0.00    +0.000 NA
BRANCH  24  26
ATOM     26  N   UNL     1      -5.855  12.013  19.017  0.00  0.00    +0.000 N 
ATOM     27  C   UNL     1      -5.763  13.168  19.898  0.00  0.00    +0.000 C 
ATOM     28  C   UNL     1      -6.356  12.657  21.209  0.00  0.00    +0.000 C 
ATOM     29  C   UNL     1      -7.416  11.665  20.758  0.00  0.00    +0.000 C 
ATOM     30  C   UNL     1      -6.835  11.045  19.490  0.00  0.00    +0.000 C 
ENDBRANCH  24  26
ENDBRANCH   5  20
TORSDOF 4
ENDMDL
MODEL 4
REMARK VINA RESULT:      -8.8      4.055      6.070
REMARK  Name = 
REMARK  4 active torsions:
REMARK  status: ('A' for Active; 'I' for Inactive)
REMARK    1  A    between atoms: N_3  and  C_4
REMARK    2  A    between atoms: N_11  and  C_12
REMARK    3  A    between atoms: C_16  and  C_17
REMARK    4  A    between atoms: C_21  and  N_22
REMARK                            x       y       z     vdW  Elec       q    Type
REMARK                         _______ _______ _______ _____ _____    ______ ____
ROOT
ATOM      1  C   UNL     1       0.790   9.188  20.596  0.00  0.00    +0.000 A 
ATOM      2  C   UNL     1       0.955  10.238  21.500  0.00  0.00    +0.000 A 
ATOM      3  C   UNL     1       0.203  11.401  21.386  0.00  0.00    +0.000 A 
ATOM      4  C   UNL     1      -0.737  11.523  20.368  0.00  0.00    +0.000 A 
ATOM      5  C   UNL     1      -0.957  10.480  19.449  0.00  0.00    +0.000 A 
ATOM      6  C   UNL     1      -0.182   9.307  19.592  0.00  0.00    +0.000 A 
ENDROOT
BRANCH   1  10
ATOM      7  O   UNL     1       2.368   8.016  18.467  0.00  0.00    +0.000 OA
ATOM      8  C   UNL     1       2.297   7.489  19.572  0.00  0.00    +0.000 C 
ATOM      9  N   UNL     1       2.887   6.279  19.883  0.00  0.00    +0.000 N 
ATOM     10  N   UNL     1       1.572   8.008  20.638  0.00  0.00    +0.000 N 
ATOM     11  H   UNL     1       2.601   5.835  20.741  0.00  0.00    +0.000 HD
ATOM     12  H   UNL     1       1.494   7.446  21.471  0.00  0.00    +0.000 HD
BRANCH   9  13
ATOM     13  C   UNL     1       3.638   5.483  18.983  0.00  0.00    +0.000 A 
ATOM     14  C   UNL     1       5.040   5.498  18.924  0.00  0.00    +0.000 A 
ATOM     15  C   UNL     1       5.722   4.743  17.965  0.00  0.00    +0.000 A 
ATOM     16  C   UNL     1       5.004   3.962  17.075  0.00  0.00    +0.000 A 
ATOM     17  F   UNL     1       5.656   3.255  16.143  0.00  0.00    +0.000 F 
ATOM     18  C   UNL     1       3.617   3.904  17.137  0.00  0.00    +0.000 A 
ATOM     19  C   UNL     1       2.934   4.659  18.097  0.00  0.00    +0.000 A 
ENDBRANCH   9  13
ENDBRANCH   1  10
BRANCH   5  20
ATOM     20  C   UNL     1      -1.976  10.605  18.382  0.00  0.00    +0.000 A 
ATOM     21  C   UNL     1      -1.795  10.064  17.112  0.00  0.00    +0.000 A 
ATOM     22  C   UNL     1      -2.766  10.276  16.149  0.00  0.00    +0.000 A 
ATOM     23  C   UNL     1      -3.898  11.006  16.488  0.00  0.00    +0.000 A 
ATOM     24  C   UNL     1      -4.058  11.505  17.781  0.00  0.00    +0.000 A 
ATOM     25  N   UNL     1      -3.096  11.304  18.708  0.00  0.00    +0.000 NA
BRANCH  24  26
ATOM     26  N   UNL     1      -5.182  12.221  18.127  0.00  0.00    +0.000 N 
ATOM     27  C   UNL     1      -5.699  12.229  19.487  0.00  0.00    +0.000 C 
ATOM     28  C   UNL     1      -7.210  12.150  19.288  0.00  0.00    +0.000 C 
ATOM     29  C   UNL     1      -7.439  12.909  17.991  0.00  0.00    +0.000 C 
ATOM     30  C   UNL     1      -6.197  12.612  17.157  0.00  0.00    +0.000 C 
ENDBRANCH  24  26
ENDBRANCH   5  20
TORSDOF 4
ENDMDL
MODEL 5
REMARK VINA RESULT:      -8.8      3.616      9.749
REMARK  Name = 
REMARK  4 active torsions:
REMARK  status: ('A' for Active; 'I' for Inactive)
REMARK    1  A    between atoms: N_3  and  C_4
REMARK    2  A    between atoms: N_11  and  C_12
REMARK    3  A    between atoms: C_16  and  C_17
REMARK    4  A    between atoms: C_21  and  N_22
REMARK                            x       y       z     vdW  Elec       q    Type
REMARK                         _______ _______ _______ _____ _____    ______ ____
ROOT
ATOM      1  C   UNL     1       2.246   5.558  20.075  0.00  0.00    +0.000 A 
ATOM      2  C   UNL     1       1.351   4.541  19.739  0.00  0.00    +0.000 A 
ATOM      3  C   UNL     1       1.671   3.603  18.765  0.00  0.00    +0.000 A 
ATOM      4  C   UNL     1       2.904   3.662  18.124  0.00  0.00    +0.000 A 
ATOM      5  C   UNL     1       3.851   4.651  18.449  0.00  0.00    +0.000 A 
ATOM      6  C   UNL     1       3.499   5.590  19.445  0.00  0.00    +0.000 A 
ENDROOT
BRANCH   1  10
ATOM      7  O   UNL     1       0.886   8.074  19.616  0.00  0.00    +0.000 OA
ATOM      8  C   UNL     1       1.297   7.766  20.729  0.00  0.00    +0.000 C 
ATOM      9  N   UNL     1       1.219   8.595  21.832  0.00  0.00    +0.000 N 
ATOM     10  N   UNL     1       1.941   6.569  21.019  0.00  0.00    +0.000 N 
ATOM     11  H   UNL     1       1.764   8.338  22.639  0.00  0.00    +0.000 HD
ATOM     12  H   UNL     1       2.330   6.456  21.941  0.00  0.00    +0.000 HD
BRANCH   9  13
ATOM     13  C   UNL     1       0.671   9.902  21.831  0.00  0.00    +0.000 A 
ATOM     14  C   UNL     1       1.122  10.927  20.986  0.00  0.00    +0.000 A 
ATOM     15  C   UNL     1       0.589  12.217  21.080  0.00  0.00    +0.000 A 
ATOM     16  C   UNL     1      -0.403  12.477  22.011  0.00  0.00    +0.000 A 
ATOM     17  F   UNL     1      -0.899  13.717  22.116  0.00  0.00    +0.000 F 
ATOM     18  C   UNL     1      -0.890  11.469  22.834  0.00  0.00    +0.000 A 
ATOM     19  C   UNL     1      -0.358  10.179  22.738  0.00  0.00    +0.000 A 
ENDBRANCH   9  13
ENDBRANCH   1  10
BRANCH   5  20
ATOM     20  C   UNL     1       5.171   4.695  17.781  0.00  0.00    +0.000 A 
ATOM     21  C   UNL     1       6.363   4.807  18.493  0.00  0.00    +0.000 A 
ATOM     22  C   UNL     1       7.553   4.904  17.794  0.00  0.00    +0.000 A 
ATOM     23  C   UNL     1       7.521   4.869  16.406  0.00  0.00    +0.000 A 
ATOM     24  C   UNL     1       6.310   4.724  15.729  0.00  0.00    +0.000 A 
ATOM     25  N   UNL     1       5.152   4.645  16.422  0.00  0.00    +0.000 NA
BRANCH  24  26
ATOM     26  N   UNL     1       6.271   4.679  14.354  0.00  0.00    +0.000 N 
ATOM     27  C   UNL     1       5.243   3.937  13.639  0.00  0.00    +0.000 C 
ATOM     28  C   UNL     1       6.014   3.284  12.495  0.00  0.00    +0.000 C 
ATOM     29  C   UNL     1       7.102   4.296  12.175  0.00  0.00    +0.000 C 
ATOM     30  C   UNL     1       7.443   4.921  13.524  0.00  0.00    +0.000 C 
ENDBRANCH  24  26
ENDBRANCH   5  20
TORSDOF 4
ENDMDL
MODEL 6
REMARK VINA RESULT:      -8.8      4.224      6.599
REMARK  Name = 
REMARK  4 active torsions:
REMARK  status: ('A' for Active; 'I' for Inactive)
REMARK    1  A    between atoms: N_3  and  C_4
REMARK    2  A    between atoms: N_11  and  C_12
REMARK    3  A    between atoms: C_16  and  C_17
REMARK    4  A    between atoms: C_21  and  N_22
REMARK                            x       y       z     vdW  Elec       q    Type
REMARK                         _______ _______ _______ _____ _____    ______ ____
ROOT
ATOM      1  C   UNL     1       0.721  10.509  19.041  0.00  0.00    +0.000 A 
ATOM      2  C   UNL     1       1.356  11.751  19.081  0.00  0.00    +0.000 A 
ATOM      3  C   UNL     1       0.668  12.915  18.761  0.00  0.00    +0.000 A 
ATOM      4  C   UNL     1      -0.676  12.851  18.408  0.00  0.00    +0.000 A 
ATOM      5  C   UNL     1      -1.367  11.625  18.379  0.00  0.00    +0.000 A 
ATOM      6  C   UNL     1      -0.643  10.459  18.714  0.00  0.00    +0.000 A 
ENDROOT
BRANCH   1  10
ATOM      7  O   UNL     1       2.136   8.814  17.165  0.00  0.00    +0.000 OA
ATOM      8  C   UNL     1       2.045   8.515  18.350  0.00  0.00    +0.000 C 
ATOM      9  N   UNL     1       2.532   7.337  18.884  0.00  0.00    +0.000 N 
ATOM     10  N   UNL     1       1.395   9.292  19.303  0.00  0.00    +0.000 N 
ATOM     11  H   UNL     1       2.228   7.093  19.813  0.00  0.00    +0.000 HD
ATOM     12  H   UNL     1       1.288   8.908  20.228  0.00  0.00    +0.000 HD
BRANCH   9  13
ATOM     13  C   UNL     1       3.187   6.319  18.147  0.00  0.00    +0.000 A 
ATOM     14  C   UNL     1       2.647   5.039  17.950  0.00  0.00    +0.000 A 
ATOM     15  C   UNL     1       3.372   4.054  17.274  0.00  0.00    +0.000 A 
ATOM     16  C   UNL     1       4.632   4.353  16.783  0.00  0.00    +0.000 A 
ATOM     17  F   UNL     1       5.337   3.404  16.152  0.00  0.00    +0.000 F 
ATOM     18  C   UNL     1       5.173   5.624  16.935  0.00  0.00    +0.000 A 
ATOM     19  C   UNL     1       4.446   6.610  17.610  0.00  0.00    +0.000 A 
ENDBRANCH   9  13
ENDBRANCH   1  10
BRANCH   5  20
ATOM     20  C   UNL     1      -2.803  11.566  18.027  0.00  0.00    +0.000 A 
ATOM     21  C   UNL     1      -3.242  11.270  16.739  0.00  0.00    +0.000 A 
ATOM     22  C   UNL     1      -4.600  11.294  16.473  0.00  0.00    +0.000 A 
ATOM     23  C   UNL     1      -5.481  11.596  17.504  0.00  0.00    +0.000 A 
ATOM     24  C   UNL     1      -5.004  11.855  18.789  0.00  0.00    +0.000 A 
ATOM     25  N   UNL     1      -3.675  11.843  19.034  0.00  0.00    +0.000 NA
BRANCH  24  26
ATOM     26  N   UNL     1      -5.870  12.145  19.818  0.00  0.00    +0.000 N 
ATOM     27  C   UNL     1      -7.244  12.558  19.572  0.00  0.00    +0.000 C 
ATOM     28  C   UNL     1      -7.468  13.664  20.600  0.00  0.00    +0.000 C 
ATOM     29  C   UNL     1      -6.616  13.230  21.782  0.00  0.00    +0.000 C 
ATOM     30  C   UNL     1      -5.415  12.537  21.145  0.00  0.00    +0.000 C 
ENDBRANCH  24  26
ENDBRANCH   5  20
TORSDOF 4
ENDMDL
MODEL 7
REMARK VINA RESULT:      -8.8      4.247      6.691
REMARK  Name = 
REMARK  4 active torsions:
REMARK  status: ('A' for Active; 'I' for Inactive)
REMARK    1  A    between atoms: N_3  and  C_4
REMARK    2  A    between atoms: N_11  and  C_12
REMARK    3  A    between atoms: C_16  and  C_17
REMARK    4  A    between atoms: C_21  and  N_22
REMARK                            x       y       z     vdW  Elec       q    Type
REMARK                         _______ _______ _______ _____ _____    ______ ____
ROOT
ATOM      1  C   UNL     1       0.676  10.117  19.922  0.00  0.00    +0.000 A 
ATOM      2  C   UNL     1       1.261  11.349  20.217  0.00  0.00    +0.000 A 
ATOM      3  C   UNL     1       0.687  12.535  19.775  0.00  0.00    +0.000 A 
ATOM      4  C   UNL     1      -0.494  12.503  19.041  0.00  0.00    +0.000 A 
ATOM      5  C   UNL     1      -1.136  11.286  18.742  0.00  0.00    +0.000 A 
ATOM      6  C   UNL     1      -0.531  10.097  19.208  0.00  0.00    +0.000 A 
ENDROOT
BRANCH   1  10
ATOM      7  O   UNL     1       1.951   8.148  18.222  0.00  0.00    +0.000 OA
ATOM      8  C   UNL     1       1.839   7.970  19.430  0.00  0.00    +0.000 C 
ATOM      9  N   UNL     1       2.235   6.814  20.074  0.00  0.00    +0.000 N 
ATOM     10  N   UNL     1       1.254   8.881  20.301  0.00  0.00    +0.000 N 
ATOM     11  H   UNL     1       1.915   6.683  21.020  0.00  0.00    +0.000 HD
ATOM     12  H   UNL     1       1.120   8.597  21.258  0.00  0.00    +0.000 HD
BRANCH   9  13
ATOM     13  C   UNL     1       2.807   5.683  19.440  0.00  0.00    +0.000 A 
ATOM     14  C   UNL     1       4.191   5.477  19.332  0.00  0.00    +0.000 A 
ATOM     15  C   UNL     1       4.696   4.377  18.633  0.00  0.00    +0.000 A 
ATOM     16  C   UNL     1       3.818   3.475  18.054  0.00  0.00    +0.000 A 
ATOM     17  F   UNL     1       4.301   2.432  17.366  0.00  0.00    +0.000 F 
ATOM     18  C   UNL     1       2.444   3.640  18.178  0.00  0.00    +0.000 A 
ATOM     19  C   UNL     1       1.938   4.740  18.879  0.00  0.00    +0.000 A 
ENDBRANCH   9  13
ENDBRANCH   1  10
BRANCH   5  20
ATOM     20  C   UNL     1      -2.405  11.259  17.982  0.00  0.00    +0.000 A 
ATOM     21  C   UNL     1      -2.443  11.084  16.600  0.00  0.00    +0.000 A 
ATOM     22  C   UNL     1      -3.665  11.132  15.953  0.00  0.00    +0.000 A 
ATOM     23  C   UNL     1      -4.815  11.335  16.704  0.00  0.00    +0.000 A 
ATOM     24  C   UNL     1      -4.740  11.474  18.090  0.00  0.00    +0.000 A 
ATOM     25  N   UNL     1      -3.540  11.440  18.710  0.00  0.00    +0.000 NA
BRANCH  24  26
ATOM     26  N   UNL     1      -5.876  11.665  18.843  0.00  0.00    +0.000 N 
ATOM     27  C   UNL     1      -6.036  12.822  19.711  0.00  0.00    +0.000 C 
ATOM     28  C   UNL     1      -6.692  12.237  20.959  0.00  0.00    +0.000 C 
ATOM     29  C   UNL     1      -7.554  11.110  20.413  0.00  0.00    +0.000 C 
ATOM     30  C   UNL     1      -6.763  10.574  19.224  0.00  0.00    +0.000 C 
ENDBRANCH  24  26
ENDBRANCH   5  20
TORSDOF 4
ENDMDL
MODEL 8
REMARK VINA RESULT:      -8.6      4.395      6.925
REMARK  Name = 
REMARK  4 active torsions:
REMARK  status: ('A' for Active; 'I' for Inactive)
REMARK    1  A    between atoms: N_3  and  C_4
REMARK    2  A    between atoms: N_11  and  C_12
REMARK    3  A    between atoms: C_16  and  C_17
REMARK    4  A    between atoms: C_21  and  N_22
REMARK                            x       y       z     vdW  Elec       q    Type
REMARK                         _______ _______ _______ _____ _____    ______ ____
ROOT
ATOM      1  C   UNL     1       0.579   9.755  20.561  0.00  0.00    +0.000 A 
ATOM      2  C   UNL     1       1.075  10.978  21.014  0.00  0.00    +0.000 A 
ATOM      3  C   UNL     1       0.554  12.177  20.543  0.00  0.00    +0.000 A 
ATOM      4  C   UNL     1      -0.485  12.166  19.617  0.00  0.00    +0.000 A 
ATOM      5  C   UNL     1      -1.036  10.958  19.152  0.00  0.00    +0.000 A 
ATOM      6  C   UNL     1      -0.489   9.754  19.652  0.00  0.00    +0.000 A 
ENDROOT
BRANCH   1  10
ATOM      7  O   UNL     1       1.895   7.757  18.926  0.00  0.00    +0.000 OA
ATOM      8  C   UNL     1       1.724   7.585  20.128  0.00  0.00    +0.000 C 
ATOM      9  N   UNL     1       2.067   6.423  20.792  0.00  0.00    +0.000 N 
ATOM     10  N   UNL     1       1.116   8.510  20.969  0.00  0.00    +0.000 N 
ATOM     11  H   UNL     1       1.702   6.301  21.723  0.00  0.00    +0.000 HD
ATOM     12  H   UNL     1       0.932   8.230  21.919  0.00  0.00    +0.000 HD
BRANCH   9  13
ATOM     13  C   UNL     1       2.647   5.281  20.188  0.00  0.00    +0.000 A 
ATOM     14  C   UNL     1       3.941   5.266  19.646  0.00  0.00    +0.000 A 
ATOM     15  C   UNL     1       4.432   4.128  19.000  0.00  0.00    +0.000 A 
ATOM     16  C   UNL     1       3.634   3.000  18.907  0.00  0.00    +0.000 A 
ATOM     17  F   UNL     1       4.096   1.916  18.270  0.00  0.00    +0.000 F 
ATOM     18  C   UNL     1       2.363   2.979  19.467  0.00  0.00    +0.000 A 
ATOM     19  C   UNL     1       1.873   4.117  20.116  0.00  0.00    +0.000 A 
ENDBRANCH   9  13
ENDBRANCH   1  10
BRANCH   5  20
ATOM     20  C   UNL     1      -2.157  10.951  18.187  0.00  0.00    +0.000 A 
ATOM     21  C   UNL     1      -2.078  10.304  16.956  0.00  0.00    +0.000 A 
ATOM     22  C   UNL     1      -3.146  10.396  16.081  0.00  0.00    +0.000 A 
ATOM     23  C   UNL     1      -4.269  11.116  16.467  0.00  0.00    +0.000 A 
ATOM     24  C   UNL     1      -4.324  11.724  17.721  0.00  0.00    +0.000 A 
ATOM     25  N   UNL     1      -3.269  11.640  18.561  0.00  0.00    +0.000 NA
BRANCH  24  26
ATOM     26  N   UNL     1      -5.438  12.431  18.115  0.00  0.00    +0.000 N 
ATOM     27  C   UNL     1      -5.845  12.508  19.510  0.00  0.00    +0.000 C 
ATOM     28  C   UNL     1      -7.364  12.379  19.440  0.00  0.00    +0.000 C 
ATOM     29  C   UNL     1      -7.719  13.051  18.123  0.00  0.00    +0.000 C 
ATOM     30  C   UNL     1      -6.538  12.735  17.210  0.00  0.00    +0.000 C 
ENDBRANCH  24  26
ENDBRANCH   5  20
TORSDOF 4
ENDMDL
MODEL 9
REMARK VINA RESULT:      -8.6      4.293      5.819
REMARK  Name = 
REMARK  4 active torsions:
REMARK  status: ('A' for Active; 'I' for Inactive)
REMARK    1  A    between atoms: N_3  and  C_4
REMARK    2  A    between atoms: N_11  and  C_12
REMARK    3  A    between atoms: C_16  and  C_17
REMARK    4  A    between atoms: C_21  and  N_22
REMARK                            x       y       z     vdW  Elec       q    Type
REMARK                         _______ _______ _______ _____ _____    ______ ____
ROOT
ATOM      1  C   UNL     1       1.112   9.380  18.388  0.00  0.00    +0.000 A 
ATOM      2  C   UNL     1       1.178   9.529  19.774  0.00  0.00    +0.000 A 
ATOM      3  C   UNL     1       0.103  10.043  20.488  0.00  0.00    +0.000 A 
ATOM      4  C   UNL     1      -1.064  10.403  19.821  0.00  0.00    +0.000 A 
ATOM      5  C   UNL     1      -1.188  10.246  18.428  0.00  0.00    +0.000 A 
ATOM      6  C   UNL     1      -0.080   9.716  17.729  0.00  0.00    +0.000 A 
ENDROOT
BRANCH   1  10
ATOM      7  O   UNL     1       2.877   7.152  18.946  0.00  0.00    +0.000 OA
ATOM      8  C   UNL     1       3.023   7.844  17.945  0.00  0.00    +0.000 C 
ATOM      9  N   UNL     1       4.057   7.682  17.044  0.00  0.00    +0.000 N 
ATOM     10  N   UNL     1       2.201   8.915  17.612  0.00  0.00    +0.000 N 
ATOM     11  H   UNL     1       4.206   8.422  16.377  0.00  0.00    +0.000 HD
ATOM     12  H   UNL     1       2.466   9.482  16.823  0.00  0.00    +0.000 HD
BRANCH   9  13
ATOM     13  C   UNL     1       5.087   6.714  17.152  0.00  0.00    +0.000 A 
ATOM     14  C   UNL     1       4.855   5.331  17.096  0.00  0.00    +0.000 A 
ATOM     15  C   UNL     1       5.903   4.424  17.279  0.00  0.00    +0.000 A 
ATOM     16  C   UNL     1       7.185   4.899  17.506  0.00  0.00    +0.000 A 
ATOM     17  F   UNL     1       8.185   4.031  17.702  0.00  0.00    +0.000 F 
ATOM     18  C   UNL     1       7.444   6.264  17.530  0.00  0.00    +0.000 A 
ATOM     19  C   UNL     1       6.395   7.172  17.345  0.00  0.00    +0.000 A 
ENDBRANCH   9  13
ENDBRANCH   1  10
BRANCH   5  20
ATOM     20  C   UNL     1      -2.440  10.607  17.727  0.00  0.00    +0.000 A 
ATOM     21  C   UNL     1      -2.568  10.529  16.342  0.00  0.00    +0.000 A 
ATOM     22  C   UNL     1      -3.751  10.944  15.755  0.00  0.00    +0.000 A 
ATOM     23  C   UNL     1      -4.777  11.408  16.568  0.00  0.00    +0.000 A 
ATOM     24  C   UNL     1      -4.623  11.440  17.954  0.00  0.00    +0.000 A 
ATOM     25  N   UNL     1      -3.458  11.047  18.515  0.00  0.00    +0.000 NA
BRANCH  24  26
ATOM     26  N   UNL     1      -5.639  11.889  18.767  0.00  0.00    +0.000 N 
ATOM     27  C   UNL     1      -5.398  12.838  19.844  0.00  0.00    +0.000 C 
ATOM     28  C   UNL     1      -6.272  12.309  20.979  0.00  0.00    +0.000 C 
ATOM     29  C   UNL     1      -7.464  11.702  20.257  0.00  0.00    +0.000 C 
ATOM     30  C   UNL     1      -6.878  11.148  18.962  0.00  0.00    +0.000 C 
ENDBRANCH  24  26
ENDBRANCH   5  20
TORSDOF 4
ENDMDL
