MODEL 1
REMARK VINA RESULT:      -5.9      0.000      0.000
REMARK  Name = 
REMARK  5 active torsions:
REMARK  status: ('A' for Active; 'I' for Inactive)
REMARK    1  A    between atoms: C_1  and  N_2
REMARK    2  A    between atoms: C_6  and  C_7
REMARK    3  A    between atoms: C_13  and  C_15
REMARK    4  A    between atoms: C_20  and  O_21
REMARK    5  A    between atoms: O_21  and  C_22
REMARK                            x       y       z     vdW  Elec       q    Type
REMARK                         _______ _______ _______ _____ _____    ______ ____
ROOT
ATOM      1  C   UNL     1       8.431  15.932  18.057  0.00  0.00    +0.000 C 
ATOM      2  C   UNL     1       7.649  16.916  18.978  0.00  0.00    +0.000 C 
ATOM      3  O   UNL     1       6.287  17.069  18.544  0.00  0.00    +0.000 OA
ATOM      4  C   UNL     1       5.602  15.815  18.626  0.00  0.00    +0.000 C 
ATOM      5  C   UNL     1       6.299  14.750  17.782  0.00  0.00    +0.000 C 
ATOM      6  N   UNL     1       7.730  14.611  18.111  0.00  0.00    +0.000 N 
ATOM      7  C   UNL     1       8.241  13.343  17.798  0.00  0.00    +0.000 C 
ATOM      8  O   UNL     1       7.538  12.509  17.218  0.00  0.00    +0.000 OA
ENDROOT
BRANCH   1  14
ATOM      9  C   UNL     1       9.686  16.086  20.956  0.00  0.00    +0.000 C 
ATOM     10  N   UNL     1      10.382  15.997  19.696  0.00  0.00    +0.000 N 
ATOM     11  N   UNL     1      11.726  15.908  19.695  0.00  0.00    +0.000 NA
ATOM     12  C   UNL     1      11.994  15.875  18.391  0.00  0.00    +0.000 A 
ATOM     13  N   UNL     1      10.902  15.904  17.577  0.00  0.00    +0.000 NA
ATOM     14  C   UNL     1       9.880  15.984  18.417  0.00  0.00    +0.000 A 
ENDBRANCH   1  14
BRANCH   7  15
ATOM     15  C   UNL     1       9.579  12.895  18.258  0.00  0.00    +0.000 A 
ATOM     16  C   UNL     1      10.634  12.781  17.347  0.00  0.00    +0.000 A 
ATOM     17  C   UNL     1      11.897  12.387  17.793  0.00  0.00    +0.000 A 
ATOM     18  C   UNL     1      12.126  12.185  19.155  0.00  0.00    +0.000 A 
ATOM     19  C   UNL     1      11.086  12.350  20.082  0.00  0.00    +0.000 A 
ATOM     20  C   UNL     1       9.809  12.692  19.634  0.00  0.00    +0.000 A 
BRANCH  20  21
ATOM     21  O   UNL     1       8.716  12.819  20.442  0.00  0.00    +0.000 OA
BRANCH  21  22
ATOM     22  C   UNL     1       8.827  12.879  21.865  0.00  0.00    +0.000 C 
ATOM     23  C   UNL     1       7.455  12.974  22.495  0.00  0.00    +0.000 C 
ATOM     24  C   UNL     1       8.280  11.739  22.678  0.00  0.00    +0.000 C 
ENDBRANCH  21  22
ENDBRANCH  20  21
ENDBRANCH   7  15
TORSDOF 4
ENDMDL
MODEL 2
REMARK VINA RESULT:      -5.9     10.016     12.298
REMARK  Name = 
REMARK  5 active torsions:
REMARK  status: ('A' for Active; 'I' for Inactive)
REMARK    1  A    between atoms: C_1  and  N_2
REMARK    2  A    between atoms: C_6  and  C_7
REMARK    3  A    between atoms: C_13  and  C_15
REMARK    4  A    between atoms: C_20  and  O_21
REMARK    5  A    between atoms: O_21  and  C_22
REMARK                            x       y       z     vdW  Elec       q    Type
REMARK                         _______ _______ _______ _____ _____    ______ ____
ROOT
ATOM      1  C   UNL     1       4.442   4.513  16.813  0.00  0.00    +0.000 C 
ATOM      2  C   UNL     1       4.991   3.720  15.590  0.00  0.00    +0.000 C 
ATOM      3  O   UNL     1       6.197   4.314  15.080  0.00  0.00    +0.000 OA
ATOM      4  C   UNL     1       7.224   4.273  16.076  0.00  0.00    +0.000 C 
ATOM      5  C   UNL     1       6.786   4.997  17.348  0.00  0.00    +0.000 C 
ATOM      6  N   UNL     1       5.499   4.500  17.871  0.00  0.00    +0.000 N 
ATOM      7  C   UNL     1       5.352   4.712  19.249  0.00  0.00    +0.000 C 
ATOM      8  O   UNL     1       6.205   5.343  19.881  0.00  0.00    +0.000 OA
ENDROOT
BRANCH   1  14
ATOM      9  C   UNL     1       3.658   1.534  17.530  0.00  0.00    +0.000 C 
ATOM     10  N   UNL     1       2.800   2.693  17.514  0.00  0.00    +0.000 N 
ATOM     11  N   UNL     1       1.515   2.563  17.895  0.00  0.00    +0.000 NA
ATOM     12  C   UNL     1       1.054   3.800  17.722  0.00  0.00    +0.000 A 
ATOM     13  N   UNL     1       1.977   4.703  17.288  0.00  0.00    +0.000 NA
ATOM     14  C   UNL     1       3.085   3.989  17.156  0.00  0.00    +0.000 A 
ENDBRANCH   1  14
BRANCH   7  15
ATOM     15  C   UNL     1       4.258   4.087  20.033  0.00  0.00    +0.000 A 
ATOM     16  C   UNL     1       4.358   2.753  20.440  0.00  0.00    +0.000 A 
ATOM     17  C   UNL     1       3.338   2.181  21.202  0.00  0.00    +0.000 A 
ATOM     18  C   UNL     1       2.260   2.960  21.624  0.00  0.00    +0.000 A 
ATOM     19  C   UNL     1       2.178   4.314  21.266  0.00  0.00    +0.000 A 
ATOM     20  C   UNL     1       3.169   4.876  20.459  0.00  0.00    +0.000 A 
BRANCH  20  21
ATOM     21  O   UNL     1       3.157   6.163  20.004  0.00  0.00    +0.000 OA
BRANCH  21  22
ATOM     22  C   UNL     1       1.945   6.834  19.660  0.00  0.00    +0.000 C 
ATOM     23  C   UNL     1       1.774   8.077  20.507  0.00  0.00    +0.000 C 
ATOM     24  C   UNL     1       2.030   8.200  19.037  0.00  0.00    +0.000 C 
ENDBRANCH  21  22
ENDBRANCH  20  21
ENDBRANCH   7  15
TORSDOF 4
ENDMDL
MODEL 3
REMARK VINA RESULT:      -5.9     11.224     14.149
REMARK  Name = 
REMARK  5 active torsions:
REMARK  status: ('A' for Active; 'I' for Inactive)
REMARK    1  A    between atoms: C_1  and  N_2
REMARK    2  A    between atoms: C_6  and  C_7
REMARK    3  A    between atoms: C_13  and  C_15
REMARK    4  A    between atoms: C_20  and  O_21
REMARK    5  A    between atoms: O_21  and  C_22
REMARK                            x       y       z     vdW  Elec       q    Type
REMARK                         _______ _______ _______ _____ _____    ______ ____
ROOT
ATOM      1  C   UNL     1      -4.771  12.255  19.148  0.00  0.00    +0.000 C 
ATOM      2  C   UNL     1      -5.081  10.819  18.630  0.00  0.00    +0.000 C 
ATOM      3  O   UNL     1      -4.270  10.488  17.489  0.00  0.00    +0.000 OA
ATOM      4  C   UNL     1      -2.886  10.492  17.852  0.00  0.00    +0.000 C 
ATOM      5  C   UNL     1      -2.467  11.851  18.410  0.00  0.00    +0.000 C 
ATOM      6  N   UNL     1      -3.323  12.297  19.525  0.00  0.00    +0.000 N 
ATOM      7  C   UNL     1      -2.675  13.193  20.385  0.00  0.00    +0.000 C 
ATOM      8  O   UNL     1      -1.539  13.603  20.126  0.00  0.00    +0.000 OA
ENDROOT
BRANCH   1  14
ATOM      9  C   UNL     1      -6.600  14.834  19.208  0.00  0.00    +0.000 C 
ATOM     10  N   UNL     1      -6.597  13.732  20.138  0.00  0.00    +0.000 N 
ATOM     11  N   UNL     1      -7.497  13.717  21.140  0.00  0.00    +0.000 NA
ATOM     12  C   UNL     1      -7.172  12.596  21.781  0.00  0.00    +0.000 A 
ATOM     13  N   UNL     1      -6.146  11.892  21.225  0.00  0.00    +0.000 NA
ATOM     14  C   UNL     1      -5.786  12.624  20.181  0.00  0.00    +0.000 A 
ENDBRANCH   1  14
BRANCH   7  15
ATOM     15  C   UNL     1      -3.249  13.585  21.697  0.00  0.00    +0.000 A 
ATOM     16  C   UNL     1      -3.956  14.785  21.826  0.00  0.00    +0.000 A 
ATOM     17  C   UNL     1      -4.518  15.131  23.055  0.00  0.00    +0.000 A 
ATOM     18  C   UNL     1      -4.443  14.247  24.133  0.00  0.00    +0.000 A 
ATOM     19  C   UNL     1      -3.782  13.016  23.997  0.00  0.00    +0.000 A 
ATOM     20  C   UNL     1      -3.173  12.689  22.784  0.00  0.00    +0.000 A 
BRANCH  20  21
ATOM     21  O   UNL     1      -2.455  11.549  22.563  0.00  0.00    +0.000 OA
BRANCH  21  22
ATOM     22  C   UNL     1      -1.093  11.419  22.971  0.00  0.00    +0.000 C 
ATOM     23  C   UNL     1      -0.700   9.959  23.029  0.00  0.00    +0.000 C 
ATOM     24  C   UNL     1      -0.100  10.857  21.992  0.00  0.00    +0.000 C 
ENDBRANCH  21  22
ENDBRANCH  20  21
ENDBRANCH   7  15
TORSDOF 4
ENDMDL
MODEL 4
REMARK VINA RESULT:      -5.8      2.027      5.244
REMARK  Name = 
REMARK  5 active torsions:
REMARK  status: ('A' for Active; 'I' for Inactive)
REMARK    1  A    between atoms: C_1  and  N_2
REMARK    2  A    between atoms: C_6  and  C_7
REMARK    3  A    between atoms: C_13  and  C_15
REMARK    4  A    between atoms: C_20  and  O_21
REMARK    5  A    between atoms: O_21  and  C_22
REMARK                            x       y       z     vdW  Elec       q    Type
REMARK                         _______ _______ _______ _____ _____    ______ ____
ROOT
ATOM      1  C   UNL     1       9.974  12.772  20.179  0.00  0.00    +0.000 C 
ATOM      2  C   UNL     1      11.509  12.532  20.063  0.00  0.00    +0.000 C 
ATOM      3  O   UNL     1      11.803  11.452  19.160  0.00  0.00    +0.000 OA
ATOM      4  C   UNL     1      11.349  11.776  17.843  0.00  0.00    +0.000 C 
ATOM      5  C   UNL     1       9.849  12.067  17.833  0.00  0.00    +0.000 C 
ATOM      6  N   UNL     1       9.464  13.101  18.811  0.00  0.00    +0.000 N 
ATOM      7  C   UNL     1       8.281  13.768  18.462  0.00  0.00    +0.000 C 
ATOM      8  O   UNL     1       7.627  13.412  17.477  0.00  0.00    +0.000 OA
ENDROOT
BRANCH   1  14
ATOM      9  C   UNL     1       7.953  12.451  22.590  0.00  0.00    +0.000 C 
ATOM     10  N   UNL     1       8.869  13.538  22.344  0.00  0.00    +0.000 N 
ATOM     11  N   UNL     1       8.958  14.536  23.244  0.00  0.00    +0.000 NA
ATOM     12  C   UNL     1       9.854  15.338  22.672  0.00  0.00    +0.000 A 
ATOM     13  N   UNL     1      10.355  14.889  21.487  0.00  0.00    +0.000 NA
ATOM     14  C   UNL     1       9.720  13.743  21.286  0.00  0.00    +0.000 A 
ENDBRANCH   1  14
BRANCH   7  15
ATOM     15  C   UNL     1       7.833  14.999  19.159  0.00  0.00    +0.000 A 
ATOM     16  C   UNL     1       6.809  14.936  20.110  0.00  0.00    +0.000 A 
ATOM     17  C   UNL     1       6.414  16.093  20.782  0.00  0.00    +0.000 A 
ATOM     18  C   UNL     1       7.091  17.294  20.566  0.00  0.00    +0.000 A 
ATOM     19  C   UNL     1       8.157  17.354  19.655  0.00  0.00    +0.000 A 
ATOM     20  C   UNL     1       8.520  16.211  18.940  0.00  0.00    +0.000 A 
BRANCH  20  21
ATOM     21  O   UNL     1       9.499  16.174  17.989  0.00  0.00    +0.000 OA
BRANCH  21  22
ATOM     22  C   UNL     1      10.873  16.392  18.306  0.00  0.00    +0.000 C 
ATOM     23  C   UNL     1      11.762  15.650  17.331  0.00  0.00    +0.000 C 
ATOM     24  C   UNL     1      11.728  17.147  17.327  0.00  0.00    +0.000 C 
ENDBRANCH  21  22
ENDBRANCH  20  21
ENDBRANCH   7  15
TORSDOF 4
ENDMDL
MODEL 5
REMARK VINA RESULT:      -5.7      8.487     10.544
REMARK  Name = 
REMARK  5 active torsions:
REMARK  status: ('A' for Active; 'I' for Inactive)
REMARK    1  A    between atoms: C_1  and  N_2
REMARK    2  A    between atoms: C_6  and  C_7
REMARK    3  A    between atoms: C_13  and  C_15
REMARK    4  A    between atoms: C_20  and  O_21
REMARK    5  A    between atoms: O_21  and  C_22
REMARK                            x       y       z     vdW  Elec       q    Type
REMARK                         _______ _______ _______ _____ _____    ______ ____
ROOT
ATOM      1  C   UNL     1      -1.799  14.355  22.243  0.00  0.00    +0.000 C 
ATOM      2  C   UNL     1      -1.897  14.094  23.776  0.00  0.00    +0.000 C 
ATOM      3  O   UNL     1      -3.264  13.935  24.194  0.00  0.00    +0.000 OA
ATOM      4  C   UNL     1      -3.843  12.793  23.556  0.00  0.00    +0.000 C 
ATOM      5  C   UNL     1      -3.776  12.918  22.035  0.00  0.00    +0.000 C 
ATOM      6  N   UNL     1      -2.410  13.180  21.546  0.00  0.00    +0.000 N 
ATOM      7  C   UNL     1      -2.214  12.756  20.224  0.00  0.00    +0.000 C 
ATOM      8  O   UNL     1      -3.155  12.308  19.562  0.00  0.00    +0.000 OA
ENDROOT
BRANCH   1  14
ATOM      9  C   UNL     1      -0.818  16.912  20.663  0.00  0.00    +0.000 C 
ATOM     10  N   UNL     1      -0.009  15.881  21.263  0.00  0.00    +0.000 N 
ATOM     11  N   UNL     1       1.333  15.996  21.226  0.00  0.00    +0.000 NA
ATOM     12  C   UNL     1       1.718  14.876  21.834  0.00  0.00    +0.000 A 
ATOM     13  N   UNL     1       0.703  14.082  22.278  0.00  0.00    +0.000 NA
ATOM     14  C   UNL     1      -0.392  14.729  21.907  0.00  0.00    +0.000 A 
ENDBRANCH   1  14
BRANCH   7  15
ATOM     15  C   UNL     1      -0.866  12.696  19.605  0.00  0.00    +0.000 A 
ATOM     16  C   UNL     1      -0.438  13.716  18.749  0.00  0.00    +0.000 A 
ATOM     17  C   UNL     1       0.842  13.666  18.196  0.00  0.00    +0.000 A 
ATOM     18  C   UNL     1       1.722  12.644  18.557  0.00  0.00    +0.000 A 
ATOM     19  C   UNL     1       1.319  11.646  19.458  0.00  0.00    +0.000 A 
ATOM     20  C   UNL     1       0.022  11.663  19.972  0.00  0.00    +0.000 A 
BRANCH  20  21
ATOM     21  O   UNL     1      -0.490  10.710  20.806  0.00  0.00    +0.000 OA
BRANCH  21  22
ATOM     22  C   UNL     1       0.104  10.409  22.069  0.00  0.00    +0.000 C 
ATOM     23  C   UNL     1      -0.948  10.402  23.156  0.00  0.00    +0.000 C 
ATOM     24  C   UNL     1      -0.275   9.126  22.755  0.00  0.00    +0.000 C 
ENDBRANCH  21  22
ENDBRANCH  20  21
ENDBRANCH   7  15
TORSDOF 4
ENDMDL
MODEL 6
REMARK VINA RESULT:      -5.6     11.688     14.600
REMARK  Name = 
REMARK  5 active torsions:
REMARK  status: ('A' for Active; 'I' for Inactive)
REMARK    1  A    between atoms: C_1  and  N_2
REMARK    2  A    between atoms: C_6  and  C_7
REMARK    3  A    between atoms: C_13  and  C_15
REMARK    4  A    between atoms: C_20  and  O_21
REMARK    5  A    between atoms: O_21  and  C_22
REMARK                            x       y       z     vdW  Elec       q    Type
REMARK                         _______ _______ _______ _____ _____    ______ ____
ROOT
ATOM      1  C   UNL     1      -2.327  12.228  21.748  0.00  0.00    +0.000 C 
ATOM      2  C   UNL     1      -0.865  12.762  21.807  0.00  0.00    +0.000 C 
ATOM      3  O   UNL     1      -0.063  12.212  20.748  0.00  0.00    +0.000 OA
ATOM      4  C   UNL     1      -0.585  12.614  19.478  0.00  0.00    +0.000 C 
ATOM      5  C   UNL     1      -2.037  12.171  19.313  0.00  0.00    +0.000 C 
ATOM      6  N   UNL     1      -2.898  12.622  20.423  0.00  0.00    +0.000 N 
ATOM      7  C   UNL     1      -4.247  12.732  20.056  0.00  0.00    +0.000 C 
ATOM      8  O   UNL     1      -4.623  12.379  18.934  0.00  0.00    +0.000 OA
ENDROOT
BRANCH   1  14
ATOM      9  C   UNL     1      -2.235  15.063  23.145  0.00  0.00    +0.000 C 
ATOM     10  N   UNL     1      -3.017  13.915  23.529  0.00  0.00    +0.000 N 
ATOM     11  N   UNL     1      -3.871  14.021  24.566  0.00  0.00    +0.000 NA
ATOM     12  C   UNL     1      -4.371  12.789  24.632  0.00  0.00    +0.000 A 
ATOM     13  N   UNL     1      -3.909  11.928  23.683  0.00  0.00    +0.000 NA
ATOM     14  C   UNL     1      -3.046  12.653  22.988  0.00  0.00    +0.000 A 
ENDBRANCH   1  14
BRANCH   7  15
ATOM     15  C   UNL     1      -5.251  13.393  20.926  0.00  0.00    +0.000 A 
ATOM     16  C   UNL     1      -5.165  14.764  21.184  0.00  0.00    +0.000 A 
ATOM     17  C   UNL     1      -6.131  15.383  21.980  0.00  0.00    +0.000 A 
ATOM     18  C   UNL     1      -7.222  14.652  22.451  0.00  0.00    +0.000 A 
ATOM     19  C   UNL     1      -7.345  13.287  22.152  0.00  0.00    +0.000 A 
ATOM     20  C   UNL     1      -6.354  12.652  21.401  0.00  0.00    +0.000 A 
BRANCH  20  21
ATOM     21  O   UNL     1      -6.345  11.320  21.104  0.00  0.00    +0.000 OA
BRANCH  21  22
ATOM     22  C   UNL     1      -7.458  10.672  20.488  0.00  0.00    +0.000 C 
ATOM     23  C   UNL     1      -7.002   9.869  19.290  0.00  0.00    +0.000 C 
ATOM     24  C   UNL     1      -7.519   9.170  20.508  0.00  0.00    +0.000 C 
ENDBRANCH  21  22
ENDBRANCH  20  21
ENDBRANCH   7  15
TORSDOF 4
ENDMDL
MODEL 7
REMARK VINA RESULT:      -5.6      1.948      3.816
REMARK  Name = 
REMARK  5 active torsions:
REMARK  status: ('A' for Active; 'I' for Inactive)
REMARK    1  A    between atoms: C_1  and  N_2
REMARK    2  A    between atoms: C_6  and  C_7
REMARK    3  A    between atoms: C_13  and  C_15
REMARK    4  A    between atoms: C_20  and  O_21
REMARK    5  A    between atoms: O_21  and  C_22
REMARK                            x       y       z     vdW  Elec       q    Type
REMARK                         _______ _______ _______ _____ _____    ______ ____
ROOT
ATOM      1  C   UNL     1       9.204  14.098  18.053  0.00  0.00    +0.000 C 
ATOM      2  C   UNL     1       7.844  13.386  17.789  0.00  0.00    +0.000 C 
ATOM      3  O   UNL     1       8.035  12.119  17.136  0.00  0.00    +0.000 OA
ATOM      4  C   UNL     1       8.789  11.241  17.978  0.00  0.00    +0.000 C 
ATOM      5  C   UNL     1      10.143  11.850  18.337  0.00  0.00    +0.000 C 
ATOM      6  N   UNL     1      10.023  13.198  18.923  0.00  0.00    +0.000 N 
ATOM      7  C   UNL     1      11.111  13.535  19.742  0.00  0.00    +0.000 C 
ATOM      8  O   UNL     1      12.081  12.777  19.840  0.00  0.00    +0.000 OA
ENDROOT
BRANCH   1  14
ATOM      9  C   UNL     1      10.479  16.776  16.956  0.00  0.00    +0.000 C 
ATOM     10  N   UNL     1       9.474  16.632  17.980  0.00  0.00    +0.000 N 
ATOM     11  N   UNL     1       8.937  17.737  18.531  0.00  0.00    +0.000 NA
ATOM     12  C   UNL     1       8.099  17.214  19.425  0.00  0.00    +0.000 A 
ATOM     13  N   UNL     1       8.054  15.853  19.445  0.00  0.00    +0.000 NA
ATOM     14  C   UNL     1       8.935  15.491  18.524  0.00  0.00    +0.000 A 
ENDBRANCH   1  14
BRANCH   7  15
ATOM     15  C   UNL     1      11.096  14.729  20.623  0.00  0.00    +0.000 A 
ATOM     16  C   UNL     1      11.806  15.879  20.261  0.00  0.00    +0.000 A 
ATOM     17  C   UNL     1      11.763  17.008  21.081  0.00  0.00    +0.000 A 
ATOM     18  C   UNL     1      10.951  17.018  22.216  0.00  0.00    +0.000 A 
ATOM     19  C   UNL     1      10.193  15.887  22.557  0.00  0.00    +0.000 A 
ATOM     20  C   UNL     1      10.274  14.738  21.769  0.00  0.00    +0.000 A 
BRANCH  20  21
ATOM     21  O   UNL     1       9.627  13.567  22.042  0.00  0.00    +0.000 OA
BRANCH  21  22
ATOM     22  C   UNL     1       8.210  13.503  22.203  0.00  0.00    +0.000 C 
ATOM     23  C   UNL     1       7.801  12.145  22.729  0.00  0.00    +0.000 C 
ATOM     24  C   UNL     1       7.648  13.360  23.590  0.00  0.00    +0.000 C 
ENDBRANCH  21  22
ENDBRANCH  20  21
ENDBRANCH   7  15
TORSDOF 4
ENDMDL
MODEL 8
REMARK VINA RESULT:      -5.6     11.654     14.495
REMARK  Name = 
REMARK  5 active torsions:
REMARK  status: ('A' for Active; 'I' for Inactive)
REMARK    1  A    between atoms: C_1  and  N_2
REMARK    2  A    between atoms: C_6  and  C_7
REMARK    3  A    between atoms: C_13  and  C_15
REMARK    4  A    between atoms: C_20  and  O_21
REMARK    5  A    between atoms: O_21  and  C_22
REMARK                            x       y       z     vdW  Elec       q    Type
REMARK                         _______ _______ _______ _____ _____    ______ ____
ROOT
ATOM      1  C   UNL     1      -4.206  11.647  18.249  0.00  0.00    +0.000 C 
ATOM      2  C   UNL     1      -4.005  10.131  17.955  0.00  0.00    +0.000 C 
ATOM      3  O   UNL     1      -2.758   9.889  17.280  0.00  0.00    +0.000 OA
ATOM      4  C   UNL     1      -1.664  10.283  18.114  0.00  0.00    +0.000 C 
ATOM      5  C   UNL     1      -1.768  11.757  18.501  0.00  0.00    +0.000 C 
ATOM      6  N   UNL     1      -3.067  12.094  19.112  0.00  0.00    +0.000 N 
ATOM      7  C   UNL     1      -3.001  13.216  19.950  0.00  0.00    +0.000 C 
ATOM      8  O   UNL     1      -1.956  13.867  20.046  0.00  0.00    +0.000 OA
ENDROOT
BRANCH   1  14
ATOM      9  C   UNL     1      -6.401  13.570  17.032  0.00  0.00    +0.000 C 
ATOM     10  N   UNL     1      -6.538  12.669  18.149  0.00  0.00    +0.000 N 
ATOM     11  N   UNL     1      -7.737  12.549  18.750  0.00  0.00    +0.000 NA
ATOM     12  C   UNL     1      -7.468  11.679  19.722  0.00  0.00    +0.000 A 
ATOM     13  N   UNL     1      -6.184  11.223  19.747  0.00  0.00    +0.000 NA
ATOM     14  C   UNL     1      -5.600  11.861  18.743  0.00  0.00    +0.000 A 
ENDBRANCH   1  14
BRANCH   7  15
ATOM     15  C   UNL     1      -4.116  13.594  20.854  0.00  0.00    +0.000 A 
ATOM     16  C   UNL     1      -5.005  14.609  20.488  0.00  0.00    +0.000 A 
ATOM     17  C   UNL     1      -6.068  14.938  21.330  0.00  0.00    +0.000 A 
ATOM     18  C   UNL     1      -6.290  14.204  22.496  0.00  0.00    +0.000 A 
ATOM     19  C   UNL     1      -5.435  13.147  22.843  0.00  0.00    +0.000 A 
ATOM     20  C   UNL     1      -4.339  12.850  22.031  0.00  0.00    +0.000 A 
BRANCH  20  21
ATOM     21  O   UNL     1      -3.413  11.885  22.307  0.00  0.00    +0.000 OA
BRANCH  21  22
ATOM     22  C   UNL     1      -2.481  12.013  23.380  0.00  0.00    +0.000 C 
ATOM     23  C   UNL     1      -1.092  11.630  22.919  0.00  0.00    +0.000 C 
ATOM     24  C   UNL     1      -1.399  13.051  23.275  0.00  0.00    +0.000 C 
ENDBRANCH  21  22
ENDBRANCH  20  21
ENDBRANCH   7  15
TORSDOF 4
ENDMDL
MODEL 9
REMARK VINA RESULT:      -5.6      2.298      4.467
REMARK  Name = 
REMARK  5 active torsions:
REMARK  status: ('A' for Active; 'I' for Inactive)
REMARK    1  A    between atoms: C_1  and  N_2
REMARK    2  A    between atoms: C_6  and  C_7
REMARK    3  A    between atoms: C_13  and  C_15
REMARK    4  A    between atoms: C_20  and  O_21
REMARK    5  A    between atoms: O_21  and  C_22
REMARK                            x       y       z     vdW  Elec       q    Type
REMARK                         _______ _______ _______ _____ _____    ______ ____
ROOT
ATOM      1  C   UNL     1       6.567  14.542  21.468  0.00  0.00    +0.000 C 
ATOM      2  C   UNL     1       5.434  15.095  22.383  0.00  0.00    +0.000 C 
ATOM      3  O   UNL     1       4.747  14.032  23.065  0.00  0.00    +0.000 OA
ATOM      4  C   UNL     1       5.651  13.334  23.926  0.00  0.00    +0.000 C 
ATOM      5  C   UNL     1       6.834  12.769  23.142  0.00  0.00    +0.000 C 
ATOM      6  N   UNL     1       7.527  13.795  22.340  0.00  0.00    +0.000 N 
ATOM      7  C   UNL     1       8.866  13.470  22.080  0.00  0.00    +0.000 C 
ATOM      8  O   UNL     1       9.327  12.379  22.429  0.00  0.00    +0.000 OA
ENDROOT
BRANCH   1  14
ATOM      9  C   UNL     1       6.955  14.561  18.330  0.00  0.00    +0.000 C 
ATOM     10  N   UNL     1       7.195  15.640  19.255  0.00  0.00    +0.000 N 
ATOM     11  N   UNL     1       7.577  16.841  18.778  0.00  0.00    +0.000 NA
ATOM     12  C   UNL     1       7.724  17.544  19.899  0.00  0.00    +0.000 A 
ATOM     13  N   UNL     1       7.427  16.871  21.045  0.00  0.00    +0.000 NA
ATOM     14  C   UNL     1       7.094  15.659  20.625  0.00  0.00    +0.000 A 
ENDBRANCH   1  14
BRANCH   7  15
ATOM     15  C   UNL     1       9.819  14.452  21.505  0.00  0.00    +0.000 A 
ATOM     16  C   UNL     1      10.289  15.515  22.283  0.00  0.00    +0.000 A 
ATOM     17  C   UNL     1      11.208  16.416  21.744  0.00  0.00    +0.000 A 
ATOM     18  C   UNL     1      11.718  16.213  20.461  0.00  0.00    +0.000 A 
ATOM     19  C   UNL     1      11.293  15.118  19.693  0.00  0.00    +0.000 A 
ATOM     20  C   UNL     1      10.334  14.244  20.208  0.00  0.00    +0.000 A 
BRANCH  20  21
ATOM     21  O   UNL     1       9.808  13.185  19.525  0.00  0.00    +0.000 OA
BRANCH  21  22
ATOM     22  C   UNL     1      10.596  12.051  19.161  0.00  0.00    +0.000 C 
ATOM     23  C   UNL     1       9.749  10.798  19.169  0.00  0.00    +0.000 C 
ATOM     24  C   UNL     1      10.279  11.337  17.877  0.00  0.00    +0.000 C 
ENDBRANCH  21  22
ENDBRANCH  20  21
ENDBRANCH   7  15
TORSDOF 4
ENDMDL
