MODEL 1
REMARK VINA RESULT:      -5.9      0.000      0.000
REMARK  Name = 
REMARK  11 active torsions:
REMARK  status: ('A' for Active; 'I' for Inactive)
REMARK    1  A    between atoms: C_1  and  O_2
REMARK    2  A    between atoms: O_2  and  C_3
REMARK    3  A    between atoms: C_3  and  C_4
REMARK    4  A    between atoms: C_4  and  N_5
REMARK    5  A    between atoms: C_6  and  C_7
REMARK    6  A    between atoms: C_7  and  O_8
REMARK    7  A    between atoms: C_11  and  C_12
REMARK    8  A    between atoms: C_14  and  N_15
REMARK    9  A    between atoms: C_16  and  C_18
REMARK   10  A    between atoms: N_21  and  C_22
REMARK   11  A    between atoms: C_23  and  C_24
REMARK                            x       y       z     vdW  Elec       q    Type
REMARK                         _______ _______ _______ _____ _____    ______ ____
ROOT
ATOM      1  C   UNL     1       1.323   5.748  20.752  0.00  0.00    +0.000 C 
ATOM      2  C   UNL     1       1.234   4.533  19.793  0.00  0.00    +0.000 C 
ATOM      3  C   UNL     1       2.664   4.122  20.163  0.00  0.00    +0.000 C 
ATOM      4  C   UNL     1       2.591   5.088  21.356  0.00  0.00    +0.000 C 
ENDROOT
BRANCH   1   9
ATOM      5  N   UNL     1       1.080   8.305  20.324  0.00  0.00    +0.000 N 
ATOM      6  C   UNL     1       1.487   9.136  19.306  0.00  0.00    +0.000 A 
ATOM      7  N   UNL     1       2.218   8.436  18.458  0.00  0.00    +0.000 NA
ATOM      8  N   UNL     1       2.267   7.142  18.896  0.00  0.00    +0.000 NA
ATOM      9  C   UNL     1       1.570   7.060  20.009  0.00  0.00    +0.000 A 
BRANCH   5  10
ATOM     10  C   UNL     1       0.213   8.629  21.436  0.00  0.00    +0.000 C 
BRANCH  10  11
ATOM     11  C   UNL     1       0.925   9.307  22.607  0.00  0.00    +0.000 C 
BRANCH  11  13
ATOM     12  C   UNL     1      -0.916  10.733  23.015  0.00  0.00    +0.000 C 
ATOM     13  O   UNL     1      -0.058   9.734  23.555  0.00  0.00    +0.000 OA
ENDBRANCH  11  13
ENDBRANCH  10  11
ENDBRANCH   5  10
BRANCH   6  14
ATOM     14  C   UNL     1       1.180  10.582  19.177  0.00  0.00    +0.000 C 
BRANCH  14  15
ATOM     15  O   UNL     1       0.254  10.754  18.111  0.00  0.00    +0.000 OA
ATOM     16  H   UNL     1       0.360  11.674  17.806  0.00  0.00    +0.000 HD
ENDBRANCH  14  15
ENDBRANCH   6  14
ENDBRANCH   1   9
BRANCH   3  17
ATOM     17  N   UNL     1       3.692   4.482  19.174  0.00  0.00    +0.000 N 
ATOM     18  C   UNL     1       4.887   3.798  19.106  0.00  0.00    +0.000 C 
ATOM     19  O   UNL     1       5.119   2.818  19.813  0.00  0.00    +0.000 OA
ATOM     20  H   UNL     1       3.602   5.331  18.625  0.00  0.00    +0.000 HD
BRANCH  18  21
ATOM     21  C   UNL     1       5.844   4.303  18.120  0.00  0.00    +0.000 A 
ATOM     22  C   UNL     1       7.115   4.913  18.330  0.00  0.00    +0.000 A 
ATOM     23  C   UNL     1       7.655   5.203  17.097  0.00  0.00    +0.000 A 
ATOM     24  N   UNL     1       6.771   4.787  16.139  0.00  0.00    +0.000 N 
ATOM     25  C   UNL     1       7.002   4.896  14.714  0.00  0.00    +0.000 C 
ATOM     26  C   UNL     1       5.654   4.252  16.739  0.00  0.00    +0.000 A 
ATOM     27  C   UNL     1       4.474   3.736  15.983  0.00  0.00    +0.000 C 
ENDBRANCH  18  21
ENDBRANCH   3  17
TORSDOF 8
ENDMDL
MODEL 2
REMARK VINA RESULT:      -5.8      2.100      8.096
REMARK  Name = 
REMARK  11 active torsions:
REMARK  status: ('A' for Active; 'I' for Inactive)
REMARK    1  A    between atoms: C_1  and  O_2
REMARK    2  A    between atoms: O_2  and  C_3
REMARK    3  A    between atoms: C_3  and  C_4
REMARK    4  A    between atoms: C_4  and  N_5
REMARK    5  A    between atoms: C_6  and  C_7
REMARK    6  A    between atoms: C_7  and  O_8
REMARK    7  A    between atoms: C_11  and  C_12
REMARK    8  A    between atoms: C_14  and  N_15
REMARK    9  A    between atoms: C_16  and  C_18
REMARK   10  A    between atoms: N_21  and  C_22
REMARK   11  A    between atoms: C_23  and  C_24
REMARK                            x       y       z     vdW  Elec       q    Type
REMARK                         _______ _______ _______ _____ _____    ______ ____
ROOT
ATOM      1  C   UNL     1       2.960   6.293  17.945  0.00  0.00    +0.000 C 
ATOM      2  C   UNL     1       1.736   7.098  17.437  0.00  0.00    +0.000 C 
ATOM      3  C   UNL     1       2.287   8.369  18.096  0.00  0.00    +0.000 C 
ATOM      4  C   UNL     1       3.636   7.653  18.259  0.00  0.00    +0.000 C 
ENDROOT
BRANCH   1   9
ATOM      5  N   UNL     1       3.248   4.278  19.570  0.00  0.00    +0.000 N 
ATOM      6  C   UNL     1       2.529   3.828  20.654  0.00  0.00    +0.000 A 
ATOM      7  N   UNL     1       1.566   4.696  20.911  0.00  0.00    +0.000 NA
ATOM      8  N   UNL     1       1.629   5.697  19.982  0.00  0.00    +0.000 NA
ATOM      9  C   UNL     1       2.629   5.438  19.168  0.00  0.00    +0.000 A 
BRANCH   5  10
ATOM     10  C   UNL     1       4.349   3.619  18.904  0.00  0.00    +0.000 C 
BRANCH  10  11
ATOM     11  C   UNL     1       5.676   4.373  18.994  0.00  0.00    +0.000 C 
BRANCH  11  13
ATOM     12  C   UNL     1       7.577   4.574  17.602  0.00  0.00    +0.000 C 
ATOM     13  O   UNL     1       6.155   4.617  17.668  0.00  0.00    +0.000 OA
ENDBRANCH  11  13
ENDBRANCH  10  11
ENDBRANCH   5  10
BRANCH   6  14
ATOM     14  C   UNL     1       2.789   2.588  21.425  0.00  0.00    +0.000 C 
BRANCH  14  15
ATOM     15  O   UNL     1       1.650   2.309  22.231  0.00  0.00    +0.000 OA
ATOM     16  H   UNL     1       0.961   1.985  21.624  0.00  0.00    +0.000 HD
ENDBRANCH  14  15
ENDBRANCH   6  14
ENDBRANCH   1   9
BRANCH   3  17
ATOM     17  N   UNL     1       1.653   8.733  19.374  0.00  0.00    +0.000 N 
ATOM     18  C   UNL     1       0.610   9.633  19.422  0.00  0.00    +0.000 C 
ATOM     19  O   UNL     1       0.117  10.115  18.404  0.00  0.00    +0.000 OA
ATOM     20  H   UNL     1       2.067   8.441  20.253  0.00  0.00    +0.000 HD
BRANCH  18  21
ATOM     21  C   UNL     1       0.119   9.952  20.764  0.00  0.00    +0.000 A 
ATOM     22  C   UNL     1       0.270   9.217  21.976  0.00  0.00    +0.000 A 
ATOM     23  C   UNL     1      -0.348   9.927  22.981  0.00  0.00    +0.000 A 
ATOM     24  N   UNL     1      -0.862  11.072  22.438  0.00  0.00    +0.000 N 
ATOM     25  C   UNL     1      -1.560  12.091  23.193  0.00  0.00    +0.000 C 
ATOM     26  C   UNL     1      -0.605  11.100  21.086  0.00  0.00    +0.000 A 
ATOM     27  C   UNL     1      -1.063  12.194  20.179  0.00  0.00    +0.000 C 
ENDBRANCH  18  21
ENDBRANCH   3  17
TORSDOF 8
ENDMDL
MODEL 3
REMARK VINA RESULT:      -5.8      2.797      8.128
REMARK  Name = 
REMARK  11 active torsions:
REMARK  status: ('A' for Active; 'I' for Inactive)
REMARK    1  A    between atoms: C_1  and  O_2
REMARK    2  A    between atoms: O_2  and  C_3
REMARK    3  A    between atoms: C_3  and  C_4
REMARK    4  A    between atoms: C_4  and  N_5
REMARK    5  A    between atoms: C_6  and  C_7
REMARK    6  A    between atoms: C_7  and  O_8
REMARK    7  A    between atoms: C_11  and  C_12
REMARK    8  A    between atoms: C_14  and  N_15
REMARK    9  A    between atoms: C_16  and  C_18
REMARK   10  A    between atoms: N_21  and  C_22
REMARK   11  A    between atoms: C_23  and  C_24
REMARK                            x       y       z     vdW  Elec       q    Type
REMARK                         _______ _______ _______ _____ _____    ______ ____
ROOT
ATOM      1  C   UNL     1       2.654   6.508  17.878  0.00  0.00    +0.000 C 
ATOM      2  C   UNL     1       1.450   7.343  17.373  0.00  0.00    +0.000 C 
ATOM      3  C   UNL     1       2.057   8.610  17.989  0.00  0.00    +0.000 C 
ATOM      4  C   UNL     1       3.383   7.851  18.146  0.00  0.00    +0.000 C 
ENDROOT
BRANCH   1   9
ATOM      5  N   UNL     1       1.946   4.374  19.193  0.00  0.00    +0.000 N 
ATOM      6  C   UNL     1       1.644   4.134  20.514  0.00  0.00    +0.000 A 
ATOM      7  N   UNL     1       1.867   5.238  21.204  0.00  0.00    +0.000 NA
ATOM      8  N   UNL     1       2.284   6.211  20.339  0.00  0.00    +0.000 NA
ATOM      9  C   UNL     1       2.316   5.696  19.129  0.00  0.00    +0.000 A 
BRANCH   5  10
ATOM     10  C   UNL     1       1.793   3.471  18.073  0.00  0.00    +0.000 C 
BRANCH  10  11
ATOM     11  C   UNL     1       3.085   2.769  17.655  0.00  0.00    +0.000 C 
BRANCH  11  13
ATOM     12  C   UNL     1       4.354   1.908  19.454  0.00  0.00    +0.000 C 
ATOM     13  O   UNL     1       3.305   1.655  18.525  0.00  0.00    +0.000 OA
ENDBRANCH  11  13
ENDBRANCH  10  11
ENDBRANCH   5  10
BRANCH   6  14
ATOM     14  C   UNL     1       1.164   2.852  21.085  0.00  0.00    +0.000 C 
BRANCH  14  15
ATOM     15  O   UNL     1       2.037   2.474  22.143  0.00  0.00    +0.000 OA
ATOM     16  H   UNL     1       2.582   1.743  21.798  0.00  0.00    +0.000 HD
ENDBRANCH  14  15
ENDBRANCH   6  14
ENDBRANCH   1   9
BRANCH   3  17
ATOM     17  N   UNL     1       1.461   9.028  19.268  0.00  0.00    +0.000 N 
ATOM     18  C   UNL     1       0.345   9.837  19.305  0.00  0.00    +0.000 C 
ATOM     19  O   UNL     1      -0.241  10.185  18.282  0.00  0.00    +0.000 OA
ATOM     20  H   UNL     1       1.945   8.850  20.142  0.00  0.00    +0.000 HD
BRANCH  18  21
ATOM     21  C   UNL     1      -0.101  10.228  20.643  0.00  0.00    +0.000 A 
ATOM     22  C   UNL     1      -0.195   9.439  21.827  0.00  0.00    +0.000 A 
ATOM     23  C   UNL     1      -0.650  10.252  22.842  0.00  0.00    +0.000 A 
ATOM     24  N   UNL     1      -0.829  11.509  22.331  0.00  0.00    +0.000 N 
ATOM     25  C   UNL     1      -1.272  12.648  23.107  0.00  0.00    +0.000 C 
ATOM     26  C   UNL     1      -0.519  11.513  20.990  0.00  0.00    +0.000 A 
ATOM     27  C   UNL     1      -0.641  12.718  20.116  0.00  0.00    +0.000 C 
ENDBRANCH  18  21
ENDBRANCH   3  17
TORSDOF 8
ENDMDL
MODEL 4
REMARK VINA RESULT:      -5.8      2.662      7.993
REMARK  Name = 
REMARK  11 active torsions:
REMARK  status: ('A' for Active; 'I' for Inactive)
REMARK    1  A    between atoms: C_1  and  O_2
REMARK    2  A    between atoms: O_2  and  C_3
REMARK    3  A    between atoms: C_3  and  C_4
REMARK    4  A    between atoms: C_4  and  N_5
REMARK    5  A    between atoms: C_6  and  C_7
REMARK    6  A    between atoms: C_7  and  O_8
REMARK    7  A    between atoms: C_11  and  C_12
REMARK    8  A    between atoms: C_14  and  N_15
REMARK    9  A    between atoms: C_16  and  C_18
REMARK   10  A    between atoms: N_21  and  C_22
REMARK   11  A    between atoms: C_23  and  C_24
REMARK                            x       y       z     vdW  Elec       q    Type
REMARK                         _______ _______ _______ _____ _____    ______ ____
ROOT
ATOM      1  C   UNL     1       3.004   6.321  17.984  0.00  0.00    +0.000 C 
ATOM      2  C   UNL     1       1.719   7.015  17.464  0.00  0.00    +0.000 C 
ATOM      3  C   UNL     1       2.213   8.361  18.009  0.00  0.00    +0.000 C 
ATOM      4  C   UNL     1       3.607   7.738  18.175  0.00  0.00    +0.000 C 
ENDROOT
BRANCH   1   9
ATOM      5  N   UNL     1       3.157   4.257  19.564  0.00  0.00    +0.000 N 
ATOM      6  C   UNL     1       2.616   3.968  20.797  0.00  0.00    +0.000 A 
ATOM      7  N   UNL     1       1.978   5.037  21.238  0.00  0.00    +0.000 NA
ATOM      8  N   UNL     1       2.069   6.016  20.288  0.00  0.00    +0.000 NA
ATOM      9  C   UNL     1       2.763   5.543  19.277  0.00  0.00    +0.000 A 
BRANCH   5  10
ATOM     10  C   UNL     1       3.883   3.366  18.687  0.00  0.00    +0.000 C 
BRANCH  10  11
ATOM     11  C   UNL     1       3.054   2.195  18.158  0.00  0.00    +0.000 C 
BRANCH  11  13
ATOM     12  C   UNL     1       0.717   2.175  18.515  0.00  0.00    +0.000 C 
ATOM     13  O   UNL     1       1.783   2.691  17.726  0.00  0.00    +0.000 OA
ENDBRANCH  11  13
ENDBRANCH  10  11
ENDBRANCH   5  10
BRANCH   6  14
ATOM     14  C   UNL     1       2.737   2.683  21.528  0.00  0.00    +0.000 C 
BRANCH  14  15
ATOM     15  O   UNL     1       1.524   2.448  22.232  0.00  0.00    +0.000 OA
ATOM     16  H   UNL     1       1.677   1.659  22.783  0.00  0.00    +0.000 HD
ENDBRANCH  14  15
ENDBRANCH   6  14
ENDBRANCH   1   9
BRANCH   3  17
ATOM     17  N   UNL     1       1.600   8.782  19.279  0.00  0.00    +0.000 N 
ATOM     18  C   UNL     1       0.568   9.696  19.304  0.00  0.00    +0.000 C 
ATOM     19  O   UNL     1       0.068  10.143  18.274  0.00  0.00    +0.000 OA
ATOM     20  H   UNL     1       2.021   8.520  20.164  0.00  0.00    +0.000 HD
BRANCH  18  21
ATOM     21  C   UNL     1       0.097  10.073  20.638  0.00  0.00    +0.000 A 
ATOM     22  C   UNL     1       0.105   9.312  21.844  0.00  0.00    +0.000 A 
ATOM     23  C   UNL     1      -0.424  10.098  22.843  0.00  0.00    +0.000 A 
ATOM     24  N   UNL     1      -0.747  11.313  22.302  0.00  0.00    +0.000 N 
ATOM     25  C   UNL     1      -1.302  12.418  23.054  0.00  0.00    +0.000 C 
ATOM     26  C   UNL     1      -0.455  11.314  20.957  0.00  0.00    +0.000 A 
ATOM     27  C   UNL     1      -0.720  12.473  20.054  0.00  0.00    +0.000 C 
ENDBRANCH  18  21
ENDBRANCH   3  17
TORSDOF 8
ENDMDL
MODEL 5
REMARK VINA RESULT:      -5.7      2.210      8.152
REMARK  Name = 
REMARK  11 active torsions:
REMARK  status: ('A' for Active; 'I' for Inactive)
REMARK    1  A    between atoms: C_1  and  O_2
REMARK    2  A    between atoms: O_2  and  C_3
REMARK    3  A    between atoms: C_3  and  C_4
REMARK    4  A    between atoms: C_4  and  N_5
REMARK    5  A    between atoms: C_6  and  C_7
REMARK    6  A    between atoms: C_7  and  O_8
REMARK    7  A    between atoms: C_11  and  C_12
REMARK    8  A    between atoms: C_14  and  N_15
REMARK    9  A    between atoms: C_16  and  C_18
REMARK   10  A    between atoms: N_21  and  C_22
REMARK   11  A    between atoms: C_23  and  C_24
REMARK                            x       y       z     vdW  Elec       q    Type
REMARK                         _______ _______ _______ _____ _____    ______ ____
ROOT
ATOM      1  C   UNL     1       2.806   6.529  17.868  0.00  0.00    +0.000 C 
ATOM      2  C   UNL     1       1.576   7.341  17.388  0.00  0.00    +0.000 C 
ATOM      3  C   UNL     1       2.111   8.591  18.098  0.00  0.00    +0.000 C 
ATOM      4  C   UNL     1       3.468   7.883  18.237  0.00  0.00    +0.000 C 
ENDROOT
BRANCH   1   9
ATOM      5  N   UNL     1       2.328   4.258  19.050  0.00  0.00    +0.000 N 
ATOM      6  C   UNL     1       1.936   3.920  20.325  0.00  0.00    +0.000 A 
ATOM      7  N   UNL     1       1.904   5.017  21.060  0.00  0.00    +0.000 NA
ATOM      8  N   UNL     1       2.241   6.078  20.267  0.00  0.00    +0.000 NA
ATOM      9  C   UNL     1       2.480   5.625  19.056  0.00  0.00    +0.000 A 
BRANCH   5  10
ATOM     10  C   UNL     1       2.439   3.388  17.900  0.00  0.00    +0.000 C 
BRANCH  10  11
ATOM     11  C   UNL     1       3.848   2.843  17.663  0.00  0.00    +0.000 C 
BRANCH  11  13
ATOM     12  C   UNL     1       5.624   4.351  17.257  0.00  0.00    +0.000 C 
ATOM     13  O   UNL     1       4.504   3.672  16.698  0.00  0.00    +0.000 OA
ENDBRANCH  11  13
ENDBRANCH  10  11
ENDBRANCH   5  10
BRANCH   6  14
ATOM     14  C   UNL     1       1.618   2.556  20.812  0.00  0.00    +0.000 C 
BRANCH  14  15
ATOM     15  O   UNL     1       1.491   2.600  22.228  0.00  0.00    +0.000 OA
ATOM     16  H   UNL     1       2.302   3.026  22.561  0.00  0.00    +0.000 HD
ENDBRANCH  14  15
ENDBRANCH   6  14
ENDBRANCH   1   9
BRANCH   3  17
ATOM     17  N   UNL     1       1.471   8.899  19.387  0.00  0.00    +0.000 N 
ATOM     18  C   UNL     1       0.427   9.795  19.468  0.00  0.00    +0.000 C 
ATOM     19  O   UNL     1      -0.062  10.319  18.470  0.00  0.00    +0.000 OA
ATOM     20  H   UNL     1       1.882   8.570  20.255  0.00  0.00    +0.000 HD
BRANCH  18  21
ATOM     21  C   UNL     1      -0.071  10.055  20.820  0.00  0.00    +0.000 A 
ATOM     22  C   UNL     1       0.021   9.240  21.986  0.00  0.00    +0.000 A 
ATOM     23  C   UNL     1      -0.578   9.917  23.025  0.00  0.00    +0.000 A 
ATOM     24  N   UNL     1      -1.025  11.119  22.546  0.00  0.00    +0.000 N 
ATOM     25  C   UNL     1      -1.685  12.123  23.353  0.00  0.00    +0.000 C 
ATOM     26  C   UNL     1      -0.744  11.216  21.202  0.00  0.00    +0.000 A 
ATOM     27  C   UNL     1      -1.130  12.386  20.358  0.00  0.00    +0.000 C 
ENDBRANCH  18  21
ENDBRANCH   3  17
TORSDOF 8
ENDMDL
MODEL 6
REMARK VINA RESULT:      -5.7      2.450      7.166
REMARK  Name = 
REMARK  11 active torsions:
REMARK  status: ('A' for Active; 'I' for Inactive)
REMARK    1  A    between atoms: C_1  and  O_2
REMARK    2  A    between atoms: O_2  and  C_3
REMARK    3  A    between atoms: C_3  and  C_4
REMARK    4  A    between atoms: C_4  and  N_5
REMARK    5  A    between atoms: C_6  and  C_7
REMARK    6  A    between atoms: C_7  and  O_8
REMARK    7  A    between atoms: C_11  and  C_12
REMARK    8  A    between atoms: C_14  and  N_15
REMARK    9  A    between atoms: C_16  and  C_18
REMARK   10  A    between atoms: N_21  and  C_22
REMARK   11  A    between atoms: C_23  and  C_24
REMARK                            x       y       z     vdW  Elec       q    Type
REMARK                         _______ _______ _______ _____ _____    ______ ____
ROOT
ATOM      1  C   UNL     1       4.413   3.260  18.364  0.00  0.00    +0.000 C 
ATOM      2  C   UNL     1       3.107   3.451  19.176  0.00  0.00    +0.000 C 
ATOM      3  C   UNL     1       2.403   4.006  17.932  0.00  0.00    +0.000 C 
ATOM      4  C   UNL     1       3.565   3.468  17.082  0.00  0.00    +0.000 C 
ENDROOT
BRANCH   1   9
ATOM      5  N   UNL     1       6.037   5.196  17.734  0.00  0.00    +0.000 N 
ATOM      6  C   UNL     1       6.959   5.927  18.448  0.00  0.00    +0.000 A 
ATOM      7  N   UNL     1       6.881   5.576  19.719  0.00  0.00    +0.000 NA
ATOM      8  N   UNL     1       5.936   4.596  19.839  0.00  0.00    +0.000 NA
ATOM      9  C   UNL     1       5.440   4.356  18.644  0.00  0.00    +0.000 A 
BRANCH   5  10
ATOM     10  C   UNL     1       5.816   5.207  16.304  0.00  0.00    +0.000 C 
BRANCH  10  11
ATOM     11  C   UNL     1       6.940   4.560  15.493  0.00  0.00    +0.000 C 
BRANCH  11  13
ATOM     12  C   UNL     1       5.610   3.911  13.649  0.00  0.00    +0.000 C 
ATOM     13  O   UNL     1       6.668   4.750  14.101  0.00  0.00    +0.000 OA
ENDBRANCH  11  13
ENDBRANCH  10  11
ENDBRANCH   5  10
BRANCH   6  14
ATOM     14  C   UNL     1       7.879   6.952  17.900  0.00  0.00    +0.000 C 
BRANCH  14  15
ATOM     15  O   UNL     1       8.609   7.527  18.977  0.00  0.00    +0.000 OA
ATOM     16  H   UNL     1       7.974   8.071  19.477  0.00  0.00    +0.000 HD
ENDBRANCH  14  15
ENDBRANCH   6  14
ENDBRANCH   1   9
BRANCH   3  17
ATOM     17  N   UNL     1       2.272   5.472  17.891  0.00  0.00    +0.000 N 
ATOM     18  C   UNL     1       2.268   6.220  19.050  0.00  0.00    +0.000 C 
ATOM     19  O   UNL     1       2.445   5.711  20.155  0.00  0.00    +0.000 OA
ATOM     20  H   UNL     1       2.036   5.942  17.024  0.00  0.00    +0.000 HD
BRANCH  18  21
ATOM     21  C   UNL     1       2.065   7.658  18.867  0.00  0.00    +0.000 A 
ATOM     22  C   UNL     1       2.382   8.476  17.743  0.00  0.00    +0.000 A 
ATOM     23  C   UNL     1       1.987   9.763  18.031  0.00  0.00    +0.000 A 
ATOM     24  N   UNL     1       1.432   9.766  19.282  0.00  0.00    +0.000 N 
ATOM     25  C   UNL     1       0.872  10.938  19.922  0.00  0.00    +0.000 C 
ATOM     26  C   UNL     1       1.486   8.499  19.817  0.00  0.00    +0.000 A 
ATOM     27  C   UNL     1       1.000   8.158  21.187  0.00  0.00    +0.000 C 
ENDBRANCH  18  21
ENDBRANCH   3  17
TORSDOF 8
ENDMDL
MODEL 7
REMARK VINA RESULT:      -5.7      0.689      1.400
REMARK  Name = 
REMARK  11 active torsions:
REMARK  status: ('A' for Active; 'I' for Inactive)
REMARK    1  A    between atoms: C_1  and  O_2
REMARK    2  A    between atoms: O_2  and  C_3
REMARK    3  A    between atoms: C_3  and  C_4
REMARK    4  A    between atoms: C_4  and  N_5
REMARK    5  A    between atoms: C_6  and  C_7
REMARK    6  A    between atoms: C_7  and  O_8
REMARK    7  A    between atoms: C_11  and  C_12
REMARK    8  A    between atoms: C_14  and  N_15
REMARK    9  A    between atoms: C_16  and  C_18
REMARK   10  A    between atoms: N_21  and  C_22
REMARK   11  A    between atoms: C_23  and  C_24
REMARK                            x       y       z     vdW  Elec       q    Type
REMARK                         _______ _______ _______ _____ _____    ______ ____
ROOT
ATOM      1  C   UNL     1       1.729   5.597  20.761  0.00  0.00    +0.000 C 
ATOM      2  C   UNL     1       1.146   4.406  19.958  0.00  0.00    +0.000 C 
ATOM      3  C   UNL     1       2.543   3.782  19.849  0.00  0.00    +0.000 C 
ATOM      4  C   UNL     1       3.019   4.754  20.940  0.00  0.00    +0.000 C 
ENDROOT
BRANCH   1   9
ATOM      5  N   UNL     1       1.329   8.089  20.118  0.00  0.00    +0.000 N 
ATOM      6  C   UNL     1       1.680   8.852  19.027  0.00  0.00    +0.000 A 
ATOM      7  N   UNL     1       2.448   8.125  18.235  0.00  0.00    +0.000 NA
ATOM      8  N   UNL     1       2.577   6.879  18.782  0.00  0.00    +0.000 NA
ATOM      9  C   UNL     1       1.892   6.853  19.905  0.00  0.00    +0.000 A 
BRANCH   5  10
ATOM     10  C   UNL     1       0.451   8.455  21.207  0.00  0.00    +0.000 C 
BRANCH  10  11
ATOM     11  C   UNL     1       1.141   9.222  22.336  0.00  0.00    +0.000 C 
BRANCH  11  13
ATOM     12  C   UNL     1      -0.804  10.325  23.104  0.00  0.00    +0.000 C 
ATOM     13  O   UNL     1       0.479  10.479  22.507  0.00  0.00    +0.000 OA
ENDBRANCH  11  13
ENDBRANCH  10  11
ENDBRANCH   5  10
BRANCH   6  14
ATOM     14  C   UNL     1       1.286  10.259  18.779  0.00  0.00    +0.000 C 
BRANCH  14  15
ATOM     15  O   UNL     1       0.201  10.269  17.859  0.00  0.00    +0.000 OA
ATOM     16  H   UNL     1      -0.344   9.489  18.072  0.00  0.00    +0.000 HD
ENDBRANCH  14  15
ENDBRANCH   6  14
ENDBRANCH   1   9
BRANCH   3  17
ATOM     17  N   UNL     1       3.213   3.976  18.553  0.00  0.00    +0.000 N 
ATOM     18  C   UNL     1       4.559   3.720  18.401  0.00  0.00    +0.000 C 
ATOM     19  O   UNL     1       5.241   3.254  19.312  0.00  0.00    +0.000 OA
ATOM     20  H   UNL     1       2.731   4.439  17.790  0.00  0.00    +0.000 HD
BRANCH  18  21
ATOM     21  C   UNL     1       5.108   4.017  17.077  0.00  0.00    +0.000 A 
ATOM     22  C   UNL     1       4.482   3.917  15.800  0.00  0.00    +0.000 A 
ATOM     23  C   UNL     1       5.392   4.324  14.849  0.00  0.00    +0.000 A 
ATOM     24  N   UNL     1       6.546   4.680  15.492  0.00  0.00    +0.000 N 
ATOM     25  C   UNL     1       7.725   5.190  14.826  0.00  0.00    +0.000 C 
ATOM     26  C   UNL     1       6.403   4.484  16.847  0.00  0.00    +0.000 A 
ATOM     27  C   UNL     1       7.489   4.736  17.840  0.00  0.00    +0.000 C 
ENDBRANCH  18  21
ENDBRANCH   3  17
TORSDOF 8
ENDMDL
MODEL 8
REMARK VINA RESULT:      -5.7      5.947     10.776
REMARK  Name = 
REMARK  11 active torsions:
REMARK  status: ('A' for Active; 'I' for Inactive)
REMARK    1  A    between atoms: C_1  and  O_2
REMARK    2  A    between atoms: O_2  and  C_3
REMARK    3  A    between atoms: C_3  and  C_4
REMARK    4  A    between atoms: C_4  and  N_5
REMARK    5  A    between atoms: C_6  and  C_7
REMARK    6  A    between atoms: C_7  and  O_8
REMARK    7  A    between atoms: C_11  and  C_12
REMARK    8  A    between atoms: C_14  and  N_15
REMARK    9  A    between atoms: C_16  and  C_18
REMARK   10  A    between atoms: N_21  and  C_22
REMARK   11  A    between atoms: C_23  and  C_24
REMARK                            x       y       z     vdW  Elec       q    Type
REMARK                         _______ _______ _______ _____ _____    ______ ____
ROOT
ATOM      1  C   UNL     1      -1.837  10.264  17.355  0.00  0.00    +0.000 C 
ATOM      2  C   UNL     1      -3.251   9.815  17.804  0.00  0.00    +0.000 C 
ATOM      3  C   UNL     1      -3.884  10.657  16.689  0.00  0.00    +0.000 C 
ATOM      4  C   UNL     1      -2.494  10.782  16.048  0.00  0.00    +0.000 C 
ENDROOT
BRANCH   1   9
ATOM      5  N   UNL     1      -0.740  11.196  19.525  0.00  0.00    +0.000 N 
ATOM      6  C   UNL     1      -0.447  12.467  19.965  0.00  0.00    +0.000 A 
ATOM      7  N   UNL     1      -0.728  13.323  18.999  0.00  0.00    +0.000 NA
ATOM      8  N   UNL     1      -1.234  12.625  17.938  0.00  0.00    +0.000 NA
ATOM      9  C   UNL     1      -1.256  11.350  18.259  0.00  0.00    +0.000 A 
BRANCH   5  10
ATOM     10  C   UNL     1      -0.648   9.960  20.269  0.00  0.00    +0.000 C 
BRANCH  10  11
ATOM     11  C   UNL     1       0.758   9.360  20.314  0.00  0.00    +0.000 C 
BRANCH  11  13
ATOM     12  C   UNL     1       0.434   9.346  22.656  0.00  0.00    +0.000 C 
ATOM     13  O   UNL     1       1.335   9.640  21.593  0.00  0.00    +0.000 OA
ENDBRANCH  11  13
ENDBRANCH  10  11
ENDBRANCH   5  10
BRANCH   6  14
ATOM     14  C   UNL     1       0.108  12.829  21.292  0.00  0.00    +0.000 C 
BRANCH  14  15
ATOM     15  O   UNL     1       1.518  12.646  21.257  0.00  0.00    +0.000 OA
ATOM     16  H   UNL     1       1.669  11.685  21.315  0.00  0.00    +0.000 HD
ENDBRANCH  14  15
ENDBRANCH   6  14
ENDBRANCH   1   9
BRANCH   3  17
ATOM     17  N   UNL     1      -4.451  11.944  17.125  0.00  0.00    +0.000 N 
ATOM     18  C   UNL     1      -5.736  12.027  17.617  0.00  0.00    +0.000 C 
ATOM     19  O   UNL     1      -6.437  11.030  17.782  0.00  0.00    +0.000 OA
ATOM     20  H   UNL     1      -3.960  12.811  16.934  0.00  0.00    +0.000 HD
BRANCH  18  21
ATOM     21  C   UNL     1      -6.193  13.377  17.952  0.00  0.00    +0.000 A 
ATOM     22  C   UNL     1      -6.774  14.366  17.105  0.00  0.00    +0.000 A 
ATOM     23  C   UNL     1      -7.057  15.470  17.877  0.00  0.00    +0.000 A 
ATOM     24  N   UNL     1      -6.683  15.196  19.165  0.00  0.00    +0.000 N 
ATOM     25  C   UNL     1      -6.853  16.108  20.275  0.00  0.00    +0.000 C 
ATOM     26  C   UNL     1      -6.138  13.934  19.230  0.00  0.00    +0.000 A 
ATOM     27  C   UNL     1      -5.590  13.332  20.482  0.00  0.00    +0.000 C 
ENDBRANCH  18  21
ENDBRANCH   3  17
TORSDOF 8
ENDMDL
MODEL 9
REMARK VINA RESULT:      -5.7      2.393      3.591
REMARK  Name = 
REMARK  11 active torsions:
REMARK  status: ('A' for Active; 'I' for Inactive)
REMARK    1  A    between atoms: C_1  and  O_2
REMARK    2  A    between atoms: O_2  and  C_3
REMARK    3  A    between atoms: C_3  and  C_4
REMARK    4  A    between atoms: C_4  and  N_5
REMARK    5  A    between atoms: C_6  and  C_7
REMARK    6  A    between atoms: C_7  and  O_8
REMARK    7  A    between atoms: C_11  and  C_12
REMARK    8  A    between atoms: C_14  and  N_15
REMARK    9  A    between atoms: C_16  and  C_18
REMARK   10  A    between atoms: N_21  and  C_22
REMARK   11  A    between atoms: C_23  and  C_24
REMARK                            x       y       z     vdW  Elec       q    Type
REMARK                         _______ _______ _______ _____ _____    ______ ____
ROOT
ATOM      1  C   UNL     1       0.320   9.752  21.343  0.00  0.00    +0.000 C 
ATOM      2  C   UNL     1      -0.302   8.387  20.954  0.00  0.00    +0.000 C 
ATOM      3  C   UNL     1       0.904   7.655  21.556  0.00  0.00    +0.000 C 
ATOM      4  C   UNL     1       1.306   8.966  22.247  0.00  0.00    +0.000 C 
ENDROOT
BRANCH   1   9
ATOM      5  N   UNL     1       1.175  11.810  19.996  0.00  0.00    +0.000 N 
ATOM      6  C   UNL     1       1.675  11.965  18.723  0.00  0.00    +0.000 A 
ATOM      7  N   UNL     1       1.797  10.772  18.170  0.00  0.00    +0.000 NA
ATOM      8  N   UNL     1       1.350   9.836  19.060  0.00  0.00    +0.000 NA
ATOM      9  C   UNL     1       0.962  10.461  20.151  0.00  0.00    +0.000 A 
BRANCH   5  10
ATOM     10  C   UNL     1       0.824  12.848  20.940  0.00  0.00    +0.000 C 
BRANCH  10  11
ATOM     11  C   UNL     1      -0.557  13.463  20.709  0.00  0.00    +0.000 C 
BRANCH  11  13
ATOM     12  C   UNL     1      -1.096  12.842  22.926  0.00  0.00    +0.000 C 
ATOM     13  O   UNL     1      -1.082  13.895  21.968  0.00  0.00    +0.000 OA
ENDBRANCH  11  13
ENDBRANCH  10  11
ENDBRANCH   5  10
BRANCH   6  14
ATOM     14  C   UNL     1       2.037  13.248  18.073  0.00  0.00    +0.000 C 
BRANCH  14  15
ATOM     15  O   UNL     1       3.419  13.210  17.736  0.00  0.00    +0.000 OA
ATOM     16  H   UNL     1       3.812  12.504  18.281  0.00  0.00    +0.000 HD
ENDBRANCH  14  15
ENDBRANCH   6  14
ENDBRANCH   1   9
BRANCH   3  17
ATOM     17  N   UNL     1       1.893   7.175  20.577  0.00  0.00    +0.000 N 
ATOM     18  C   UNL     1       2.080   5.827  20.353  0.00  0.00    +0.000 C 
ATOM     19  O   UNL     1       1.386   4.973  20.901  0.00  0.00    +0.000 OA
ATOM     20  H   UNL     1       2.556   7.820  20.159  0.00  0.00    +0.000 HD
BRANCH  18  21
ATOM     21  C   UNL     1       3.140   5.491  19.402  0.00  0.00    +0.000 A 
ATOM     22  C   UNL     1       4.542   5.737  19.493  0.00  0.00    +0.000 A 
ATOM     23  C   UNL     1       5.137   5.220  18.364  0.00  0.00    +0.000 A 
ATOM     24  N   UNL     1       4.159   4.658  17.589  0.00  0.00    +0.000 N 
ATOM     25  C   UNL     1       4.402   3.985  16.331  0.00  0.00    +0.000 C 
ATOM     26  C   UNL     1       2.934   4.827  18.193  0.00  0.00    +0.000 A 
ATOM     27  C   UNL     1       1.645   4.365  17.596  0.00  0.00    +0.000 C 
ENDBRANCH  18  21
ENDBRANCH   3  17
TORSDOF 8
ENDMDL
