MODEL 1
REMARK VINA RESULT:      -8.4      0.000      0.000
REMARK  Name = 
REMARK  10 active torsions:
REMARK  status: ('A' for Active; 'I' for Inactive)
REMARK    1  A    between atoms: C_1  and  C_2
REMARK    2  A    between atoms: C_2  and  O_3
REMARK    3  A    between atoms: O_3  and  C_4
REMARK    4  A    between atoms: C_4  and  C_6
REMARK    5  A    between atoms: C_6  and  C_7
REMARK    6  A    between atoms: C_6  and  O_8
REMARK    7  A    between atoms: O_8  and  C_9
REMARK    8  A    between atoms: C_12  and  C_13
REMARK    9  A    between atoms: C_13  and  C_15
REMARK   10  A    between atoms: C_16  and  C_17
REMARK                            x       y       z     vdW  Elec       q    Type
REMARK                         _______ _______ _______ _____ _____    ______ ____
ROOT
ATOM      1  C   UNL     1       2.849   3.772  18.462  0.00  0.00    +0.000 C 
ATOM      2  O   UNL     1       2.575   2.717  19.052  0.00  0.00    +0.000 OA
ENDROOT
BRANCH   1   6
ATOM      3  C   UNL     1       1.729   7.601  20.274  0.00  0.00    +0.000 A 
ATOM      4  C   UNL     1       2.333   7.526  19.009  0.00  0.00    +0.000 A 
ATOM      5  C   UNL     1       2.674   6.282  18.433  0.00  0.00    +0.000 A 
ATOM      6  C   UNL     1       2.430   5.071  19.112  0.00  0.00    +0.000 A 
ATOM      7  C   UNL     1       1.840   5.157  20.374  0.00  0.00    +0.000 A 
ATOM      8  C   UNL     1       1.493   6.405  20.946  0.00  0.00    +0.000 A 
BRANCH   3   9
ATOM      9  O   UNL     1       1.465   8.859  20.739  0.00  0.00    +0.000 OA
BRANCH   9  10
ATOM     10  C   UNL     1       0.115   9.215  21.045  0.00  0.00    +0.000 C 
ATOM     11  C   UNL     1      -0.389  10.099  19.893  0.00  0.00    +0.000 C 
BRANCH  10  12
ATOM     12  C   UNL     1      -0.090  10.013  22.354  0.00  0.00    +0.000 C 
ATOM     13  O   UNL     1       0.402   9.745  23.439  0.00  0.00    +0.000 OA
BRANCH  12  14
ATOM     14  O   UNL     1      -0.943  11.060  22.120  0.00  0.00    +0.000 OA
BRANCH  14  16
ATOM     15  C   UNL     1      -1.952  13.022  23.121  0.00  0.00    +0.000 C 
ATOM     16  C   UNL     1      -1.711  11.529  23.239  0.00  0.00    +0.000 C 
ENDBRANCH  14  16
ENDBRANCH  12  14
ENDBRANCH  10  12
ENDBRANCH   9  10
ENDBRANCH   3   9
ENDBRANCH   1   6
BRANCH   1  17
ATOM     17  C   UNL     1       3.626   3.739  17.154  0.00  0.00    +0.000 C 
ATOM     18  C   UNL     1       4.944   4.032  17.189  0.00  0.00    +0.000 C 
BRANCH  18  19
ATOM     19  C   UNL     1       5.895   4.324  16.146  0.00  0.00    +0.000 A 
ATOM     20  C   UNL     1       7.097   4.897  16.529  0.00  0.00    +0.000 A 
ATOM     21  N   UNL     1       7.572   5.553  15.437  0.00  0.00    +0.000 N 
ATOM     22  C   UNL     1       7.127   4.906  14.316  0.00  0.00    +0.000 A 
ATOM     23  C   UNL     1       7.641   4.961  13.016  0.00  0.00    +0.000 A 
ATOM     24  C   UNL     1       7.038   4.147  12.063  0.00  0.00    +0.000 A 
ATOM     25  C   UNL     1       5.915   3.392  12.399  0.00  0.00    +0.000 A 
ATOM     26 CL   UNL     1       5.224   2.378  11.189  0.00  0.00    +0.000 Cl
ATOM     27  C   UNL     1       5.361   3.406  13.699  0.00  0.00    +0.000 A 
ATOM     28  C   UNL     1       6.011   4.141  14.721  0.00  0.00    +0.000 A 
ATOM     29  H   UNL     1       8.261   6.294  15.448  0.00  0.00    +0.000 HD
ENDBRANCH  18  19
ENDBRANCH   1  17
TORSDOF 8
ENDMDL
MODEL 2
REMARK VINA RESULT:      -7.9      1.806      2.315
REMARK  Name = 
REMARK  10 active torsions:
REMARK  status: ('A' for Active; 'I' for Inactive)
REMARK    1  A    between atoms: C_1  and  C_2
REMARK    2  A    between atoms: C_2  and  O_3
REMARK    3  A    between atoms: O_3  and  C_4
REMARK    4  A    between atoms: C_4  and  C_6
REMARK    5  A    between atoms: C_6  and  C_7
REMARK    6  A    between atoms: C_6  and  O_8
REMARK    7  A    between atoms: O_8  and  C_9
REMARK    8  A    between atoms: C_12  and  C_13
REMARK    9  A    between atoms: C_13  and  C_15
REMARK   10  A    between atoms: C_16  and  C_17
REMARK                            x       y       z     vdW  Elec       q    Type
REMARK                         _______ _______ _______ _____ _____    ______ ____
ROOT
ATOM      1  C   UNL     1       2.860   4.041  18.365  0.00  0.00    +0.000 C 
ATOM      2  O   UNL     1       2.452   3.093  19.050  0.00  0.00    +0.000 OA
ENDROOT
BRANCH   1   6
ATOM      3  C   UNL     1       1.813   8.139  19.509  0.00  0.00    +0.000 A 
ATOM      4  C   UNL     1       2.193   7.808  18.199  0.00  0.00    +0.000 A 
ATOM      5  C   UNL     1       2.513   6.478  17.844  0.00  0.00    +0.000 A 
ATOM      6  C   UNL     1       2.472   5.438  18.794  0.00  0.00    +0.000 A 
ATOM      7  C   UNL     1       2.105   5.780  20.096  0.00  0.00    +0.000 A 
ATOM      8  C   UNL     1       1.778   7.112  20.448  0.00  0.00    +0.000 A 
BRANCH   3   9
ATOM      9  O   UNL     1       1.549   9.460  19.740  0.00  0.00    +0.000 OA
BRANCH   9  10
ATOM     10  C   UNL     1       0.957  10.241  18.699  0.00  0.00    +0.000 C 
ATOM     11  C   UNL     1       1.950  11.362  18.358  0.00  0.00    +0.000 C 
BRANCH  10  12
ATOM     12  C   UNL     1      -0.390  10.915  19.047  0.00  0.00    +0.000 C 
ATOM     13  O   UNL     1      -0.534  12.057  19.455  0.00  0.00    +0.000 OA
BRANCH  12  14
ATOM     14  O   UNL     1      -1.411  10.019  18.858  0.00  0.00    +0.000 OA
BRANCH  14  16
ATOM     15  C   UNL     1      -2.232   9.941  16.581  0.00  0.00    +0.000 C 
ATOM     16  C   UNL     1      -2.481  10.432  17.994  0.00  0.00    +0.000 C 
ENDBRANCH  14  16
ENDBRANCH  12  14
ENDBRANCH  10  12
ENDBRANCH   9  10
ENDBRANCH   3   9
ENDBRANCH   1   6
BRANCH   1  17
ATOM     17  C   UNL     1       3.760   3.787  17.165  0.00  0.00    +0.000 C 
ATOM     18  C   UNL     1       4.950   4.427  17.115  0.00  0.00    +0.000 C 
BRANCH  18  19
ATOM     19  C   UNL     1       5.905   4.604  16.050  0.00  0.00    +0.000 A 
ATOM     20  C   UNL     1       7.129   5.160  16.386  0.00  0.00    +0.000 A 
ATOM     21  N   UNL     1       7.622   5.712  15.245  0.00  0.00    +0.000 N 
ATOM     22  C   UNL     1       7.149   4.996  14.179  0.00  0.00    +0.000 A 
ATOM     23  C   UNL     1       7.659   4.933  12.877  0.00  0.00    +0.000 A 
ATOM     24  C   UNL     1       7.022   4.070  11.991  0.00  0.00    +0.000 A 
ATOM     25  C   UNL     1       5.874   3.384  12.387  0.00  0.00    +0.000 A 
ATOM     26 CL   UNL     1       5.141   2.305  11.261  0.00  0.00    +0.000 Cl
ATOM     27  C   UNL     1       5.327   3.519  13.683  0.00  0.00    +0.000 A 
ATOM     28  C   UNL     1       6.008   4.306  14.644  0.00  0.00    +0.000 A 
ATOM     29  H   UNL     1       8.338   6.426  15.197  0.00  0.00    +0.000 HD
ENDBRANCH  18  19
ENDBRANCH   1  17
TORSDOF 8
ENDMDL
MODEL 3
REMARK VINA RESULT:      -7.8      2.311      3.483
REMARK  Name = 
REMARK  10 active torsions:
REMARK  status: ('A' for Active; 'I' for Inactive)
REMARK    1  A    between atoms: C_1  and  C_2
REMARK    2  A    between atoms: C_2  and  O_3
REMARK    3  A    between atoms: O_3  and  C_4
REMARK    4  A    between atoms: C_4  and  C_6
REMARK    5  A    between atoms: C_6  and  C_7
REMARK    6  A    between atoms: C_6  and  O_8
REMARK    7  A    between atoms: O_8  and  C_9
REMARK    8  A    between atoms: C_12  and  C_13
REMARK    9  A    between atoms: C_13  and  C_15
REMARK   10  A    between atoms: C_16  and  C_17
REMARK                            x       y       z     vdW  Elec       q    Type
REMARK                         _______ _______ _______ _____ _____    ______ ____
ROOT
ATOM      1  C   UNL     1       3.271   6.713  18.428  0.00  0.00    +0.000 C 
ATOM      2  O   UNL     1       3.326   5.772  19.232  0.00  0.00    +0.000 OA
ENDROOT
BRANCH   1   6
ATOM      3  C   UNL     1       0.443   9.914  19.406  0.00  0.00    +0.000 A 
ATOM      4  C   UNL     1       0.854   8.969  20.360  0.00  0.00    +0.000 A 
ATOM      5  C   UNL     1       1.778   7.952  20.031  0.00  0.00    +0.000 A 
ATOM      6  C   UNL     1       2.314   7.844  18.732  0.00  0.00    +0.000 A 
ATOM      7  C   UNL     1       1.890   8.781  17.789  0.00  0.00    +0.000 A 
ATOM      8  C   UNL     1       0.969   9.804  18.122  0.00  0.00    +0.000 A 
BRANCH   3   9
ATOM      9  O   UNL     1      -0.471  10.837  19.833  0.00  0.00    +0.000 OA
BRANCH   9  10
ATOM     10  C   UNL     1      -1.069  11.714  18.876  0.00  0.00    +0.000 C 
ATOM     11  C   UNL     1      -0.929  13.142  19.426  0.00  0.00    +0.000 C 
BRANCH  10  12
ATOM     12  C   UNL     1      -2.571  11.480  18.595  0.00  0.00    +0.000 C 
ATOM     13  O   UNL     1      -3.500  12.008  19.186  0.00  0.00    +0.000 OA
BRANCH  12  14
ATOM     14  O   UNL     1      -2.707  10.554  17.593  0.00  0.00    +0.000 OA
BRANCH  14  16
ATOM     15  C   UNL     1      -2.957  10.057  15.235  0.00  0.00    +0.000 C 
ATOM     16  C   UNL     1      -3.289  11.015  16.363  0.00  0.00    +0.000 C 
ENDBRANCH  14  16
ENDBRANCH  12  14
ENDBRANCH  10  12
ENDBRANCH   9  10
ENDBRANCH   3   9
ENDBRANCH   1   6
BRANCH   1  17
ATOM     17  C   UNL     1       4.182   6.733  17.210  0.00  0.00    +0.000 C 
ATOM     18  C   UNL     1       4.619   5.551  16.722  0.00  0.00    +0.000 C 
BRANCH  18  19
ATOM     19  C   UNL     1       5.650   5.223  15.770  0.00  0.00    +0.000 A 
ATOM     20  C   UNL     1       6.963   5.390  16.179  0.00  0.00    +0.000 A 
ATOM     21  N   UNL     1       7.698   5.550  15.046  0.00  0.00    +0.000 N 
ATOM     22  C   UNL     1       7.084   4.867  14.032  0.00  0.00    +0.000 A 
ATOM     23  C   UNL     1       7.632   4.424  12.823  0.00  0.00    +0.000 A 
ATOM     24  C   UNL     1       6.802   3.688  11.985  0.00  0.00    +0.000 A 
ATOM     25  C   UNL     1       5.462   3.497  12.321  0.00  0.00    +0.000 A 
ATOM     26 CL   UNL     1       4.483   2.551  11.263  0.00  0.00    +0.000 Cl
ATOM     27  C   UNL     1       4.904   4.017  13.511  0.00  0.00    +0.000 A 
ATOM     28  C   UNL     1       5.744   4.681  14.438  0.00  0.00    +0.000 A 
ATOM     29  H   UNL     1       8.618   5.969  14.995  0.00  0.00    +0.000 HD
ENDBRANCH  18  19
ENDBRANCH   1  17
TORSDOF 8
ENDMDL
MODEL 4
REMARK VINA RESULT:      -7.7      1.538      2.442
REMARK  Name = 
REMARK  10 active torsions:
REMARK  status: ('A' for Active; 'I' for Inactive)
REMARK    1  A    between atoms: C_1  and  C_2
REMARK    2  A    between atoms: C_2  and  O_3
REMARK    3  A    between atoms: O_3  and  C_4
REMARK    4  A    between atoms: C_4  and  C_6
REMARK    5  A    between atoms: C_6  and  C_7
REMARK    6  A    between atoms: C_6  and  O_8
REMARK    7  A    between atoms: O_8  and  C_9
REMARK    8  A    between atoms: C_12  and  C_13
REMARK    9  A    between atoms: C_13  and  C_15
REMARK   10  A    between atoms: C_16  and  C_17
REMARK                            x       y       z     vdW  Elec       q    Type
REMARK                         _______ _______ _______ _____ _____    ______ ____
ROOT
ATOM      1  C   UNL     1       2.867   4.905  18.506  0.00  0.00    +0.000 C 
ATOM      2  O   UNL     1       2.655   3.975  19.297  0.00  0.00    +0.000 OA
ENDROOT
BRANCH   1   6
ATOM      3  C   UNL     1       1.494   8.866  19.779  0.00  0.00    +0.000 A 
ATOM      4  C   UNL     1       1.513   7.770  20.656  0.00  0.00    +0.000 A 
ATOM      5  C   UNL     1       1.972   6.502  20.232  0.00  0.00    +0.000 A 
ATOM      6  C   UNL     1       2.420   6.291  18.913  0.00  0.00    +0.000 A 
ATOM      7  C   UNL     1       2.387   7.385  18.046  0.00  0.00    +0.000 A 
ATOM      8  C   UNL     1       1.932   8.655  18.475  0.00  0.00    +0.000 A 
BRANCH   3   9
ATOM      9  O   UNL     1       1.008  10.035  20.294  0.00  0.00    +0.000 OA
BRANCH   9  10
ATOM     10  C   UNL     1       0.442  11.002  19.405  0.00  0.00    +0.000 C 
ATOM     11  C   UNL     1       1.472  12.133  19.256  0.00  0.00    +0.000 C 
BRANCH  10  12
ATOM     12  C   UNL     1      -0.882  11.650  19.870  0.00  0.00    +0.000 C 
ATOM     13  O   UNL     1      -1.003  12.456  20.780  0.00  0.00    +0.000 OA
BRANCH  12  14
ATOM     14  O   UNL     1      -1.919  11.154  19.123  0.00  0.00    +0.000 OA
BRANCH  14  16
ATOM     15  C   UNL     1      -1.979   9.908  17.047  0.00  0.00    +0.000 C 
ATOM     16  C   UNL     1      -1.798  11.266  17.696  0.00  0.00    +0.000 C 
ENDBRANCH  14  16
ENDBRANCH  12  14
ENDBRANCH  10  12
ENDBRANCH   9  10
ENDBRANCH   3   9
ENDBRANCH   1   6
BRANCH   1  17
ATOM     17  C   UNL     1       3.599   4.645  17.198  0.00  0.00    +0.000 C 
ATOM     18  C   UNL     1       4.947   4.743  17.192  0.00  0.00    +0.000 C 
BRANCH  18  19
ATOM     19  C   UNL     1       5.904   4.802  16.116  0.00  0.00    +0.000 A 
ATOM     20  C   UNL     1       7.178   5.251  16.427  0.00  0.00    +0.000 A 
ATOM     21  N   UNL     1       7.709   5.724  15.268  0.00  0.00    +0.000 N 
ATOM     22  C   UNL     1       7.160   5.028  14.225  0.00  0.00    +0.000 A 
ATOM     23  C   UNL     1       7.650   4.883  12.922  0.00  0.00    +0.000 A 
ATOM     24  C   UNL     1       6.927   4.060  12.064  0.00  0.00    +0.000 A 
ATOM     25  C   UNL     1       5.724   3.495  12.487  0.00  0.00    +0.000 A 
ATOM     26 CL   UNL     1       4.883   2.459  11.396  0.00  0.00    +0.000 Cl
ATOM     27  C   UNL     1       5.205   3.714  13.783  0.00  0.00    +0.000 A 
ATOM     28  C   UNL     1       5.965   4.460  14.717  0.00  0.00    +0.000 A 
ATOM     29  H   UNL     1       8.487   6.367  15.196  0.00  0.00    +0.000 HD
ENDBRANCH  18  19
ENDBRANCH   1  17
TORSDOF 8
ENDMDL
MODEL 5
REMARK VINA RESULT:      -7.7      4.076      9.282
REMARK  Name = 
REMARK  10 active torsions:
REMARK  status: ('A' for Active; 'I' for Inactive)
REMARK    1  A    between atoms: C_1  and  C_2
REMARK    2  A    between atoms: C_2  and  O_3
REMARK    3  A    between atoms: O_3  and  C_4
REMARK    4  A    between atoms: C_4  and  C_6
REMARK    5  A    between atoms: C_6  and  C_7
REMARK    6  A    between atoms: C_6  and  O_8
REMARK    7  A    between atoms: O_8  and  C_9
REMARK    8  A    between atoms: C_12  and  C_13
REMARK    9  A    between atoms: C_13  and  C_15
REMARK   10  A    between atoms: C_16  and  C_17
REMARK                            x       y       z     vdW  Elec       q    Type
REMARK                         _______ _______ _______ _____ _____    ______ ____
ROOT
ATOM      1  C   UNL     1       2.032   4.979  20.666  0.00  0.00    +0.000 C 
ATOM      2  O   UNL     1       2.007   4.207  21.635  0.00  0.00    +0.000 OA
ENDROOT
BRANCH   1   6
ATOM      3  C   UNL     1       4.640   3.964  17.295  0.00  0.00    +0.000 A 
ATOM      4  C   UNL     1       3.262   4.174  17.130  0.00  0.00    +0.000 A 
ATOM      5  C   UNL     1       2.438   4.515  18.227  0.00  0.00    +0.000 A 
ATOM      6  C   UNL     1       2.968   4.647  19.526  0.00  0.00    +0.000 A 
ATOM      7  C   UNL     1       4.337   4.425  19.680  0.00  0.00    +0.000 A 
ATOM      8  C   UNL     1       5.162   4.090  18.579  0.00  0.00    +0.000 A 
BRANCH   3   9
ATOM      9  O   UNL     1       5.332   3.617  16.168  0.00  0.00    +0.000 OA
BRANCH   9  10
ATOM     10  C   UNL     1       5.405   4.548  15.086  0.00  0.00    +0.000 C 
ATOM     11  C   UNL     1       6.461   4.015  14.105  0.00  0.00    +0.000 C 
BRANCH  10  12
ATOM     12  C   UNL     1       5.822   5.988  15.465  0.00  0.00    +0.000 C 
ATOM     13  O   UNL     1       5.108   6.978  15.407  0.00  0.00    +0.000 OA
BRANCH  12  14
ATOM     14  O   UNL     1       7.138   5.996  15.848  0.00  0.00    +0.000 OA
BRANCH  14  16
ATOM     15  C   UNL     1       7.653   7.752  17.434  0.00  0.00    +0.000 C 
ATOM     16  C   UNL     1       7.406   6.270  17.232  0.00  0.00    +0.000 C 
ENDBRANCH  14  16
ENDBRANCH  12  14
ENDBRANCH  10  12
ENDBRANCH   9  10
ENDBRANCH   3   9
ENDBRANCH   1   6
BRANCH   1  17
ATOM     17  C   UNL     1       1.107   6.186  20.625  0.00  0.00    +0.000 C 
ATOM     18  C   UNL     1       1.580   7.366  21.082  0.00  0.00    +0.000 C 
BRANCH  18  19
ATOM     19  C   UNL     1       0.923   8.608  21.407  0.00  0.00    +0.000 A 
ATOM     20  C   UNL     1       1.162   9.139  22.664  0.00  0.00    +0.000 A 
ATOM     21  N   UNL     1       0.100   9.940  22.948  0.00  0.00    +0.000 N 
ATOM     22  C   UNL     1      -0.396  10.433  21.772  0.00  0.00    +0.000 A 
ATOM     23  C   UNL     1      -1.204  11.558  21.571  0.00  0.00    +0.000 A 
ATOM     24  C   UNL     1      -1.518  11.883  20.255  0.00  0.00    +0.000 A 
ATOM     25  C   UNL     1      -1.108  11.051  19.213  0.00  0.00    +0.000 A 
ATOM     26 CL   UNL     1      -1.498  11.515  17.600  0.00  0.00    +0.000 Cl
ATOM     27  C   UNL     1      -0.357   9.876  19.440  0.00  0.00    +0.000 A 
ATOM     28  C   UNL     1       0.070   9.570  20.756  0.00  0.00    +0.000 A 
ATOM     29  H   UNL     1      -0.178  10.243  23.872  0.00  0.00    +0.000 HD
ENDBRANCH  18  19
ENDBRANCH   1  17
TORSDOF 8
ENDMDL
MODEL 6
REMARK VINA RESULT:      -7.6      5.220     10.153
REMARK  Name = 
REMARK  10 active torsions:
REMARK  status: ('A' for Active; 'I' for Inactive)
REMARK    1  A    between atoms: C_1  and  C_2
REMARK    2  A    between atoms: C_2  and  O_3
REMARK    3  A    between atoms: O_3  and  C_4
REMARK    4  A    between atoms: C_4  and  C_6
REMARK    5  A    between atoms: C_6  and  C_7
REMARK    6  A    between atoms: C_6  and  O_8
REMARK    7  A    between atoms: O_8  and  C_9
REMARK    8  A    between atoms: C_12  and  C_13
REMARK    9  A    between atoms: C_13  and  C_15
REMARK   10  A    between atoms: C_16  and  C_17
REMARK                            x       y       z     vdW  Elec       q    Type
REMARK                         _______ _______ _______ _____ _____    ______ ____
ROOT
ATOM      1  C   UNL     1       1.703   9.694  18.155  0.00  0.00    +0.000 C 
ATOM      2  O   UNL     1       2.351  10.562  17.552  0.00  0.00    +0.000 OA
ENDROOT
BRANCH   1   6
ATOM      3  C   UNL     1       3.558   5.786  18.849  0.00  0.00    +0.000 A 
ATOM      4  C   UNL     1       2.641   6.344  19.754  0.00  0.00    +0.000 A 
ATOM      5  C   UNL     1       2.041   7.600  19.507  0.00  0.00    +0.000 A 
ATOM      6  C   UNL     1       2.348   8.341  18.348  0.00  0.00    +0.000 A 
ATOM      7  C   UNL     1       3.270   7.783  17.461  0.00  0.00    +0.000 A 
ATOM      8  C   UNL     1       3.865   6.521  17.708  0.00  0.00    +0.000 A 
BRANCH   3   9
ATOM      9  O   UNL     1       4.090   4.578  19.204  0.00  0.00    +0.000 OA
BRANCH   9  10
ATOM     10  C   UNL     1       3.746   3.418  18.443  0.00  0.00    +0.000 C 
ATOM     11  C   UNL     1       4.413   3.571  17.066  0.00  0.00    +0.000 C 
BRANCH  10  12
ATOM     12  C   UNL     1       2.236   3.199  18.195  0.00  0.00    +0.000 C 
ATOM     13  O   UNL     1       1.585   3.673  17.278  0.00  0.00    +0.000 OA
BRANCH  12  14
ATOM     14  O   UNL     1       1.722   2.409  19.191  0.00  0.00    +0.000 OA
BRANCH  14  16
ATOM     15  C   UNL     1       1.668   2.902  21.562  0.00  0.00    +0.000 C 
ATOM     16  C   UNL     1       0.977   3.073  20.223  0.00  0.00    +0.000 C 
ENDBRANCH  14  16
ENDBRANCH  12  14
ENDBRANCH  10  12
ENDBRANCH   9  10
ENDBRANCH   3   9
ENDBRANCH   1   6
BRANCH   1  17
ATOM     17  C   UNL     1       0.326  10.019  18.716  0.00  0.00    +0.000 C 
ATOM     18  C   UNL     1      -0.731   9.967  17.876  0.00  0.00    +0.000 C 
BRANCH  18  19
ATOM     19  C   UNL     1      -2.089  10.434  18.006  0.00  0.00    +0.000 A 
ATOM     20  C   UNL     1      -3.056   9.778  17.261  0.00  0.00    +0.000 A 
ATOM     21  N   UNL     1      -4.082  10.659  17.110  0.00  0.00    +0.000 N 
ATOM     22  C   UNL     1      -4.101  11.492  18.195  0.00  0.00    +0.000 A 
ATOM     23  C   UNL     1      -5.157  12.277  18.672  0.00  0.00    +0.000 A 
ATOM     24  C   UNL     1      -4.934  12.990  19.845  0.00  0.00    +0.000 A 
ATOM     25  C   UNL     1      -3.674  12.975  20.443  0.00  0.00    +0.000 A 
ATOM     26 CL   UNL     1      -3.459  13.851  21.912  0.00  0.00    +0.000 Cl
ATOM     27  C   UNL     1      -2.596  12.236  19.906  0.00  0.00    +0.000 A 
ATOM     28  C   UNL     1      -2.815  11.415  18.772  0.00  0.00    +0.000 A 
ATOM     29  H   UNL     1      -4.800  10.609  16.399  0.00  0.00    +0.000 HD
ENDBRANCH  18  19
ENDBRANCH   1  17
TORSDOF 8
ENDMDL
MODEL 7
REMARK VINA RESULT:      -7.6      4.136      9.532
REMARK  Name = 
REMARK  10 active torsions:
REMARK  status: ('A' for Active; 'I' for Inactive)
REMARK    1  A    between atoms: C_1  and  C_2
REMARK    2  A    between atoms: C_2  and  O_3
REMARK    3  A    between atoms: O_3  and  C_4
REMARK    4  A    between atoms: C_4  and  C_6
REMARK    5  A    between atoms: C_6  and  C_7
REMARK    6  A    between atoms: C_6  and  O_8
REMARK    7  A    between atoms: O_8  and  C_9
REMARK    8  A    between atoms: C_12  and  C_13
REMARK    9  A    between atoms: C_13  and  C_15
REMARK   10  A    between atoms: C_16  and  C_17
REMARK                            x       y       z     vdW  Elec       q    Type
REMARK                         _______ _______ _______ _____ _____    ______ ____
ROOT
ATOM      1  C   UNL     1       1.808   5.319  20.335  0.00  0.00    +0.000 C 
ATOM      2  O   UNL     1       1.006   4.504  20.813  0.00  0.00    +0.000 OA
ENDROOT
BRANCH   1   6
ATOM      3  C   UNL     1       4.502   4.048  17.122  0.00  0.00    +0.000 A 
ATOM      4  C   UNL     1       4.981   4.636  18.303  0.00  0.00    +0.000 A 
ATOM      5  C   UNL     1       4.099   5.027  19.336  0.00  0.00    +0.000 A 
ATOM      6  C   UNL     1       2.706   4.849  19.213  0.00  0.00    +0.000 A 
ATOM      7  C   UNL     1       2.240   4.274  18.030  0.00  0.00    +0.000 A 
ATOM      8  C   UNL     1       3.126   3.877  17.000  0.00  0.00    +0.000 A 
BRANCH   3   9
ATOM      9  O   UNL     1       5.446   3.732  16.185  0.00  0.00    +0.000 OA
BRANCH   9  10
ATOM     10  C   UNL     1       5.643   4.611  15.076  0.00  0.00    +0.000 C 
ATOM     11  C   UNL     1       5.836   3.730  13.832  0.00  0.00    +0.000 C 
BRANCH  10  12
ATOM     12  C   UNL     1       6.872   5.545  15.167  0.00  0.00    +0.000 C 
ATOM     13  O   UNL     1       7.929   5.396  14.574  0.00  0.00    +0.000 OA
BRANCH  12  14
ATOM     14  O   UNL     1       6.608   6.560  16.050  0.00  0.00    +0.000 OA
BRANCH  14  16
ATOM     15  C   UNL     1       7.707   8.059  17.604  0.00  0.00    +0.000 C 
ATOM     16  C   UNL     1       7.423   6.616  17.231  0.00  0.00    +0.000 C 
ENDBRANCH  14  16
ENDBRANCH  12  14
ENDBRANCH  10  12
ENDBRANCH   9  10
ENDBRANCH   3   9
ENDBRANCH   1   6
BRANCH   1  17
ATOM     17  C   UNL     1       1.837   6.753  20.844  0.00  0.00    +0.000 C 
ATOM     18  C   UNL     1       0.661   7.340  21.159  0.00  0.00    +0.000 C 
BRANCH  18  19
ATOM     19  C   UNL     1       0.310   8.712  21.426  0.00  0.00    +0.000 A 
ATOM     20  C   UNL     1       0.742   9.253  22.626  0.00  0.00    +0.000 A 
ATOM     21  N   UNL     1      -0.102  10.283  22.905  0.00  0.00    +0.000 N 
ATOM     22  C   UNL     1      -0.559  10.800  21.724  0.00  0.00    +0.000 A 
ATOM     23  C   UNL     1      -1.118  12.061  21.483  0.00  0.00    +0.000 A 
ATOM     24  C   UNL     1      -1.443  12.366  20.166  0.00  0.00    +0.000 A 
ATOM     25  C   UNL     1      -1.293  11.403  19.168  0.00  0.00    +0.000 A 
ATOM     26 CL   UNL     1      -1.683  11.842  17.547  0.00  0.00    +0.000 Cl
ATOM     27  C   UNL     1      -0.799  10.108  19.441  0.00  0.00    +0.000 A 
ATOM     28  C   UNL     1      -0.359   9.796  20.751  0.00  0.00    +0.000 A 
ATOM     29  H   UNL     1      -0.245  10.695  23.818  0.00  0.00    +0.000 HD
ENDBRANCH  18  19
ENDBRANCH   1  17
TORSDOF 8
ENDMDL
MODEL 8
REMARK VINA RESULT:      -7.6      4.210      6.415
REMARK  Name = 
REMARK  10 active torsions:
REMARK  status: ('A' for Active; 'I' for Inactive)
REMARK    1  A    between atoms: C_1  and  C_2
REMARK    2  A    between atoms: C_2  and  O_3
REMARK    3  A    between atoms: O_3  and  C_4
REMARK    4  A    between atoms: C_4  and  C_6
REMARK    5  A    between atoms: C_6  and  C_7
REMARK    6  A    between atoms: C_6  and  O_8
REMARK    7  A    between atoms: O_8  and  C_9
REMARK    8  A    between atoms: C_12  and  C_13
REMARK    9  A    between atoms: C_13  and  C_15
REMARK   10  A    between atoms: C_16  and  C_17
REMARK                            x       y       z     vdW  Elec       q    Type
REMARK                         _______ _______ _______ _____ _____    ______ ____
ROOT
ATOM      1  C   UNL     1       1.475   9.798  18.175  0.00  0.00    +0.000 C 
ATOM      2  O   UNL     1       2.302  10.495  17.570  0.00  0.00    +0.000 OA
ENDROOT
BRANCH   1   6
ATOM      3  C   UNL     1      -2.528  11.474  18.776  0.00  0.00    +0.000 A 
ATOM      4  C   UNL     1      -2.283  10.453  17.844  0.00  0.00    +0.000 A 
ATOM      5  C   UNL     1      -0.988   9.914  17.673  0.00  0.00    +0.000 A 
ATOM      6  C   UNL     1       0.106  10.388  18.426  0.00  0.00    +0.000 A 
ATOM      7  C   UNL     1      -0.147  11.411  19.341  0.00  0.00    +0.000 A 
ATOM      8  C   UNL     1      -1.447  11.945  19.515  0.00  0.00    +0.000 A 
BRANCH   3   9
ATOM      9  O   UNL     1      -3.814  11.932  18.837  0.00  0.00    +0.000 OA
BRANCH   9  10
ATOM     10  C   UNL     1      -4.841  11.207  18.156  0.00  0.00    +0.000 C 
ATOM     11  C   UNL     1      -5.297  12.077  16.973  0.00  0.00    +0.000 C 
BRANCH  10  12
ATOM     12  C   UNL     1      -6.100  10.879  18.991  0.00  0.00    +0.000 C 
ATOM     13  O   UNL     1      -6.842   9.924  18.821  0.00  0.00    +0.000 OA
BRANCH  12  14
ATOM     14  O   UNL     1      -6.282  11.849  19.942  0.00  0.00    +0.000 OA
BRANCH  14  16
ATOM     15  C   UNL     1      -7.523  12.031  22.014  0.00  0.00    +0.000 C 
ATOM     16  C   UNL     1      -7.599  11.967  20.501  0.00  0.00    +0.000 C 
ENDBRANCH  14  16
ENDBRANCH  12  14
ENDBRANCH  10  12
ENDBRANCH   9  10
ENDBRANCH   3   9
ENDBRANCH   1   6
BRANCH   1  17
ATOM     17  C   UNL     1       1.832   8.380  18.598  0.00  0.00    +0.000 C 
ATOM     18  C   UNL     1       2.846   7.761  17.955  0.00  0.00    +0.000 C 
BRANCH  18  19
ATOM     19  C   UNL     1       3.274   6.385  17.930  0.00  0.00    +0.000 A 
ATOM     20  C   UNL     1       4.406   6.088  17.187  0.00  0.00    +0.000 A 
ATOM     21  N   UNL     1       4.315   4.769  16.866  0.00  0.00    +0.000 N 
ATOM     22  C   UNL     1       3.616   4.130  17.853  0.00  0.00    +0.000 A 
ATOM     23  C   UNL     1       3.596   2.766  18.163  0.00  0.00    +0.000 A 
ATOM     24  C   UNL     1       2.846   2.380  19.269  0.00  0.00    +0.000 A 
ATOM     25  C   UNL     1       2.085   3.323  19.960  0.00  0.00    +0.000 A 
ATOM     26 CL   UNL     1       1.197   2.798  21.341  0.00  0.00    +0.000 Cl
ATOM     27  C   UNL     1       2.057   4.686  19.587  0.00  0.00    +0.000 A 
ATOM     28  C   UNL     1       2.890   5.133  18.532  0.00  0.00    +0.000 A 
ATOM     29  H   UNL     1       4.811   4.312  16.111  0.00  0.00    +0.000 HD
ENDBRANCH  18  19
ENDBRANCH   1  17
TORSDOF 8
ENDMDL
MODEL 9
REMARK VINA RESULT:      -7.6      4.214      9.431
REMARK  Name = 
REMARK  10 active torsions:
REMARK  status: ('A' for Active; 'I' for Inactive)
REMARK    1  A    between atoms: C_1  and  C_2
REMARK    2  A    between atoms: C_2  and  O_3
REMARK    3  A    between atoms: O_3  and  C_4
REMARK    4  A    between atoms: C_4  and  C_6
REMARK    5  A    between atoms: C_6  and  C_7
REMARK    6  A    between atoms: C_6  and  O_8
REMARK    7  A    between atoms: O_8  and  C_9
REMARK    8  A    between atoms: C_12  and  C_13
REMARK    9  A    between atoms: C_13  and  C_15
REMARK   10  A    between atoms: C_16  and  C_17
REMARK                            x       y       z     vdW  Elec       q    Type
REMARK                         _______ _______ _______ _____ _____    ______ ____
ROOT
ATOM      1  C   UNL     1       2.281   5.355  20.437  0.00  0.00    +0.000 C 
ATOM      2  O   UNL     1       2.546   4.459  21.251  0.00  0.00    +0.000 OA
ENDROOT
BRANCH   1   6
ATOM      3  C   UNL     1       4.436   5.510  16.626  0.00  0.00    +0.000 A 
ATOM      4  C   UNL     1       4.172   6.666  17.377  0.00  0.00    +0.000 A 
ATOM      5  C   UNL     1       3.489   6.596  18.612  0.00  0.00    +0.000 A 
ATOM      6  C   UNL     1       3.039   5.365  19.129  0.00  0.00    +0.000 A 
ATOM      7  C   UNL     1       3.296   4.223  18.368  0.00  0.00    +0.000 A 
ATOM      8  C   UNL     1       3.987   4.295  17.135  0.00  0.00    +0.000 A 
BRANCH   3   9
ATOM      9  O   UNL     1       5.084   5.703  15.438  0.00  0.00    +0.000 OA
BRANCH   9  10
ATOM     10  C   UNL     1       6.408   5.189  15.278  0.00  0.00    +0.000 C 
ATOM     11  C   UNL     1       6.279   3.671  15.076  0.00  0.00    +0.000 C 
BRANCH  10  12
ATOM     12  C   UNL     1       7.364   5.409  16.473  0.00  0.00    +0.000 C 
ATOM     13  O   UNL     1       7.801   4.539  17.210  0.00  0.00    +0.000 OA
BRANCH  12  14
ATOM     14  O   UNL     1       7.627   6.748  16.605  0.00  0.00    +0.000 OA
BRANCH  14  16
ATOM     15  C   UNL     1       8.119   8.727  17.913  0.00  0.00    +0.000 C 
ATOM     16  C   UNL     1       7.807   7.243  17.941  0.00  0.00    +0.000 C 
ENDBRANCH  14  16
ENDBRANCH  12  14
ENDBRANCH  10  12
ENDBRANCH   9  10
ENDBRANCH   3   9
ENDBRANCH   1   6
BRANCH   1  17
ATOM     17  C   UNL     1       1.192   6.372  20.746  0.00  0.00    +0.000 C 
ATOM     18  C   UNL     1       1.551   7.668  20.881  0.00  0.00    +0.000 C 
BRANCH  18  19
ATOM     19  C   UNL     1       0.845   8.814  21.396  0.00  0.00    +0.000 A 
ATOM     20  C   UNL     1       1.026   9.118  22.736  0.00  0.00    +0.000 A 
ATOM     21  N   UNL     1      -0.070   9.829  23.116  0.00  0.00    +0.000 N 
ATOM     22  C   UNL     1      -0.541  10.512  22.028  0.00  0.00    +0.000 A 
ATOM     23  C   UNL     1      -1.376  11.635  22.000  0.00  0.00    +0.000 A 
ATOM     24  C   UNL     1      -1.655  12.183  20.752  0.00  0.00    +0.000 A 
ATOM     25  C   UNL     1      -1.186  11.561  19.596  0.00  0.00    +0.000 A 
ATOM     26 CL   UNL     1      -1.535  12.297  18.076  0.00  0.00    +0.000 Cl
ATOM     27  C   UNL     1      -0.407  10.382  19.639  0.00  0.00    +0.000 A 
ATOM     28  C   UNL     1      -0.014   9.857  20.894  0.00  0.00    +0.000 A 
ATOM     29  H   UNL     1      -0.388   9.955  24.069  0.00  0.00    +0.000 HD
ENDBRANCH  18  19
ENDBRANCH   1  17
TORSDOF 8
ENDMDL
