MODEL 1
REMARK VINA RESULT:      -7.6      0.000      0.000
REMARK  Name = 
REMARK  8 active torsions:
REMARK  status: ('A' for Active; 'I' for Inactive)
REMARK    1  A    between atoms: C_1  and  C_2
REMARK    2  A    between atoms: C_2  and  N_3
REMARK    3  A    between atoms: C_6  and  C_7
REMARK    4  A    between atoms: C_10  and  S_11
REMARK    5  A    between atoms: S_11  and  C_12
REMARK    6  A    between atoms: C_16  and  C_18
REMARK    7  A    between atoms: N_29  and  C_30
REMARK    8  A    between atoms: C_31  and  C_32
REMARK                            x       y       z     vdW  Elec       q    Type
REMARK                         _______ _______ _______ _____ _____    ______ ____
ROOT
ATOM      1  C   UNL     1       2.682   6.512  18.670  0.00  0.00    +0.000 A 
ATOM      2  N   UNL     1       2.444   7.753  18.272  0.00  0.00    +0.000 NA
ATOM      3  C   UNL     1       1.810   8.384  19.322  0.00  0.00    +0.000 A 
ATOM      4  C   UNL     1       1.297   9.668  19.530  0.00  0.00    +0.000 A 
ATOM      5  N   UNL     1       0.763   9.987  20.735  0.00  0.00    +0.000 NA
ATOM      6  C   UNL     1       0.728   9.041  21.689  0.00  0.00    +0.000 A 
ATOM      7  N   UNL     1       1.143   7.767  21.593  0.00  0.00    +0.000 NA
ATOM      8  C   UNL     1       1.673   7.511  20.384  0.00  0.00    +0.000 A 
ATOM      9  N   UNL     1       2.186   6.319  19.947  0.00  0.00    +0.000 N 
ATOM     10  C   UNL     1       2.219   5.121  20.742  0.00  0.00    +0.000 C 
ENDROOT
BRANCH   1  14
ATOM     11  N   UNL     1       4.863   4.479  16.535  0.00  0.00    +0.000 N 
ATOM     12  N   UNL     1       3.899   3.559  16.724  0.00  0.00    +0.000 NA
ATOM     13  C   UNL     1       3.017   4.180  17.506  0.00  0.00    +0.000 A 
ATOM     14  C   UNL     1       3.393   5.503  17.814  0.00  0.00    +0.000 A 
ATOM     15  C   UNL     1       4.604   5.681  17.158  0.00  0.00    +0.000 A 
ATOM     16  C   UNL     1       5.551   6.824  17.097  0.00  0.00    +0.000 C 
BRANCH  11  18
ATOM     17  C   UNL     1       5.816   4.255  14.269  0.00  0.00    +0.000 C 
ATOM     18  C   UNL     1       6.035   4.104  15.764  0.00  0.00    +0.000 C 
ENDBRANCH  11  18
ENDBRANCH   1  14
BRANCH   4  19
ATOM     19  S   UNL     1       1.394  10.949  18.328  0.00  0.00    +0.000 S 
BRANCH  19  20
ATOM     20  C   UNL     1      -0.288  11.674  18.323  0.00  0.00    +0.000 C 
ATOM     21  C   UNL     1      -1.472  10.747  18.635  0.00  0.00    +0.000 C 
ATOM     22  C   UNL     1      -2.498  11.705  19.226  0.00  0.00    +0.000 C 
ATOM     23  N   UNL     1      -1.679  12.568  20.049  0.00  0.00    +0.000 N 
ATOM     24  C   UNL     1      -1.949  13.131  21.277  0.00  0.00    +0.000 C 
ATOM     25  O   UNL     1      -1.141  13.894  21.812  0.00  0.00    +0.000 OA
ATOM     26  C   UNL     1      -0.364  12.734  19.441  0.00  0.00    +0.000 C 
BRANCH  24  27
ATOM     27  C   UNL     1      -3.241  12.725  21.985  0.00  0.00    +0.000 C 
ATOM     28  C   UNL     1      -4.353  13.750  21.708  0.00  0.00    +0.000 C 
ATOM     29  C   UNL     1      -5.578  13.498  22.574  0.00  0.00    +0.000 C 
ATOM     30  O   UNL     1      -5.229  13.456  23.955  0.00  0.00    +0.000 OA
ATOM     31  C   UNL     1      -4.309  12.408  24.244  0.00  0.00    +0.000 C 
ATOM     32  C   UNL     1      -3.001  12.622  23.499  0.00  0.00    +0.000 C 
ENDBRANCH  24  27
ENDBRANCH  19  20
ENDBRANCH   4  19
TORSDOF 5
ENDMDL
MODEL 2
REMARK VINA RESULT:      -7.6      3.626     10.419
REMARK  Name = 
REMARK  8 active torsions:
REMARK  status: ('A' for Active; 'I' for Inactive)
REMARK    1  A    between atoms: C_1  and  C_2
REMARK    2  A    between atoms: C_2  and  N_3
REMARK    3  A    between atoms: C_6  and  C_7
REMARK    4  A    between atoms: C_10  and  S_11
REMARK    5  A    between atoms: S_11  and  C_12
REMARK    6  A    between atoms: C_16  and  C_18
REMARK    7  A    between atoms: N_29  and  C_30
REMARK    8  A    between atoms: C_31  and  C_32
REMARK                            x       y       z     vdW  Elec       q    Type
REMARK                         _______ _______ _______ _____ _____    ______ ____
ROOT
ATOM      1  C   UNL     1      -2.275  12.971  21.277  0.00  0.00    +0.000 A 
ATOM      2  N   UNL     1      -1.818  11.969  20.540  0.00  0.00    +0.000 NA
ATOM      3  C   UNL     1      -0.674  12.431  19.923  0.00  0.00    +0.000 A 
ATOM      4  C   UNL     1       0.249  11.880  19.029  0.00  0.00    +0.000 A 
ATOM      5  N   UNL     1       1.324  12.612  18.643  0.00  0.00    +0.000 NA
ATOM      6  C   UNL     1       1.453  13.859  19.125  0.00  0.00    +0.000 A 
ATOM      7  N   UNL     1       0.613  14.511  19.946  0.00  0.00    +0.000 NA
ATOM      8  C   UNL     1      -0.425  13.735  20.304  0.00  0.00    +0.000 A 
ATOM      9  N   UNL     1      -1.466  14.082  21.124  0.00  0.00    +0.000 N 
ATOM     10  C   UNL     1      -1.611  15.379  21.730  0.00  0.00    +0.000 C 
ENDROOT
BRANCH   1  14
ATOM     11  N   UNL     1      -5.583  12.786  22.850  0.00  0.00    +0.000 N 
ATOM     12  N   UNL     1      -4.854  12.522  23.949  0.00  0.00    +0.000 NA
ATOM     13  C   UNL     1      -3.596  12.558  23.512  0.00  0.00    +0.000 A 
ATOM     14  C   UNL     1      -3.502  12.857  22.137  0.00  0.00    +0.000 A 
ATOM     15  C   UNL     1      -4.819  13.012  21.725  0.00  0.00    +0.000 A 
ATOM     16  C   UNL     1      -5.426  13.297  20.400  0.00  0.00    +0.000 C 
BRANCH  11  18
ATOM     17  C   UNL     1      -7.525  13.393  24.248  0.00  0.00    +0.000 C 
ATOM     18  C   UNL     1      -7.031  12.761  22.958  0.00  0.00    +0.000 C 
ENDBRANCH  11  18
ENDBRANCH   1  14
BRANCH   4  19
ATOM     19  S   UNL     1       0.147  10.226  18.438  0.00  0.00    +0.000 S 
BRANCH  19  20
ATOM     20  C   UNL     1       1.319   9.307  19.504  0.00  0.00    +0.000 C 
ATOM     21  C   UNL     1       0.737   8.345  20.551  0.00  0.00    +0.000 C 
ATOM     22  C   UNL     1       1.847   7.315  20.709  0.00  0.00    +0.000 C 
ATOM     23  N   UNL     1       2.299   7.133  19.347  0.00  0.00    +0.000 N 
ATOM     24  C   UNL     1       2.719   5.989  18.703  0.00  0.00    +0.000 C 
ATOM     25  O   UNL     1       3.123   6.034  17.539  0.00  0.00    +0.000 OA
ATOM     26  C   UNL     1       2.170   8.383  18.609  0.00  0.00    +0.000 C 
BRANCH  24  27
ATOM     27  C   UNL     1       2.600   4.660  19.448  0.00  0.00    +0.000 C 
ATOM     28  C   UNL     1       3.938   3.904  19.421  0.00  0.00    +0.000 C 
ATOM     29  C   UNL     1       3.795   2.487  19.954  0.00  0.00    +0.000 C 
ATOM     30  O   UNL     1       2.772   1.778  19.257  0.00  0.00    +0.000 OA
ATOM     31  C   UNL     1       1.497   2.396  19.404  0.00  0.00    +0.000 C 
ATOM     32  C   UNL     1       1.505   3.794  18.806  0.00  0.00    +0.000 C 
ENDBRANCH  24  27
ENDBRANCH  19  20
ENDBRANCH   4  19
TORSDOF 5
ENDMDL
MODEL 3
REMARK VINA RESULT:      -7.5      1.971      3.416
REMARK  Name = 
REMARK  8 active torsions:
REMARK  status: ('A' for Active; 'I' for Inactive)
REMARK    1  A    between atoms: C_1  and  C_2
REMARK    2  A    between atoms: C_2  and  N_3
REMARK    3  A    between atoms: C_6  and  C_7
REMARK    4  A    between atoms: C_10  and  S_11
REMARK    5  A    between atoms: S_11  and  C_12
REMARK    6  A    between atoms: C_16  and  C_18
REMARK    7  A    between atoms: N_29  and  C_30
REMARK    8  A    between atoms: C_31  and  C_32
REMARK                            x       y       z     vdW  Elec       q    Type
REMARK                         _______ _______ _______ _____ _____    ______ ____
ROOT
ATOM      1  C   UNL     1       4.589   5.281  17.671  0.00  0.00    +0.000 A 
ATOM      2  N   UNL     1       3.964   6.374  18.085  0.00  0.00    +0.000 NA
ATOM      3  C   UNL     1       3.083   5.970  19.067  0.00  0.00    +0.000 A 
ATOM      4  C   UNL     1       2.147   6.623  19.873  0.00  0.00    +0.000 A 
ATOM      5  N   UNL     1       1.456   5.916  20.802  0.00  0.00    +0.000 NA
ATOM      6  C   UNL     1       1.688   4.595  20.901  0.00  0.00    +0.000 A 
ATOM      7  N   UNL     1       2.522   3.852  20.155  0.00  0.00    +0.000 NA
ATOM      8  C   UNL     1       3.186   4.606  19.261  0.00  0.00    +0.000 A 
ATOM      9  N   UNL     1       4.107   4.173  18.344  0.00  0.00    +0.000 N 
ATOM     10  C   UNL     1       4.498   2.798  18.189  0.00  0.00    +0.000 C 
ENDROOT
BRANCH   1  14
ATOM     11  N   UNL     1       6.804   5.004  14.761  0.00  0.00    +0.000 N 
ATOM     12  N   UNL     1       7.603   5.783  15.513  0.00  0.00    +0.000 NA
ATOM     13  C   UNL     1       6.903   5.969  16.631  0.00  0.00    +0.000 A 
ATOM     14  C   UNL     1       5.660   5.304  16.617  0.00  0.00    +0.000 A 
ATOM     15  C   UNL     1       5.621   4.669  15.383  0.00  0.00    +0.000 A 
ATOM     16  C   UNL     1       4.586   3.836  14.718  0.00  0.00    +0.000 C 
BRANCH  11  18
ATOM     17  C   UNL     1       8.148   5.712  12.815  0.00  0.00    +0.000 C 
ATOM     18  C   UNL     1       7.242   4.654  13.422  0.00  0.00    +0.000 C 
ENDBRANCH  11  18
ENDBRANCH   1  14
BRANCH   4  19
ATOM     19  S   UNL     1       1.875   8.360  19.819  0.00  0.00    +0.000 S 
BRANCH  19  20
ATOM     20  C   UNL     1       0.568   8.639  21.070  0.00  0.00    +0.000 C 
ATOM     21  C   UNL     1       0.995   9.145  22.456  0.00  0.00    +0.000 C 
ATOM     22  C   UNL     1      -0.239   9.901  22.930  0.00  0.00    +0.000 C 
ATOM     23  N   UNL     1      -0.672  10.575  21.725  0.00  0.00    +0.000 N 
ATOM     24  C   UNL     1      -1.213  11.832  21.564  0.00  0.00    +0.000 C 
ATOM     25  O   UNL     1      -1.576  12.224  20.452  0.00  0.00    +0.000 OA
ATOM     26  C   UNL     1      -0.367   9.755  20.559  0.00  0.00    +0.000 C 
BRANCH  24  27
ATOM     27  C   UNL     1      -1.282  12.747  22.786  0.00  0.00    +0.000 C 
ATOM     28  C   UNL     1      -2.733  12.884  23.276  0.00  0.00    +0.000 C 
ATOM     29  C   UNL     1      -2.866  13.958  24.345  0.00  0.00    +0.000 C 
ATOM     30  O   UNL     1      -2.342  15.203  23.888  0.00  0.00    +0.000 OA
ATOM     31  C   UNL     1      -0.955  15.117  23.574  0.00  0.00    +0.000 C 
ATOM     32  C   UNL     1      -0.723  14.134  22.437  0.00  0.00    +0.000 C 
ENDBRANCH  24  27
ENDBRANCH  19  20
ENDBRANCH   4  19
TORSDOF 5
ENDMDL
MODEL 4
REMARK VINA RESULT:      -7.5      5.979      8.575
REMARK  Name = 
REMARK  8 active torsions:
REMARK  status: ('A' for Active; 'I' for Inactive)
REMARK    1  A    between atoms: C_1  and  C_2
REMARK    2  A    between atoms: C_2  and  N_3
REMARK    3  A    between atoms: C_6  and  C_7
REMARK    4  A    between atoms: C_10  and  S_11
REMARK    5  A    between atoms: S_11  and  C_12
REMARK    6  A    between atoms: C_16  and  C_18
REMARK    7  A    between atoms: N_29  and  C_30
REMARK    8  A    between atoms: C_31  and  C_32
REMARK                            x       y       z     vdW  Elec       q    Type
REMARK                         _______ _______ _______ _____ _____    ______ ____
ROOT
ATOM      1  C   UNL     1      -5.683  12.466  19.886  0.00  0.00    +0.000 A 
ATOM      2  N   UNL     1      -5.438  13.640  20.451  0.00  0.00    +0.000 NA
ATOM      3  C   UNL     1      -6.118  13.642  21.652  0.00  0.00    +0.000 A 
ATOM      4  C   UNL     1      -6.274  14.567  22.688  0.00  0.00    +0.000 A 
ATOM      5  N   UNL     1      -6.993  14.225  23.786  0.00  0.00    +0.000 NA
ATOM      6  C   UNL     1      -7.550  13.003  23.829  0.00  0.00    +0.000 A 
ATOM      7  N   UNL     1      -7.511  12.051  22.882  0.00  0.00    +0.000 NA
ATOM      8  C   UNL     1      -6.777  12.440  21.824  0.00  0.00    +0.000 A 
ATOM      9  N   UNL     1      -6.533  11.722  20.684  0.00  0.00    +0.000 N 
ATOM     10  C   UNL     1      -7.058  10.406  20.438  0.00  0.00    +0.000 C 
ENDROOT
BRANCH   1  14
ATOM     11  N   UNL     1      -3.719  11.378  16.986  0.00  0.00    +0.000 N 
ATOM     12  N   UNL     1      -4.896  11.529  16.352  0.00  0.00    +0.000 NA
ATOM     13  C   UNL     1      -5.725  11.932  17.313  0.00  0.00    +0.000 A 
ATOM     14  C   UNL     1      -5.092  12.058  18.567  0.00  0.00    +0.000 A 
ATOM     15  C   UNL     1      -3.773  11.698  18.326  0.00  0.00    +0.000 A 
ATOM     16  C   UNL     1      -2.590  11.577  19.216  0.00  0.00    +0.000 C 
BRANCH  11  18
ATOM     17  C   UNL     1      -2.991  10.342  14.867  0.00  0.00    +0.000 C 
ATOM     18  C   UNL     1      -2.586  10.876  16.230  0.00  0.00    +0.000 C 
ENDBRANCH  11  18
ENDBRANCH   1  14
BRANCH   4  19
ATOM     19  S   UNL     1      -5.498  16.146  22.695  0.00  0.00    +0.000 S 
BRANCH  19  20
ATOM     20  C   UNL     1      -3.859  15.825  23.446  0.00  0.00    +0.000 C 
ATOM     21  C   UNL     1      -3.694  14.558  24.300  0.00  0.00    +0.000 C 
ATOM     22  C   UNL     1      -2.212  14.246  24.149  0.00  0.00    +0.000 C 
ATOM     23  N   UNL     1      -1.975  14.529  22.750  0.00  0.00    +0.000 N 
ATOM     24  C   UNL     1      -1.164  13.881  21.844  0.00  0.00    +0.000 C 
ATOM     25  O   UNL     1      -1.045  14.301  20.691  0.00  0.00    +0.000 OA
ATOM     26  C   UNL     1      -2.834  15.623  22.312  0.00  0.00    +0.000 C 
BRANCH  24  27
ATOM     27  C   UNL     1      -0.477  12.591  22.290  0.00  0.00    +0.000 C 
ATOM     28  C   UNL     1       0.322  11.976  21.129  0.00  0.00    +0.000 C 
ATOM     29  C   UNL     1       0.830  10.584  21.470  0.00  0.00    +0.000 C 
ATOM     30  O   UNL     1      -0.238   9.736  21.885  0.00  0.00    +0.000 OA
ATOM     31  C   UNL     1      -0.888  10.226  23.054  0.00  0.00    +0.000 C 
ATOM     32  C   UNL     1      -1.523  11.582  22.786  0.00  0.00    +0.000 C 
ENDBRANCH  24  27
ENDBRANCH  19  20
ENDBRANCH   4  19
TORSDOF 5
ENDMDL
MODEL 5
REMARK VINA RESULT:      -7.5      3.573     10.789
REMARK  Name = 
REMARK  8 active torsions:
REMARK  status: ('A' for Active; 'I' for Inactive)
REMARK    1  A    between atoms: C_1  and  C_2
REMARK    2  A    between atoms: C_2  and  N_3
REMARK    3  A    between atoms: C_6  and  C_7
REMARK    4  A    between atoms: C_10  and  S_11
REMARK    5  A    between atoms: S_11  and  C_12
REMARK    6  A    between atoms: C_16  and  C_18
REMARK    7  A    between atoms: N_29  and  C_30
REMARK    8  A    between atoms: C_31  and  C_32
REMARK                            x       y       z     vdW  Elec       q    Type
REMARK                         _______ _______ _______ _____ _____    ______ ____
ROOT
ATOM      1  C   UNL     1      -2.317  12.681  21.894  0.00  0.00    +0.000 A 
ATOM      2  N   UNL     1      -1.432  11.695  21.902  0.00  0.00    +0.000 NA
ATOM      3  C   UNL     1      -0.407  12.086  21.067  0.00  0.00    +0.000 A 
ATOM      4  C   UNL     1       0.793  11.504  20.647  0.00  0.00    +0.000 A 
ATOM      5  N   UNL     1       1.625  12.200  19.833  0.00  0.00    +0.000 NA
ATOM      6  C   UNL     1       1.252  13.430  19.440  0.00  0.00    +0.000 A 
ATOM      7  N   UNL     1       0.110  14.073  19.736  0.00  0.00    +0.000 NA
ATOM      8  C   UNL     1      -0.669  13.342  20.553  0.00  0.00    +0.000 A 
ATOM      9  N   UNL     1      -1.898  13.690  21.046  0.00  0.00    +0.000 N 
ATOM     10  C   UNL     1      -2.565  14.926  20.736  0.00  0.00    +0.000 C 
ENDROOT
BRANCH   1  14
ATOM     11  N   UNL     1      -5.686  12.622  23.343  0.00  0.00    +0.000 N 
ATOM     12  N   UNL     1      -5.000  12.531  24.497  0.00  0.00    +0.000 NA
ATOM     13  C   UNL     1      -3.725  12.541  24.109  0.00  0.00    +0.000 A 
ATOM     14  C   UNL     1      -3.578  12.652  22.711  0.00  0.00    +0.000 A 
ATOM     15  C   UNL     1      -4.878  12.714  22.230  0.00  0.00    +0.000 A 
ATOM     16  C   UNL     1      -5.433  12.799  20.854  0.00  0.00    +0.000 C 
BRANCH  11  18
ATOM     17  C   UNL     1      -7.718  13.639  24.309  0.00  0.00    +0.000 C 
ATOM     18  C   UNL     1      -7.136  12.574  23.396  0.00  0.00    +0.000 C 
ENDBRANCH  11  18
ENDBRANCH   1  14
BRANCH   4  19
ATOM     19  S   UNL     1       1.344   9.928  21.203  0.00  0.00    +0.000 S 
BRANCH  19  20
ATOM     20  C   UNL     1       1.192   8.863  19.721  0.00  0.00    +0.000 C 
ATOM     21  C   UNL     1       1.886   9.324  18.430  0.00  0.00    +0.000 C 
ATOM     22  C   UNL     1       2.167   8.009  17.716  0.00  0.00    +0.000 C 
ATOM     23  N   UNL     1       2.580   7.147  18.802  0.00  0.00    +0.000 N 
ATOM     24  C   UNL     1       3.546   6.165  18.831  0.00  0.00    +0.000 C 
ATOM     25  O   UNL     1       3.726   5.487  19.845  0.00  0.00    +0.000 OA
ATOM     26  C   UNL     1       1.869   7.510  20.022  0.00  0.00    +0.000 C 
BRANCH  24  27
ATOM     27  C   UNL     1       4.433   5.994  17.598  0.00  0.00    +0.000 C 
ATOM     28  C   UNL     1       4.212   4.612  16.962  0.00  0.00    +0.000 C 
ATOM     29  C   UNL     1       5.235   4.324  15.874  0.00  0.00    +0.000 C 
ATOM     30  O   UNL     1       6.564   4.473  16.368  0.00  0.00    +0.000 OA
ATOM     31  C   UNL     1       6.821   5.799  16.822  0.00  0.00    +0.000 C 
ATOM     32  C   UNL     1       5.911   6.153  17.987  0.00  0.00    +0.000 C 
ENDBRANCH  24  27
ENDBRANCH  19  20
ENDBRANCH   4  19
TORSDOF 5
ENDMDL
MODEL 6
REMARK VINA RESULT:      -7.4      2.046      3.407
REMARK  Name = 
REMARK  8 active torsions:
REMARK  status: ('A' for Active; 'I' for Inactive)
REMARK    1  A    between atoms: C_1  and  C_2
REMARK    2  A    between atoms: C_2  and  N_3
REMARK    3  A    between atoms: C_6  and  C_7
REMARK    4  A    between atoms: C_10  and  S_11
REMARK    5  A    between atoms: S_11  and  C_12
REMARK    6  A    between atoms: C_16  and  C_18
REMARK    7  A    between atoms: N_29  and  C_30
REMARK    8  A    between atoms: C_31  and  C_32
REMARK                            x       y       z     vdW  Elec       q    Type
REMARK                         _______ _______ _______ _____ _____    ______ ____
ROOT
ATOM      1  C   UNL     1       4.142   4.823  17.306  0.00  0.00    +0.000 A 
ATOM      2  N   UNL     1       3.659   5.963  17.778  0.00  0.00    +0.000 NA
ATOM      3  C   UNL     1       2.912   5.638  18.891  0.00  0.00    +0.000 A 
ATOM      4  C   UNL     1       2.152   6.367  19.810  0.00  0.00    +0.000 A 
ATOM      5  N   UNL     1       1.567   5.726  20.852  0.00  0.00    +0.000 NA
ATOM      6  C   UNL     1       1.725   4.395  20.953  0.00  0.00    +0.000 A 
ATOM      7  N   UNL     1       2.388   3.584  20.112  0.00  0.00    +0.000 NA
ATOM      8  C   UNL     1       2.956   4.274  19.108  0.00  0.00    +0.000 A 
ATOM      9  N   UNL     1       3.698   3.762  18.076  0.00  0.00    +0.000 N 
ATOM     10  C   UNL     1       3.973   2.361  17.904  0.00  0.00    +0.000 C 
ENDROOT
BRANCH   1  14
ATOM     11  N   UNL     1       6.729   4.990  14.712  0.00  0.00    +0.000 N 
ATOM     12  N   UNL     1       5.866   4.202  14.046  0.00  0.00    +0.000 NA
ATOM     13  C   UNL     1       4.851   4.054  14.895  0.00  0.00    +0.000 A 
ATOM     14  C   UNL     1       5.041   4.753  16.105  0.00  0.00    +0.000 A 
ATOM     15  C   UNL     1       6.277   5.367  15.958  0.00  0.00    +0.000 A 
ATOM     16  C   UNL     1       7.087   6.217  16.869  0.00  0.00    +0.000 C 
BRANCH  11  18
ATOM     17  C   UNL     1       7.882   5.473  12.583  0.00  0.00    +0.000 C 
ATOM     18  C   UNL     1       8.002   5.304  14.088  0.00  0.00    +0.000 C 
ENDBRANCH  11  18
ENDBRANCH   1  14
BRANCH   4  19
ATOM     19  S   UNL     1       1.987   8.118  19.747  0.00  0.00    +0.000 S 
BRANCH  19  20
ATOM     20  C   UNL     1       0.718   8.484  21.015  0.00  0.00    +0.000 C 
ATOM     21  C   UNL     1       1.191   9.043  22.365  0.00  0.00    +0.000 C 
ATOM     22  C   UNL     1      -0.014   9.849  22.833  0.00  0.00    +0.000 C 
ATOM     23  N   UNL     1      -0.460  10.478  21.609  0.00  0.00    +0.000 N 
ATOM     24  C   UNL     1      -0.977  11.738  21.403  0.00  0.00    +0.000 C 
ATOM     25  O   UNL     1      -1.358  12.089  20.284  0.00  0.00    +0.000 OA
ATOM     26  C   UNL     1      -0.203   9.598  20.475  0.00  0.00    +0.000 C 
BRANCH  24  27
ATOM     27  C   UNL     1      -0.994  12.709  22.583  0.00  0.00    +0.000 C 
ATOM     28  C   UNL     1      -2.411  12.821  23.169  0.00  0.00    +0.000 C 
ATOM     29  C   UNL     1      -2.509  13.941  24.193  0.00  0.00    +0.000 C 
ATOM     30  O   UNL     1      -2.065  15.179  23.643  0.00  0.00    +0.000 OA
ATOM     31  C   UNL     1      -0.702  15.125  23.234  0.00  0.00    +0.000 C 
ATOM     32  C   UNL     1      -0.513  14.096  22.130  0.00  0.00    +0.000 C 
ENDBRANCH  24  27
ENDBRANCH  19  20
ENDBRANCH   4  19
TORSDOF 5
ENDMDL
MODEL 7
REMARK VINA RESULT:      -7.4      2.347      3.397
REMARK  Name = 
REMARK  8 active torsions:
REMARK  status: ('A' for Active; 'I' for Inactive)
REMARK    1  A    between atoms: C_1  and  C_2
REMARK    2  A    between atoms: C_2  and  N_3
REMARK    3  A    between atoms: C_6  and  C_7
REMARK    4  A    between atoms: C_10  and  S_11
REMARK    5  A    between atoms: S_11  and  C_12
REMARK    6  A    between atoms: C_16  and  C_18
REMARK    7  A    between atoms: N_29  and  C_30
REMARK    8  A    between atoms: C_31  and  C_32
REMARK                            x       y       z     vdW  Elec       q    Type
REMARK                         _______ _______ _______ _____ _____    ______ ____
ROOT
ATOM      1  C   UNL     1       1.989   6.888  19.732  0.00  0.00    +0.000 A 
ATOM      2  N   UNL     1       1.243   7.590  20.572  0.00  0.00    +0.000 NA
ATOM      3  C   UNL     1       1.238   8.886  20.098  0.00  0.00    +0.000 A 
ATOM      4  C   UNL     1       0.660  10.085  20.526  0.00  0.00    +0.000 A 
ATOM      5  N   UNL     1       0.816  11.206  19.778  0.00  0.00    +0.000 NA
ATOM      6  C   UNL     1       1.544  11.125  18.651  0.00  0.00    +0.000 A 
ATOM      7  N   UNL     1       2.184  10.049  18.165  0.00  0.00    +0.000 NA
ATOM      8  C   UNL     1       1.985   8.967  18.939  0.00  0.00    +0.000 A 
ATOM      9  N   UNL     1       2.492   7.711  18.740  0.00  0.00    +0.000 N 
ATOM     10  C   UNL     1       3.354   7.358  17.644  0.00  0.00    +0.000 C 
ENDROOT
BRANCH   1  14
ATOM     11  N   UNL     1       2.326   3.242  19.530  0.00  0.00    +0.000 N 
ATOM     12  N   UNL     1       2.871   3.399  20.750  0.00  0.00    +0.000 NA
ATOM     13  C   UNL     1       2.813   4.713  20.957  0.00  0.00    +0.000 A 
ATOM     14  C   UNL     1       2.220   5.411  19.885  0.00  0.00    +0.000 A 
ATOM     15  C   UNL     1       1.899   4.423  18.964  0.00  0.00    +0.000 A 
ATOM     16  C   UNL     1       1.291   4.477  17.610  0.00  0.00    +0.000 C 
BRANCH  11  18
ATOM     17  C   UNL     1       3.599   1.530  18.287  0.00  0.00    +0.000 C 
ATOM     18  C   UNL     1       2.289   1.909  18.956  0.00  0.00    +0.000 C 
ENDBRANCH  11  18
ENDBRANCH   1  14
BRANCH   4  19
ATOM     19  S   UNL     1      -0.358  10.206  21.955  0.00  0.00    +0.000 S 
BRANCH  19  20
ATOM     20  C   UNL     1      -1.094  11.878  21.829  0.00  0.00    +0.000 C 
ATOM     21  C   UNL     1      -2.222  12.093  20.809  0.00  0.00    +0.000 C 
ATOM     22  C   UNL     1      -3.017  13.235  21.428  0.00  0.00    +0.000 C 
ATOM     23  N   UNL     1      -3.011  12.892  22.834  0.00  0.00    +0.000 N 
ATOM     24  C   UNL     1      -4.000  13.041  23.781  0.00  0.00    +0.000 C 
ATOM     25  O   UNL     1      -3.796  12.736  24.959  0.00  0.00    +0.000 OA
ATOM     26  C   UNL     1      -1.765  12.218  23.176  0.00  0.00    +0.000 C 
BRANCH  24  27
ATOM     27  C   UNL     1      -5.374  13.523  23.317  0.00  0.00    +0.000 C 
ATOM     28  C   UNL     1      -5.558  15.015  23.636  0.00  0.00    +0.000 C 
ATOM     29  C   UNL     1      -6.989  15.470  23.393  0.00  0.00    +0.000 C 
ATOM     30  O   UNL     1      -7.914  14.657  24.112  0.00  0.00    +0.000 OA
ATOM     31  C   UNL     1      -7.851  13.291  23.711  0.00  0.00    +0.000 C 
ATOM     32  C   UNL     1      -6.478  12.708  24.007  0.00  0.00    +0.000 C 
ENDBRANCH  24  27
ENDBRANCH  19  20
ENDBRANCH   4  19
TORSDOF 5
ENDMDL
MODEL 8
REMARK VINA RESULT:      -7.3      2.200      3.301
REMARK  Name = 
REMARK  8 active torsions:
REMARK  status: ('A' for Active; 'I' for Inactive)
REMARK    1  A    between atoms: C_1  and  C_2
REMARK    2  A    between atoms: C_2  and  N_3
REMARK    3  A    between atoms: C_6  and  C_7
REMARK    4  A    between atoms: C_10  and  S_11
REMARK    5  A    between atoms: S_11  and  C_12
REMARK    6  A    between atoms: C_16  and  C_18
REMARK    7  A    between atoms: N_29  and  C_30
REMARK    8  A    between atoms: C_31  and  C_32
REMARK                            x       y       z     vdW  Elec       q    Type
REMARK                         _______ _______ _______ _____ _____    ______ ____
ROOT
ATOM      1  C   UNL     1       2.930   6.717  19.193  0.00  0.00    +0.000 A 
ATOM      2  N   UNL     1       2.104   7.222  20.098  0.00  0.00    +0.000 NA
ATOM      3  C   UNL     1       1.666   8.429  19.594  0.00  0.00    +0.000 A 
ATOM      4  C   UNL     1       0.809   9.432  20.056  0.00  0.00    +0.000 A 
ATOM      5  N   UNL     1       0.546  10.502  19.265  0.00  0.00    +0.000 NA
ATOM      6  C   UNL     1       1.140  10.569  18.062  0.00  0.00    +0.000 A 
ATOM      7  N   UNL     1       2.014   9.698  17.531  0.00  0.00    +0.000 NA
ATOM      8  C   UNL     1       2.227   8.654  18.352  0.00  0.00    +0.000 A 
ATOM      9  N   UNL     1       3.059   7.589  18.127  0.00  0.00    +0.000 N 
ATOM     10  C   UNL     1       3.865   7.436  16.946  0.00  0.00    +0.000 C 
ENDROOT
BRANCH   1  14
ATOM     11  N   UNL     1       3.994   3.232  19.611  0.00  0.00    +0.000 N 
ATOM     12  N   UNL     1       5.219   3.775  19.495  0.00  0.00    +0.000 NA
ATOM     13  C   UNL     1       4.977   5.074  19.333  0.00  0.00    +0.000 A 
ATOM     14  C   UNL     1       3.602   5.383  19.357  0.00  0.00    +0.000 A 
ATOM     15  C   UNL     1       2.975   4.159  19.550  0.00  0.00    +0.000 A 
ATOM     16  C   UNL     1       1.544   3.769  19.633  0.00  0.00    +0.000 C 
BRANCH  11  18
ATOM     17  C   UNL     1       3.815   1.093  18.392  0.00  0.00    +0.000 C 
ATOM     18  C   UNL     1       3.885   1.790  19.740  0.00  0.00    +0.000 C 
ENDBRANCH  11  18
ENDBRANCH   1  14
BRANCH   4  19
ATOM     19  S   UNL     1      -0.042   9.338  21.593  0.00  0.00    +0.000 S 
BRANCH  19  20
ATOM     20  C   UNL     1      -0.310  11.090  22.053  0.00  0.00    +0.000 C 
ATOM     21  C   UNL     1      -0.822  12.049  20.969  0.00  0.00    +0.000 C 
ATOM     22  C   UNL     1      -1.567  13.101  21.779  0.00  0.00    +0.000 C 
ATOM     23  N   UNL     1      -2.235  12.304  22.785  0.00  0.00    +0.000 N 
ATOM     24  C   UNL     1      -3.485  12.455  23.343  0.00  0.00    +0.000 C 
ATOM     25  O   UNL     1      -3.872  11.700  24.238  0.00  0.00    +0.000 OA
ATOM     26  C   UNL     1      -1.415  11.148  23.128  0.00  0.00    +0.000 C 
BRANCH  24  27
ATOM     27  C   UNL     1      -4.402  13.536  22.770  0.00  0.00    +0.000 C 
ATOM     28  C   UNL     1      -5.196  14.221  23.893  0.00  0.00    +0.000 C 
ATOM     29  C   UNL     1      -6.275  15.139  23.341  0.00  0.00    +0.000 C 
ATOM     30  O   UNL     1      -7.130  14.440  22.439  0.00  0.00    +0.000 OA
ATOM     31  C   UNL     1      -6.419  13.929  21.314  0.00  0.00    +0.000 C 
ATOM     32  C   UNL     1      -5.375  12.916  21.755  0.00  0.00    +0.000 C 
ENDBRANCH  24  27
ENDBRANCH  19  20
ENDBRANCH   4  19
TORSDOF 5
ENDMDL
MODEL 9
REMARK VINA RESULT:      -7.3      4.121      6.046
REMARK  Name = 
REMARK  8 active torsions:
REMARK  status: ('A' for Active; 'I' for Inactive)
REMARK    1  A    between atoms: C_1  and  C_2
REMARK    2  A    between atoms: C_2  and  N_3
REMARK    3  A    between atoms: C_6  and  C_7
REMARK    4  A    between atoms: C_10  and  S_11
REMARK    5  A    between atoms: S_11  and  C_12
REMARK    6  A    between atoms: C_16  and  C_18
REMARK    7  A    between atoms: N_29  and  C_30
REMARK    8  A    between atoms: C_31  and  C_32
REMARK                            x       y       z     vdW  Elec       q    Type
REMARK                         _______ _______ _______ _____ _____    ______ ____
ROOT
ATOM      1  C   UNL     1       2.358   7.623  18.987  0.00  0.00    +0.000 A 
ATOM      2  N   UNL     1       1.919   8.814  18.607  0.00  0.00    +0.000 NA
ATOM      3  C   UNL     1       1.105   9.271  19.623  0.00  0.00    +0.000 A 
ATOM      4  C   UNL     1       0.346  10.427  19.827  0.00  0.00    +0.000 A 
ATOM      5  N   UNL     1      -0.322  10.590  20.996  0.00  0.00    +0.000 NA
ATOM      6  C   UNL     1      -0.244   9.614  21.917  0.00  0.00    +0.000 A 
ATOM      7  N   UNL     1       0.409   8.444  21.818  0.00  0.00    +0.000 NA
ATOM      8  C   UNL     1       1.061   8.343  20.646  0.00  0.00    +0.000 A 
ATOM      9  N   UNL     1       1.819   7.287  20.216  0.00  0.00    +0.000 N 
ATOM     10  C   UNL     1       2.022   6.083  20.977  0.00  0.00    +0.000 C 
ENDROOT
BRANCH   1  14
ATOM     11  N   UNL     1       4.223   5.189  16.974  0.00  0.00    +0.000 N 
ATOM     12  N   UNL     1       5.133   6.179  16.937  0.00  0.00    +0.000 NA
ATOM     13  C   UNL     1       4.571   7.155  17.648  0.00  0.00    +0.000 A 
ATOM     14  C   UNL     1       3.306   6.801  18.160  0.00  0.00    +0.000 A 
ATOM     15  C   UNL     1       3.102   5.503  17.713  0.00  0.00    +0.000 A 
ATOM     16  C   UNL     1       1.964   4.560  17.862  0.00  0.00    +0.000 C 
BRANCH  11  18
ATOM     17  C   UNL     1       5.832   4.018  15.513  0.00  0.00    +0.000 C 
ATOM     18  C   UNL     1       4.493   3.972  16.230  0.00  0.00    +0.000 C 
ENDBRANCH  11  18
ENDBRANCH   1  14
BRANCH   4  19
ATOM     19  S   UNL     1       0.284  11.753  18.673  0.00  0.00    +0.000 S 
BRANCH  19  20
ATOM     20  C   UNL     1       1.069  13.147  19.564  0.00  0.00    +0.000 C 
ATOM     21  C   UNL     1       2.290  12.842  20.444  0.00  0.00    +0.000 C 
ATOM     22  C   UNL     1       3.053  14.160  20.423  0.00  0.00    +0.000 C 
ATOM     23  N   UNL     1       2.911  14.579  19.046  0.00  0.00    +0.000 N 
ATOM     24  C   UNL     1       3.813  15.214  18.220  0.00  0.00    +0.000 C 
ATOM     25  O   UNL     1       3.495  15.546  17.076  0.00  0.00    +0.000 OA
ATOM     26  C   UNL     1       1.623  14.142  18.523  0.00  0.00    +0.000 C 
BRANCH  24  27
ATOM     27  C   UNL     1       5.235  15.428  18.738  0.00  0.00    +0.000 C 
ATOM     28  C   UNL     1       5.557  16.928  18.827  0.00  0.00    +0.000 C 
ATOM     29  C   UNL     1       7.030  17.170  19.122  0.00  0.00    +0.000 C 
ATOM     30  O   UNL     1       7.859  16.506  18.171  0.00  0.00    +0.000 OA
ATOM     31  C   UNL     1       7.671  15.094  18.190  0.00  0.00    +0.000 C 
ATOM     32  C   UNL     1       6.243  14.737  17.807  0.00  0.00    +0.000 C 
ENDBRANCH  24  27
ENDBRANCH  19  20
ENDBRANCH   4  19
TORSDOF 5
ENDMDL
