MODEL 1
REMARK VINA RESULT:      -8.1      0.000      0.000
REMARK  Name = 
REMARK  7 active torsions:
REMARK  status: ('A' for Active; 'I' for Inactive)
REMARK    1  A    between atoms: C_1  and  C_2
REMARK    2  A    between atoms: N_4  and  C_5
REMARK    3  A    between atoms: C_5  and  C_6
REMARK    4  A    between atoms: C_8  and  C_9
REMARK    5  A    between atoms: C_12  and  C_13
REMARK    6  A    between atoms: C_17  and  C_19
REMARK    7  A    between atoms: C_19  and  O_20
REMARK                            x       y       z     vdW  Elec       q    Type
REMARK                         _______ _______ _______ _____ _____    ______ ____
ROOT
ATOM      1  C   UNL     1       2.925   6.841  18.603  0.00  0.00    +0.000 A 
ATOM      2  C   UNL     1       2.625   7.919  17.769  0.00  0.00    +0.000 A 
ATOM      3  C   UNL     1       1.803   8.957  18.227  0.00  0.00    +0.000 A 
ATOM      4  C   UNL     1       1.253   8.935  19.519  0.00  0.00    +0.000 A 
ATOM      5  C   UNL     1       1.561   7.840  20.342  0.00  0.00    +0.000 A 
ATOM      6  C   UNL     1       2.387   6.804  19.893  0.00  0.00    +0.000 A 
ENDROOT
BRANCH   4   7
ATOM      7  C   UNL     1       0.397  10.038  20.018  0.00  0.00    +0.000 C 
ATOM      8  C   UNL     1      -0.444  10.721  19.213  0.00  0.00    +0.000 C 
ATOM      9  C   UNL     1      -1.386  11.805  19.662  0.00  0.00    +0.000 C 
ATOM     10  N   UNL     1      -1.424  11.905  21.113  0.00  0.00    +0.000 N 
ATOM     11  C   UNL     1      -2.579  12.389  21.707  0.00  0.00    +0.000 C 
ATOM     12  O   UNL     1      -3.567  12.742  21.058  0.00  0.00    +0.000 OA
ATOM     13  C   UNL     1      -0.144  11.740  21.798  0.00  0.00    +0.000 C 
ATOM     14  C   UNL     1       0.456  10.369  21.492  0.00  0.00    +0.000 C 
BRANCH  11  15
ATOM     15  C   UNL     1      -2.605  12.483  23.240  0.00  0.00    +0.000 C 
BRANCH  15  16
ATOM     16  O   UNL     1      -3.834  12.042  23.799  0.00  0.00    +0.000 OA
ATOM     17  H   UNL     1      -4.317  11.606  23.069  0.00  0.00    +0.000 HD
ENDBRANCH  15  16
ENDBRANCH  11  15
ENDBRANCH   4   7
BRANCH   1  20
ATOM     18  C   UNL     1       5.669   4.425  17.860  0.00  0.00    +0.000 C 
ATOM     19  C   UNL     1       5.277   5.780  18.406  0.00  0.00    +0.000 C 
ATOM     20  C   UNL     1       3.813   5.742  18.162  0.00  0.00    +0.000 C 
ATOM     21  N   UNL     1       3.381   4.695  17.539  0.00  0.00    +0.000 NA
ATOM     22  O   UNL     1       4.485   3.862  17.270  0.00  0.00    +0.000 OA
BRANCH  18  23
ATOM     23  C   UNL     1       6.741   4.536  16.775  0.00  0.00    +0.000 C 
BRANCH  23  27
ATOM     24  C   UNL     1       6.245   3.800  13.099  0.00  0.00    +0.000 C 
ATOM     25  C   UNL     1       6.816   4.488  14.309  0.00  0.00    +0.000 C 
ATOM     26  O   UNL     1       7.655   5.377  14.240  0.00  0.00    +0.000 OA
ATOM     27  N   UNL     1       6.290   4.024  15.492  0.00  0.00    +0.000 N 
ATOM     28  H   UNL     1       5.796   3.139  15.493  0.00  0.00    +0.000 HD
ENDBRANCH  23  27
ENDBRANCH  18  23
ENDBRANCH   1  20
TORSDOF 6
ENDMDL
MODEL 2
REMARK VINA RESULT:      -8.1      1.558      2.560
REMARK  Name = 
REMARK  7 active torsions:
REMARK  status: ('A' for Active; 'I' for Inactive)
REMARK    1  A    between atoms: C_1  and  C_2
REMARK    2  A    between atoms: N_4  and  C_5
REMARK    3  A    between atoms: C_5  and  C_6
REMARK    4  A    between atoms: C_8  and  C_9
REMARK    5  A    between atoms: C_12  and  C_13
REMARK    6  A    between atoms: C_17  and  C_19
REMARK    7  A    between atoms: C_19  and  O_20
REMARK                            x       y       z     vdW  Elec       q    Type
REMARK                         _______ _______ _______ _____ _____    ______ ____
ROOT
ATOM      1  C   UNL     1       3.984   6.068  17.712  0.00  0.00    +0.000 A 
ATOM      2  C   UNL     1       3.383   5.623  18.891  0.00  0.00    +0.000 A 
ATOM      3  C   UNL     1       2.497   6.454  19.587  0.00  0.00    +0.000 A 
ATOM      4  C   UNL     1       2.201   7.749  19.132  0.00  0.00    +0.000 A 
ATOM      5  C   UNL     1       2.818   8.182  17.948  0.00  0.00    +0.000 A 
ATOM      6  C   UNL     1       3.699   7.354  17.244  0.00  0.00    +0.000 A 
ENDROOT
BRANCH   4   7
ATOM      7  C   UNL     1       1.250   8.628  19.854  0.00  0.00    +0.000 C 
ATOM      8  C   UNL     1       0.897   8.411  21.138  0.00  0.00    +0.000 C 
ATOM      9  C   UNL     1      -0.009   9.295  21.951  0.00  0.00    +0.000 C 
ATOM     10  N   UNL     1      -0.316  10.530  21.244  0.00  0.00    +0.000 N 
ATOM     11  C   UNL     1      -0.619  11.656  21.993  0.00  0.00    +0.000 C 
ATOM     12  O   UNL     1      -0.645  11.652  23.227  0.00  0.00    +0.000 OA
ATOM     13  C   UNL     1      -0.540  10.403  19.806  0.00  0.00    +0.000 C 
ATOM     14  C   UNL     1       0.696   9.827  19.118  0.00  0.00    +0.000 C 
BRANCH  11  15
ATOM     15  C   UNL     1      -0.935  12.952  21.232  0.00  0.00    +0.000 C 
BRANCH  15  16
ATOM     16  O   UNL     1      -2.329  13.206  21.130  0.00  0.00    +0.000 OA
ATOM     17  H   UNL     1      -2.662  13.234  22.049  0.00  0.00    +0.000 HD
ENDBRANCH  15  16
ENDBRANCH  11  15
ENDBRANCH   4   7
BRANCH   1  20
ATOM     18  C   UNL     1       6.714   4.481  15.726  0.00  0.00    +0.000 C 
ATOM     19  C   UNL     1       6.112   5.755  16.274  0.00  0.00    +0.000 C 
ATOM     20  C   UNL     1       4.902   5.206  16.935  0.00  0.00    +0.000 C 
ATOM     21  N   UNL     1       4.713   3.937  16.779  0.00  0.00    +0.000 NA
ATOM     22  O   UNL     1       5.767   3.432  15.992  0.00  0.00    +0.000 OA
BRANCH  18  23
ATOM     23  C   UNL     1       6.935   4.558  14.215  0.00  0.00    +0.000 C 
BRANCH  23  27
ATOM     24  C   UNL     1       4.507   3.129  11.692  0.00  0.00    +0.000 C 
ATOM     25  C   UNL     1       5.846   3.451  12.297  0.00  0.00    +0.000 C 
ATOM     26  O   UNL     1       6.908   3.104  11.796  0.00  0.00    +0.000 OA
ATOM     27  N   UNL     1       5.753   4.181  13.460  0.00  0.00    +0.000 N 
ATOM     28  H   UNL     1       4.862   4.221  13.941  0.00  0.00    +0.000 HD
ENDBRANCH  23  27
ENDBRANCH  18  23
ENDBRANCH   1  20
TORSDOF 6
ENDMDL
MODEL 3
REMARK VINA RESULT:      -8.0      1.689      1.873
REMARK  Name = 
REMARK  7 active torsions:
REMARK  status: ('A' for Active; 'I' for Inactive)
REMARK    1  A    between atoms: C_1  and  C_2
REMARK    2  A    between atoms: N_4  and  C_5
REMARK    3  A    between atoms: C_5  and  C_6
REMARK    4  A    between atoms: C_8  and  C_9
REMARK    5  A    between atoms: C_12  and  C_13
REMARK    6  A    between atoms: C_17  and  C_19
REMARK    7  A    between atoms: C_19  and  O_20
REMARK                            x       y       z     vdW  Elec       q    Type
REMARK                         _______ _______ _______ _____ _____    ______ ____
ROOT
ATOM      1  C   UNL     1       2.572   7.052  19.136  0.00  0.00    +0.000 A 
ATOM      2  C   UNL     1       2.231   8.148  18.341  0.00  0.00    +0.000 A 
ATOM      3  C   UNL     1       1.404   9.157  18.849  0.00  0.00    +0.000 A 
ATOM      4  C   UNL     1       0.890   9.090  20.154  0.00  0.00    +0.000 A 
ATOM      5  C   UNL     1       1.239   7.979  20.937  0.00  0.00    +0.000 A 
ATOM      6  C   UNL     1       2.070   6.971  20.438  0.00  0.00    +0.000 A 
ENDROOT
BRANCH   4   7
ATOM      7  C   UNL     1       0.028  10.164  20.706  0.00  0.00    +0.000 C 
ATOM      8  C   UNL     1      -0.534  11.111  19.927  0.00  0.00    +0.000 C 
ATOM      9  C   UNL     1      -1.468  12.188  20.408  0.00  0.00    +0.000 C 
ATOM     10  N   UNL     1      -1.849  11.976  21.796  0.00  0.00    +0.000 N 
ATOM     11  C   UNL     1      -3.072  12.470  22.223  0.00  0.00    +0.000 C 
ATOM     12  O   UNL     1      -3.842  13.085  21.479  0.00  0.00    +0.000 OA
ATOM     13  C   UNL     1      -0.792  11.497  22.682  0.00  0.00    +0.000 C 
ATOM     14  C   UNL     1      -0.247  10.156  22.192  0.00  0.00    +0.000 C 
BRANCH  11  15
ATOM     15  C   UNL     1      -3.463  12.233  23.689  0.00  0.00    +0.000 C 
BRANCH  15  16
ATOM     16  O   UNL     1      -4.831  12.511  23.947  0.00  0.00    +0.000 OA
ATOM     17  H   UNL     1      -5.137  13.061  23.198  0.00  0.00    +0.000 HD
ENDBRANCH  15  16
ENDBRANCH  11  15
ENDBRANCH   4   7
BRANCH   1  20
ATOM     18  C   UNL     1       5.125   4.398  18.540  0.00  0.00    +0.000 C 
ATOM     19  C   UNL     1       4.637   5.520  19.428  0.00  0.00    +0.000 C 
ATOM     20  C   UNL     1       3.467   5.982  18.641  0.00  0.00    +0.000 C 
ATOM     21  N   UNL     1       3.295   5.391  17.504  0.00  0.00    +0.000 NA
ATOM     22  O   UNL     1       4.319   4.436  17.350  0.00  0.00    +0.000 OA
BRANCH  18  23
ATOM     23  C   UNL     1       6.588   4.584  18.137  0.00  0.00    +0.000 C 
BRANCH  23  27
ATOM     24  C   UNL     1       7.861   8.125  17.755  0.00  0.00    +0.000 C 
ATOM     25  C   UNL     1       7.448   6.747  17.316  0.00  0.00    +0.000 C 
ATOM     26  O   UNL     1       7.467   6.382  16.147  0.00  0.00    +0.000 OA
ATOM     27  N   UNL     1       7.058   5.940  18.361  0.00  0.00    +0.000 N 
ATOM     28  H   UNL     1       6.834   6.369  19.251  0.00  0.00    +0.000 HD
ENDBRANCH  23  27
ENDBRANCH  18  23
ENDBRANCH   1  20
TORSDOF 6
ENDMDL
MODEL 4
REMARK VINA RESULT:      -7.9      2.080      3.331
REMARK  Name = 
REMARK  7 active torsions:
REMARK  status: ('A' for Active; 'I' for Inactive)
REMARK    1  A    between atoms: C_1  and  C_2
REMARK    2  A    between atoms: N_4  and  C_5
REMARK    3  A    between atoms: C_5  and  C_6
REMARK    4  A    between atoms: C_8  and  C_9
REMARK    5  A    between atoms: C_12  and  C_13
REMARK    6  A    between atoms: C_17  and  C_19
REMARK    7  A    between atoms: C_19  and  O_20
REMARK                            x       y       z     vdW  Elec       q    Type
REMARK                         _______ _______ _______ _____ _____    ______ ____
ROOT
ATOM      1  C   UNL     1       4.597   6.132  17.260  0.00  0.00    +0.000 A 
ATOM      2  C   UNL     1       4.065   5.508  18.391  0.00  0.00    +0.000 A 
ATOM      3  C   UNL     1       3.126   6.176  19.187  0.00  0.00    +0.000 A 
ATOM      4  C   UNL     1       2.708   7.482  18.882  0.00  0.00    +0.000 A 
ATOM      5  C   UNL     1       3.258   8.094  17.745  0.00  0.00    +0.000 A 
ATOM      6  C   UNL     1       4.191   7.430  16.942  0.00  0.00    +0.000 A 
ENDROOT
BRANCH   4   7
ATOM      7  C   UNL     1       1.701   8.188  19.709  0.00  0.00    +0.000 C 
ATOM      8  C   UNL     1       1.306   7.729  20.916  0.00  0.00    +0.000 C 
ATOM      9  C   UNL     1       0.340   8.426  21.835  0.00  0.00    +0.000 C 
ATOM     10  N   UNL     1       0.019   9.761  21.353  0.00  0.00    +0.000 N 
ATOM     11  C   UNL     1      -0.350  10.722  22.280  0.00  0.00    +0.000 C 
ATOM     12  O   UNL     1      -0.423  10.491  23.490  0.00  0.00    +0.000 OA
ATOM     13  C   UNL     1      -0.145   9.894  19.908  0.00  0.00    +0.000 C 
ATOM     14  C   UNL     1       1.136   9.487  19.181  0.00  0.00    +0.000 C 
BRANCH  11  15
ATOM     15  C   UNL     1      -0.680  12.127  21.756  0.00  0.00    +0.000 C 
BRANCH  15  16
ATOM     16  O   UNL     1       0.444  12.995  21.757  0.00  0.00    +0.000 OA
ATOM     17  H   UNL     1       1.213  12.435  21.988  0.00  0.00    +0.000 HD
ENDBRANCH  15  16
ENDBRANCH  11  15
ENDBRANCH   4   7
BRANCH   1  20
ATOM     18  C   UNL     1       6.696   4.732  14.512  0.00  0.00    +0.000 C 
ATOM     19  C   UNL     1       5.441   5.480  14.903  0.00  0.00    +0.000 C 
ATOM     20  C   UNL     1       5.569   5.445  16.381  0.00  0.00    +0.000 C 
ATOM     21  N   UNL     1       6.577   4.774  16.834  0.00  0.00    +0.000 NA
ATOM     22  O   UNL     1       7.287   4.256  15.734  0.00  0.00    +0.000 OA
BRANCH  18  23
ATOM     23  C   UNL     1       6.387   3.525  13.625  0.00  0.00    +0.000 C 
BRANCH  23  27
ATOM     24  C   UNL     1       3.736   3.291  10.939  0.00  0.00    +0.000 C 
ATOM     25  C   UNL     1       4.951   2.881  11.725  0.00  0.00    +0.000 C 
ATOM     26  O   UNL     1       5.595   1.868  11.482  0.00  0.00    +0.000 OA
ATOM     27  N   UNL     1       5.268   3.765  12.730  0.00  0.00    +0.000 N 
ATOM     28  H   UNL     1       4.569   4.435  13.029  0.00  0.00    +0.000 HD
ENDBRANCH  23  27
ENDBRANCH  18  23
ENDBRANCH   1  20
TORSDOF 6
ENDMDL
MODEL 5
REMARK VINA RESULT:      -7.9      1.746      2.218
REMARK  Name = 
REMARK  7 active torsions:
REMARK  status: ('A' for Active; 'I' for Inactive)
REMARK    1  A    between atoms: C_1  and  C_2
REMARK    2  A    between atoms: N_4  and  C_5
REMARK    3  A    between atoms: C_5  and  C_6
REMARK    4  A    between atoms: C_8  and  C_9
REMARK    5  A    between atoms: C_12  and  C_13
REMARK    6  A    between atoms: C_17  and  C_19
REMARK    7  A    between atoms: C_19  and  O_20
REMARK                            x       y       z     vdW  Elec       q    Type
REMARK                         _______ _______ _______ _____ _____    ______ ____
ROOT
ATOM      1  C   UNL     1       2.258   7.187  19.397  0.00  0.00    +0.000 A 
ATOM      2  C   UNL     1       1.736   7.090  20.688  0.00  0.00    +0.000 A 
ATOM      3  C   UNL     1       0.930   8.114  21.201  0.00  0.00    +0.000 A 
ATOM      4  C   UNL     1       0.640   9.261  20.445  0.00  0.00    +0.000 A 
ATOM      5  C   UNL     1       1.177   9.344  19.151  0.00  0.00    +0.000 A 
ATOM      6  C   UNL     1       1.978   8.322  18.630  0.00  0.00    +0.000 A 
ENDROOT
BRANCH   4   7
ATOM      7  C   UNL     1      -0.228  10.341  20.974  0.00  0.00    +0.000 C 
ATOM      8  C   UNL     1      -0.822  11.250  20.171  0.00  0.00    +0.000 C 
ATOM      9  C   UNL     1      -1.763  12.329  20.632  0.00  0.00    +0.000 C 
ATOM     10  N   UNL     1      -2.113  12.164  22.034  0.00  0.00    +0.000 N 
ATOM     11  C   UNL     1      -3.335  12.654  22.468  0.00  0.00    +0.000 C 
ATOM     12  O   UNL     1      -4.129  13.228  21.718  0.00  0.00    +0.000 OA
ATOM     13  C   UNL     1      -1.030  11.735  22.916  0.00  0.00    +0.000 C 
ATOM     14  C   UNL     1      -0.472  10.386  22.465  0.00  0.00    +0.000 C 
BRANCH  11  15
ATOM     15  C   UNL     1      -3.691  12.467  23.950  0.00  0.00    +0.000 C 
BRANCH  15  16
ATOM     16  O   UNL     1      -4.426  13.559  24.483  0.00  0.00    +0.000 OA
ATOM     17  H   UNL     1      -4.683  13.290  25.388  0.00  0.00    +0.000 HD
ENDBRANCH  15  16
ENDBRANCH  11  15
ENDBRANCH   4   7
BRANCH   1  20
ATOM     18  C   UNL     1       4.726   4.525  18.537  0.00  0.00    +0.000 C 
ATOM     19  C   UNL     1       4.345   5.659  19.462  0.00  0.00    +0.000 C 
ATOM     20  C   UNL     1       3.089   6.111  18.812  0.00  0.00    +0.000 C 
ATOM     21  N   UNL     1       2.785   5.504  17.712  0.00  0.00    +0.000 NA
ATOM     22  O   UNL     1       3.784   4.547  17.450  0.00  0.00    +0.000 OA
BRANCH  18  23
ATOM     23  C   UNL     1       6.131   4.706  17.960  0.00  0.00    +0.000 C 
BRANCH  23  27
ATOM     24  C   UNL     1       7.780   8.101  17.731  0.00  0.00    +0.000 C 
ATOM     25  C   UNL     1       7.325   6.747  17.258  0.00  0.00    +0.000 C 
ATOM     26  O   UNL     1       7.524   6.333  16.123  0.00  0.00    +0.000 OA
ATOM     27  N   UNL     1       6.678   6.023  18.233  0.00  0.00    +0.000 N 
ATOM     28  H   UNL     1       6.337   6.508  19.054  0.00  0.00    +0.000 HD
ENDBRANCH  23  27
ENDBRANCH  18  23
ENDBRANCH   1  20
TORSDOF 6
ENDMDL
MODEL 6
REMARK VINA RESULT:      -7.9      1.703      2.091
REMARK  Name = 
REMARK  7 active torsions:
REMARK  status: ('A' for Active; 'I' for Inactive)
REMARK    1  A    between atoms: C_1  and  C_2
REMARK    2  A    between atoms: N_4  and  C_5
REMARK    3  A    between atoms: C_5  and  C_6
REMARK    4  A    between atoms: C_8  and  C_9
REMARK    5  A    between atoms: C_12  and  C_13
REMARK    6  A    between atoms: C_17  and  C_19
REMARK    7  A    between atoms: C_19  and  O_20
REMARK                            x       y       z     vdW  Elec       q    Type
REMARK                         _______ _______ _______ _____ _____    ______ ____
ROOT
ATOM      1  C   UNL     1       2.635   7.140  18.930  0.00  0.00    +0.000 A 
ATOM      2  C   UNL     1       2.101   7.234  20.216  0.00  0.00    +0.000 A 
ATOM      3  C   UNL     1       1.235   8.285  20.545  0.00  0.00    +0.000 A 
ATOM      4  C   UNL     1       0.895   9.270  19.604  0.00  0.00    +0.000 A 
ATOM      5  C   UNL     1       1.445   9.163  18.317  0.00  0.00    +0.000 A 
ATOM      6  C   UNL     1       2.305   8.112  17.981  0.00  0.00    +0.000 A 
ENDROOT
BRANCH   4   7
ATOM      7  C   UNL     1      -0.036  10.375  19.938  0.00  0.00    +0.000 C 
ATOM      8  C   UNL     1      -0.652  11.113  18.991  0.00  0.00    +0.000 C 
ATOM      9  C   UNL     1      -1.655  12.203  19.256  0.00  0.00    +0.000 C 
ATOM     10  N   UNL     1      -2.032  12.245  20.661  0.00  0.00    +0.000 N 
ATOM     11  C   UNL     1      -3.286  12.735  20.990  0.00  0.00    +0.000 C 
ATOM     12  O   UNL     1      -4.087  13.141  20.144  0.00  0.00    +0.000 OA
ATOM     13  C   UNL     1      -0.952  12.017  21.618  0.00  0.00    +0.000 C 
ATOM     14  C   UNL     1      -0.320  10.644  21.399  0.00  0.00    +0.000 C 
BRANCH  11  15
ATOM     15  C   UNL     1      -3.670  12.768  22.476  0.00  0.00    +0.000 C 
BRANCH  15  16
ATOM     16  O   UNL     1      -4.999  12.327  22.712  0.00  0.00    +0.000 OA
ATOM     17  H   UNL     1      -4.935  11.365  22.878  0.00  0.00    +0.000 HD
ENDBRANCH  15  16
ENDBRANCH  11  15
ENDBRANCH   4   7
BRANCH   1  20
ATOM     18  C   UNL     1       5.173   4.425  18.603  0.00  0.00    +0.000 C 
ATOM     19  C   UNL     1       4.675   5.617  19.390  0.00  0.00    +0.000 C 
ATOM     20  C   UNL     1       3.530   6.028  18.540  0.00  0.00    +0.000 C 
ATOM     21  N   UNL     1       3.379   5.352  17.448  0.00  0.00    +0.000 NA
ATOM     22  O   UNL     1       4.396   4.379  17.393  0.00  0.00    +0.000 OA
BRANCH  18  23
ATOM     23  C   UNL     1       6.647   4.568  18.223  0.00  0.00    +0.000 C 
BRANCH  23  27
ATOM     24  C   UNL     1       7.893   8.097  17.684  0.00  0.00    +0.000 C 
ATOM     25  C   UNL     1       7.446   6.712  17.301  0.00  0.00    +0.000 C 
ATOM     26  O   UNL     1       7.377   6.328  16.141  0.00  0.00    +0.000 OA
ATOM     27  N   UNL     1       7.135   5.926  18.387  0.00  0.00    +0.000 N 
ATOM     28  H   UNL     1       6.979   6.371  19.283  0.00  0.00    +0.000 HD
ENDBRANCH  23  27
ENDBRANCH  18  23
ENDBRANCH   1  20
TORSDOF 6
ENDMDL
MODEL 7
REMARK VINA RESULT:      -7.9      1.604      2.288
REMARK  Name = 
REMARK  7 active torsions:
REMARK  status: ('A' for Active; 'I' for Inactive)
REMARK    1  A    between atoms: C_1  and  C_2
REMARK    2  A    between atoms: N_4  and  C_5
REMARK    3  A    between atoms: C_5  and  C_6
REMARK    4  A    between atoms: C_8  and  C_9
REMARK    5  A    between atoms: C_12  and  C_13
REMARK    6  A    between atoms: C_17  and  C_19
REMARK    7  A    between atoms: C_19  and  O_20
REMARK                            x       y       z     vdW  Elec       q    Type
REMARK                         _______ _______ _______ _____ _____    ______ ____
ROOT
ATOM      1  C   UNL     1       3.695   6.323  17.813  0.00  0.00    +0.000 A 
ATOM      2  C   UNL     1       3.325   7.538  17.233  0.00  0.00    +0.000 A 
ATOM      3  C   UNL     1       2.463   8.409  17.912  0.00  0.00    +0.000 A 
ATOM      4  C   UNL     1       1.941   8.081  19.174  0.00  0.00    +0.000 A 
ATOM      5  C   UNL     1       2.320   6.854  19.739  0.00  0.00    +0.000 A 
ATOM      6  C   UNL     1       3.186   5.983  19.069  0.00  0.00    +0.000 A 
ENDROOT
BRANCH   4   7
ATOM      7  C   UNL     1       1.042   9.006  19.907  0.00  0.00    +0.000 C 
ATOM      8  C   UNL     1       0.768   8.858  21.220  0.00  0.00    +0.000 C 
ATOM      9  C   UNL     1      -0.079   9.792  22.040  0.00  0.00    +0.000 C 
ATOM     10  N   UNL     1      -0.421  10.991  21.290  0.00  0.00    +0.000 N 
ATOM     11  C   UNL     1      -0.669  12.158  21.997  0.00  0.00    +0.000 C 
ATOM     12  O   UNL     1      -0.619  12.217  23.229  0.00  0.00    +0.000 OA
ATOM     13  C   UNL     1      -0.736  10.793  19.878  0.00  0.00    +0.000 C 
ATOM     14  C   UNL     1       0.452  10.171  19.145  0.00  0.00    +0.000 C 
BRANCH  11  15
ATOM     15  C   UNL     1      -1.024  13.416  21.191  0.00  0.00    +0.000 C 
BRANCH  15  16
ATOM     16  O   UNL     1       0.122  14.127  20.746  0.00  0.00    +0.000 OA
ATOM     17  H   UNL     1      -0.072  15.072  20.907  0.00  0.00    +0.000 HD
ENDBRANCH  15  16
ENDBRANCH  11  15
ENDBRANCH   4   7
BRANCH   1  20
ATOM     18  C   UNL     1       6.486   4.544  16.092  0.00  0.00    +0.000 C 
ATOM     19  C   UNL     1       5.907   5.863  16.552  0.00  0.00    +0.000 C 
ATOM     20  C   UNL     1       4.626   5.393  17.136  0.00  0.00    +0.000 C 
ATOM     21  N   UNL     1       4.389   4.129  17.006  0.00  0.00    +0.000 NA
ATOM     22  O   UNL     1       5.473   3.549  16.319  0.00  0.00    +0.000 OA
BRANCH  18  23
ATOM     23  C   UNL     1       6.822   4.558  14.601  0.00  0.00    +0.000 C 
BRANCH  23  27
ATOM     24  C   UNL     1       4.674   3.141  11.830  0.00  0.00    +0.000 C 
ATOM     25  C   UNL     1       5.932   3.629  12.495  0.00  0.00    +0.000 C 
ATOM     26  O   UNL     1       7.024   3.631  11.942  0.00  0.00    +0.000 OA
ATOM     27  N   UNL     1       5.724   4.080  13.778  0.00  0.00    +0.000 N 
ATOM     28  H   UNL     1       4.865   3.827  14.252  0.00  0.00    +0.000 HD
ENDBRANCH  23  27
ENDBRANCH  18  23
ENDBRANCH   1  20
TORSDOF 6
ENDMDL
MODEL 8
REMARK VINA RESULT:      -7.9      2.084      2.550
REMARK  Name = 
REMARK  7 active torsions:
REMARK  status: ('A' for Active; 'I' for Inactive)
REMARK    1  A    between atoms: C_1  and  C_2
REMARK    2  A    between atoms: N_4  and  C_5
REMARK    3  A    between atoms: C_5  and  C_6
REMARK    4  A    between atoms: C_8  and  C_9
REMARK    5  A    between atoms: C_12  and  C_13
REMARK    6  A    between atoms: C_17  and  C_19
REMARK    7  A    between atoms: C_19  and  O_20
REMARK                            x       y       z     vdW  Elec       q    Type
REMARK                         _______ _______ _______ _____ _____    ______ ____
ROOT
ATOM      1  C   UNL     1       1.875   8.128  18.964  0.00  0.00    +0.000 A 
ATOM      2  C   UNL     1       1.303   9.183  18.251  0.00  0.00    +0.000 A 
ATOM      3  C   UNL     1       0.470  10.103  18.901  0.00  0.00    +0.000 A 
ATOM      4  C   UNL     1       0.179   9.982  20.269  0.00  0.00    +0.000 A 
ATOM      5  C   UNL     1       0.758   8.912  20.969  0.00  0.00    +0.000 A 
ATOM      6  C   UNL     1       1.596   7.994  20.327  0.00  0.00    +0.000 A 
ENDROOT
BRANCH   4   7
ATOM      7  C   UNL     1      -0.688  10.962  20.968  0.00  0.00    +0.000 C 
ATOM      8  C   UNL     1      -1.404  11.895  20.306  0.00  0.00    +0.000 C 
ATOM      9  C   UNL     1      -2.351  12.875  20.944  0.00  0.00    +0.000 C 
ATOM     10  N   UNL     1      -2.551  12.577  22.354  0.00  0.00    +0.000 N 
ATOM     11  C   UNL     1      -3.748  12.956  22.941  0.00  0.00    +0.000 C 
ATOM     12  O   UNL     1      -4.642  13.540  22.320  0.00  0.00    +0.000 OA
ATOM     13  C   UNL     1      -1.366  12.144  23.089  0.00  0.00    +0.000 C 
ATOM     14  C   UNL     1      -0.786  10.872  22.474  0.00  0.00    +0.000 C 
BRANCH  11  15
ATOM     15  C   UNL     1      -3.947  12.629  24.428  0.00  0.00    +0.000 C 
BRANCH  15  16
ATOM     16  O   UNL     1      -4.993  11.695  24.653  0.00  0.00    +0.000 OA
ATOM     17  H   UNL     1      -4.989  11.100  23.876  0.00  0.00    +0.000 HD
ENDBRANCH  15  16
ENDBRANCH  11  15
ENDBRANCH   4   7
BRANCH   1  20
ATOM     18  C   UNL     1       3.741   5.182  17.638  0.00  0.00    +0.000 C 
ATOM     19  C   UNL     1       2.692   5.700  18.596  0.00  0.00    +0.000 C 
ATOM     20  C   UNL     1       2.782   7.155  18.315  0.00  0.00    +0.000 C 
ATOM     21  N   UNL     1       3.703   7.502  17.477  0.00  0.00    +0.000 NA
ATOM     22  O   UNL     1       4.375   6.336  17.059  0.00  0.00    +0.000 OA
BRANCH  18  23
ATOM     23  C   UNL     1       4.809   4.355  18.354  0.00  0.00    +0.000 C 
BRANCH  23  27
ATOM     24  C   UNL     1       8.086   6.105  19.061  0.00  0.00    +0.000 C 
ATOM     25  C   UNL     1       7.144   5.153  18.376  0.00  0.00    +0.000 C 
ATOM     26  O   UNL     1       7.482   4.426  17.451  0.00  0.00    +0.000 OA
ATOM     27  N   UNL     1       5.873   5.176  18.904  0.00  0.00    +0.000 N 
ATOM     28  H   UNL     1       5.602   5.958  19.489  0.00  0.00    +0.000 HD
ENDBRANCH  23  27
ENDBRANCH  18  23
ENDBRANCH   1  20
TORSDOF 6
ENDMDL
MODEL 9
REMARK VINA RESULT:      -7.9      1.937      2.642
REMARK  Name = 
REMARK  7 active torsions:
REMARK  status: ('A' for Active; 'I' for Inactive)
REMARK    1  A    between atoms: C_1  and  C_2
REMARK    2  A    between atoms: N_4  and  C_5
REMARK    3  A    between atoms: C_5  and  C_6
REMARK    4  A    between atoms: C_8  and  C_9
REMARK    5  A    between atoms: C_12  and  C_13
REMARK    6  A    between atoms: C_17  and  C_19
REMARK    7  A    between atoms: C_19  and  O_20
REMARK                            x       y       z     vdW  Elec       q    Type
REMARK                         _______ _______ _______ _____ _____    ______ ____
ROOT
ATOM      1  C   UNL     1       2.221   7.790  18.691  0.00  0.00    +0.000 A 
ATOM      2  C   UNL     1       1.927   7.637  20.047  0.00  0.00    +0.000 A 
ATOM      3  C   UNL     1       1.092   8.557  20.695  0.00  0.00    +0.000 A 
ATOM      4  C   UNL     1       0.546   9.654  20.009  0.00  0.00    +0.000 A 
ATOM      5  C   UNL     1       0.857   9.795  18.648  0.00  0.00    +0.000 A 
ATOM      6  C   UNL     1       1.685   8.876  17.994  0.00  0.00    +0.000 A 
ENDROOT
BRANCH   4   7
ATOM      7  C   UNL     1      -0.354  10.622  20.683  0.00  0.00    +0.000 C 
ATOM      8  C   UNL     1      -1.158  11.461  19.996  0.00  0.00    +0.000 C 
ATOM      9  C   UNL     1      -2.140  12.420  20.612  0.00  0.00    +0.000 C 
ATOM     10  N   UNL     1      -2.261  12.204  22.046  0.00  0.00    +0.000 N 
ATOM     11  C   UNL     1      -3.455  12.545  22.662  0.00  0.00    +0.000 C 
ATOM     12  O   UNL     1      -4.410  13.028  22.047  0.00  0.00    +0.000 OA
ATOM     13  C   UNL     1      -1.020  11.898  22.753  0.00  0.00    +0.000 C 
ATOM     14  C   UNL     1      -0.383  10.627  22.195  0.00  0.00    +0.000 C 
BRANCH  11  15
ATOM     15  C   UNL     1      -3.569  12.307  24.174  0.00  0.00    +0.000 C 
BRANCH  15  16
ATOM     16  O   UNL     1      -4.811  11.728  24.550  0.00  0.00    +0.000 OA
ATOM     17  H   UNL     1      -5.367  11.747  23.745  0.00  0.00    +0.000 HD
ENDBRANCH  15  16
ENDBRANCH  11  15
ENDBRANCH   4   7
BRANCH   1  20
ATOM     18  C   UNL     1       3.908   4.860  17.115  0.00  0.00    +0.000 C 
ATOM     19  C   UNL     1       2.868   5.357  18.094  0.00  0.00    +0.000 C 
ATOM     20  C   UNL     1       3.076   6.821  17.969  0.00  0.00    +0.000 C 
ATOM     21  N   UNL     1       4.049   7.180  17.197  0.00  0.00    +0.000 NA
ATOM     22  O   UNL     1       4.646   6.014  16.678  0.00  0.00    +0.000 OA
BRANCH  18  23
ATOM     23  C   UNL     1       4.887   3.884  17.770  0.00  0.00    +0.000 C 
BRANCH  23  27
ATOM     24  C   UNL     1       7.996   5.647  19.004  0.00  0.00    +0.000 C 
ATOM     25  C   UNL     1       6.562   5.192  19.023  0.00  0.00    +0.000 C 
ATOM     26  O   UNL     1       5.783   5.470  19.926  0.00  0.00    +0.000 OA
ATOM     27  N   UNL     1       6.218   4.446  17.919  0.00  0.00    +0.000 N 
ATOM     28  H   UNL     1       6.955   4.053  17.346  0.00  0.00    +0.000 HD
ENDBRANCH  23  27
ENDBRANCH  18  23
ENDBRANCH   1  20
TORSDOF 6
ENDMDL
