MODEL 1
REMARK VINA RESULT:      -9.1      0.000      0.000
REMARK  Name = 
REMARK  6 active torsions:
REMARK  status: ('A' for Active; 'I' for Inactive)
REMARK    1  A    between atoms: C_1  and  C_2
REMARK    2  A    between atoms: C_2  and  C_3
REMARK    3  A    between atoms: C_2  and  C_4
REMARK    4  A    between atoms: C_6  and  C_7
REMARK    5  A    between atoms: C_7  and  N_8
REMARK    6  A    between atoms: N_20  and  C_21
REMARK                            x       y       z     vdW  Elec       q    Type
REMARK                         _______ _______ _______ _____ _____    ______ ____
ROOT
ATOM      1  C   UNL     1       2.347   5.661  19.502  0.00  0.00    +0.000 A 
ATOM      2  C   UNL     1       3.168   5.190  18.488  0.00  0.00    +0.000 A 
ATOM      3  C   UNL     1       3.703   6.318  17.850  0.00  0.00    +0.000 A 
ATOM      4  N   UNL     1       3.151   7.440  18.322  0.00  0.00    +0.000 NA
ATOM      5  N   UNL     1       2.320   7.051  19.339  0.00  0.00    +0.000 N 
ENDROOT
BRANCH   5   6
ATOM      6  C   UNL     1       1.563   8.066  20.008  0.00  0.00    +0.000 A 
ATOM      7  C   UNL     1       1.183   9.210  19.284  0.00  0.00    +0.000 A 
ATOM      8  C   UNL     1       0.361  10.181  19.864  0.00  0.00    +0.000 A 
ATOM      9  C   UNL     1      -0.070  10.038  21.178  0.00  0.00    +0.000 A 
ATOM     10  C   UNL     1       0.356   8.946  21.926  0.00  0.00    +0.000 A 
ATOM     11  C   UNL     1       1.177   7.972  21.348  0.00  0.00    +0.000 A 
ENDBRANCH   5   6
BRANCH   1  13
ATOM     12  C   UNL     1       0.720   3.768  19.830  0.00  0.00    +0.000 C 
ATOM     13  C   UNL     1       1.582   4.833  20.506  0.00  0.00    +0.000 C 
ATOM     14  C   UNL     1       2.517   4.185  21.535  0.00  0.00    +0.000 C 
ENDBRANCH   1  13
BRANCH   3  15
ATOM     15  C   UNL     1       4.788   6.343  16.804  0.00  0.00    +0.000 C 
BRANCH  15  16
ATOM     16  N   UNL     1       5.547   5.062  16.777  0.00  0.00    +0.000 NA
ATOM     17  C   UNL     1       4.944   4.065  15.819  0.00  0.00    +0.000 C 
ATOM     18  C   UNL     1       5.712   4.132  14.527  0.00  0.00    +0.000 A 
ATOM     19  C   UNL     1       5.312   3.656  13.289  0.00  0.00    +0.000 A 
ATOM     20  C   UNL     1       6.168   3.833  12.194  0.00  0.00    +0.000 A 
ATOM     21  C   UNL     1       7.409   4.474  12.345  0.00  0.00    +0.000 A 
ATOM     22  C   UNL     1       7.813   4.945  13.594  0.00  0.00    +0.000 A 
ATOM     23  C   UNL     1       6.946   4.757  14.654  0.00  0.00    +0.000 A 
ATOM     24  S   UNL     1       7.198   5.276  16.305  0.00  0.00    +0.000 S 
ATOM     25  O   UNL     1       7.536   6.682  16.312  0.00  0.00    +0.000 OA
ATOM     26  O   UNL     1       7.996   4.261  16.949  0.00  0.00    +0.000 OA
ENDBRANCH  15  16
ENDBRANCH   3  15
TORSDOF 4
ENDMDL
MODEL 2
REMARK VINA RESULT:      -8.4      3.780      8.004
REMARK  Name = 
REMARK  6 active torsions:
REMARK  status: ('A' for Active; 'I' for Inactive)
REMARK    1  A    between atoms: C_1  and  C_2
REMARK    2  A    between atoms: C_2  and  C_3
REMARK    3  A    between atoms: C_2  and  C_4
REMARK    4  A    between atoms: C_6  and  C_7
REMARK    5  A    between atoms: C_7  and  N_8
REMARK    6  A    between atoms: N_20  and  C_21
REMARK                            x       y       z     vdW  Elec       q    Type
REMARK                         _______ _______ _______ _____ _____    ______ ____
ROOT
ATOM      1  C   UNL     1       2.140   5.263  19.914  0.00  0.00    +0.000 A 
ATOM      2  C   UNL     1       1.551   6.170  20.782  0.00  0.00    +0.000 A 
ATOM      3  C   UNL     1       1.732   7.440  20.217  0.00  0.00    +0.000 A 
ATOM      4  N   UNL     1       2.512   7.374  19.135  0.00  0.00    +0.000 NA
ATOM      5  N   UNL     1       2.766   6.044  18.934  0.00  0.00    +0.000 N 
ENDROOT
BRANCH   5   6
ATOM      6  C   UNL     1       3.621   5.684  17.843  0.00  0.00    +0.000 A 
ATOM      7  C   UNL     1       4.313   6.704  17.166  0.00  0.00    +0.000 A 
ATOM      8  C   UNL     1       5.234   6.394  16.160  0.00  0.00    +0.000 A 
ATOM      9  C   UNL     1       5.456   5.070  15.799  0.00  0.00    +0.000 A 
ATOM     10  C   UNL     1       4.728   4.058  16.414  0.00  0.00    +0.000 A 
ATOM     11  C   UNL     1       3.807   4.365  17.422  0.00  0.00    +0.000 A 
ENDBRANCH   5   6
BRANCH   1  13
ATOM     12  C   UNL     1       2.245   3.325  21.517  0.00  0.00    +0.000 C 
ATOM     13  C   UNL     1       2.168   3.760  20.054  0.00  0.00    +0.000 C 
ATOM     14  C   UNL     1       0.962   3.105  19.368  0.00  0.00    +0.000 C 
ENDBRANCH   1  13
BRANCH   3  15
ATOM     15  C   UNL     1       1.120   8.737  20.682  0.00  0.00    +0.000 C 
BRANCH  15  16
ATOM     16  N   UNL     1       1.291   9.814  19.669  0.00  0.00    +0.000 NA
ATOM     17  C   UNL     1       0.474   9.559  18.427  0.00  0.00    +0.000 C 
ATOM     18  C   UNL     1      -0.799  10.354  18.532  0.00  0.00    +0.000 A 
ATOM     19  C   UNL     1      -1.965  10.169  17.805  0.00  0.00    +0.000 A 
ATOM     20  C   UNL     1      -3.057  11.007  18.065  0.00  0.00    +0.000 A 
ATOM     21  C   UNL     1      -2.975  12.018  19.037  0.00  0.00    +0.000 A 
ATOM     22  C   UNL     1      -1.798  12.207  19.761  0.00  0.00    +0.000 A 
ATOM     23  C   UNL     1      -0.739  11.364  19.484  0.00  0.00    +0.000 A 
ATOM     24  S   UNL     1       0.825  11.371  20.265  0.00  0.00    +0.000 S 
ATOM     25  O   UNL     1       0.638  11.315  21.698  0.00  0.00    +0.000 OA
ATOM     26  O   UNL     1       1.623  12.374  19.603  0.00  0.00    +0.000 OA
ENDBRANCH  15  16
ENDBRANCH   3  15
TORSDOF 4
ENDMDL
MODEL 3
REMARK VINA RESULT:      -8.3      3.836      7.951
REMARK  Name = 
REMARK  6 active torsions:
REMARK  status: ('A' for Active; 'I' for Inactive)
REMARK    1  A    between atoms: C_1  and  C_2
REMARK    2  A    between atoms: C_2  and  C_3
REMARK    3  A    between atoms: C_2  and  C_4
REMARK    4  A    between atoms: C_6  and  C_7
REMARK    5  A    between atoms: C_7  and  N_8
REMARK    6  A    between atoms: N_20  and  C_21
REMARK                            x       y       z     vdW  Elec       q    Type
REMARK                         _______ _______ _______ _____ _____    ______ ____
ROOT
ATOM      1  C   UNL     1       2.350   5.101  19.748  0.00  0.00    +0.000 A 
ATOM      2  C   UNL     1       1.522   5.922  20.499  0.00  0.00    +0.000 A 
ATOM      3  C   UNL     1       1.884   7.241  20.196  0.00  0.00    +0.000 A 
ATOM      4  N   UNL     1       2.969   7.271  19.417  0.00  0.00    +0.000 NA
ATOM      5  N   UNL     1       3.263   5.965  19.130  0.00  0.00    +0.000 N 
ENDROOT
BRANCH   5   6
ATOM      6  C   UNL     1       4.418   5.700  18.327  0.00  0.00    +0.000 A 
ATOM      7  C   UNL     1       5.591   5.256  18.962  0.00  0.00    +0.000 A 
ATOM      8  C   UNL     1       6.714   4.890  18.212  0.00  0.00    +0.000 A 
ATOM      9  C   UNL     1       6.690   4.988  16.825  0.00  0.00    +0.000 A 
ATOM     10  C   UNL     1       5.560   5.491  16.190  0.00  0.00    +0.000 A 
ATOM     11  C   UNL     1       4.435   5.856  16.938  0.00  0.00    +0.000 A 
ENDBRANCH   5   6
BRANCH   1  13
ATOM     12  C   UNL     1       1.471   2.994  20.808  0.00  0.00    +0.000 C 
ATOM     13  C   UNL     1       2.318   3.593  19.687  0.00  0.00    +0.000 C 
ATOM     14  C   UNL     1       1.824   3.092  18.323  0.00  0.00    +0.000 C 
ENDBRANCH   1  13
BRANCH   3  15
ATOM     15  C   UNL     1       1.168   8.500  20.614  0.00  0.00    +0.000 C 
BRANCH  15  16
ATOM     16  N   UNL     1       1.403   9.608  19.647  0.00  0.00    +0.000 NA
ATOM     17  C   UNL     1       0.661   9.395  18.350  0.00  0.00    +0.000 C 
ATOM     18  C   UNL     1      -0.614  10.191  18.403  0.00  0.00    +0.000 A 
ATOM     19  C   UNL     1      -1.734  10.035  17.602  0.00  0.00    +0.000 A 
ATOM     20  C   UNL     1      -2.838  10.869  17.821  0.00  0.00    +0.000 A 
ATOM     21  C   UNL     1      -2.812  11.849  18.828  0.00  0.00    +0.000 A 
ATOM     22  C   UNL     1      -1.681  12.010  19.627  0.00  0.00    +0.000 A 
ATOM     23  C   UNL     1      -0.609  11.171  19.388  0.00  0.00    +0.000 A 
ATOM     24  S   UNL     1       0.905  11.147  20.262  0.00  0.00    +0.000 S 
ATOM     25  O   UNL     1       0.632  11.048  21.679  0.00  0.00    +0.000 OA
ATOM     26  O   UNL     1       1.745  12.166  19.681  0.00  0.00    +0.000 OA
ENDBRANCH  15  16
ENDBRANCH   3  15
TORSDOF 4
ENDMDL
MODEL 4
REMARK VINA RESULT:      -8.0      3.834      7.804
REMARK  Name = 
REMARK  6 active torsions:
REMARK  status: ('A' for Active; 'I' for Inactive)
REMARK    1  A    between atoms: C_1  and  C_2
REMARK    2  A    between atoms: C_2  and  C_3
REMARK    3  A    between atoms: C_2  and  C_4
REMARK    4  A    between atoms: C_6  and  C_7
REMARK    5  A    between atoms: C_7  and  N_8
REMARK    6  A    between atoms: N_20  and  C_21
REMARK                            x       y       z     vdW  Elec       q    Type
REMARK                         _______ _______ _______ _____ _____    ______ ____
ROOT
ATOM      1  C   UNL     1       1.886   5.139  20.153  0.00  0.00    +0.000 A 
ATOM      2  C   UNL     1       1.186   6.137  20.813  0.00  0.00    +0.000 A 
ATOM      3  C   UNL     1       1.702   7.358  20.355  0.00  0.00    +0.000 A 
ATOM      4  N   UNL     1       2.762   7.162  19.567  0.00  0.00    +0.000 NA
ATOM      5  N   UNL     1       2.884   5.805  19.430  0.00  0.00    +0.000 N 
ENDROOT
BRANCH   5   6
ATOM      6  C   UNL     1       3.978   5.307  18.651  0.00  0.00    +0.000 A 
ATOM      7  C   UNL     1       3.727   4.878  17.336  0.00  0.00    +0.000 A 
ATOM      8  C   UNL     1       4.776   4.477  16.504  0.00  0.00    +0.000 A 
ATOM      9  C   UNL     1       6.083   4.473  16.979  0.00  0.00    +0.000 A 
ATOM     10  C   UNL     1       6.336   4.830  18.299  0.00  0.00    +0.000 A 
ATOM     11  C   UNL     1       5.287   5.233  19.134  0.00  0.00    +0.000 A 
ENDBRANCH   5   6
BRANCH   1  13
ATOM     12  C   UNL     1       1.156   3.046  18.959  0.00  0.00    +0.000 C 
ATOM     13  C   UNL     1       1.666   3.649  20.266  0.00  0.00    +0.000 C 
ATOM     14  C   UNL     1       2.937   2.923  20.727  0.00  0.00    +0.000 C 
ENDBRANCH   1  13
BRANCH   3  15
ATOM     15  C   UNL     1       1.158   8.736  20.633  0.00  0.00    +0.000 C 
BRANCH  15  16
ATOM     16  N   UNL     1       1.403   9.659  19.490  0.00  0.00    +0.000 NA
ATOM     17  C   UNL     1       0.583   9.290  18.278  0.00  0.00    +0.000 C 
ATOM     18  C   UNL     1      -0.641  10.163  18.256  0.00  0.00    +0.000 A 
ATOM     19  C   UNL     1      -1.808   9.953  17.539  0.00  0.00    +0.000 A 
ATOM     20  C   UNL     1      -2.851  10.880  17.668  0.00  0.00    +0.000 A 
ATOM     21  C   UNL     1      -2.718  12.003  18.501  0.00  0.00    +0.000 A 
ATOM     22  C   UNL     1      -1.539  12.218  19.214  0.00  0.00    +0.000 A 
ATOM     23  C   UNL     1      -0.530  11.285  19.068  0.00  0.00    +0.000 A 
ATOM     24  S   UNL     1       1.025  11.304  19.869  0.00  0.00    +0.000 S 
ATOM     25  O   UNL     1       0.821  11.449  21.293  0.00  0.00    +0.000 OA
ATOM     26  O   UNL     1       1.887  12.163  19.095  0.00  0.00    +0.000 OA
ENDBRANCH  15  16
ENDBRANCH   3  15
TORSDOF 4
ENDMDL
MODEL 5
REMARK VINA RESULT:      -7.9      3.201      5.058
REMARK  Name = 
REMARK  6 active torsions:
REMARK  status: ('A' for Active; 'I' for Inactive)
REMARK    1  A    between atoms: C_1  and  C_2
REMARK    2  A    between atoms: C_2  and  C_3
REMARK    3  A    between atoms: C_2  and  C_4
REMARK    4  A    between atoms: C_6  and  C_7
REMARK    5  A    between atoms: C_7  and  N_8
REMARK    6  A    between atoms: N_20  and  C_21
REMARK                            x       y       z     vdW  Elec       q    Type
REMARK                         _______ _______ _______ _____ _____    ______ ____
ROOT
ATOM      1  C   UNL     1      -0.178   9.783  18.364  0.00  0.00    +0.000 A 
ATOM      2  C   UNL     1       0.739   9.192  17.508  0.00  0.00    +0.000 A 
ATOM      3  C   UNL     1       1.741   8.638  18.318  0.00  0.00    +0.000 A 
ATOM      4  N   UNL     1       1.562   8.976  19.598  0.00  0.00    +0.000 NA
ATOM      5  N   UNL     1       0.386   9.675  19.641  0.00  0.00    +0.000 N 
ENDROOT
BRANCH   5   6
ATOM      6  C   UNL     1      -0.036  10.196  20.907  0.00  0.00    +0.000 A 
ATOM      7  C   UNL     1      -0.193  11.586  21.044  0.00  0.00    +0.000 A 
ATOM      8  C   UNL     1      -0.696  12.134  22.228  0.00  0.00    +0.000 A 
ATOM      9  C   UNL     1      -1.025  11.307  23.297  0.00  0.00    +0.000 A 
ATOM     10  C   UNL     1      -0.810   9.937  23.197  0.00  0.00    +0.000 A 
ATOM     11  C   UNL     1      -0.307   9.386  22.013  0.00  0.00    +0.000 A 
ENDBRANCH   5   6
BRANCH   1  13
ATOM     12  C   UNL     1      -1.280  11.980  17.818  0.00  0.00    +0.000 C 
ATOM     13  C   UNL     1      -1.465  10.472  17.977  0.00  0.00    +0.000 C 
ATOM     14  C   UNL     1      -2.065   9.873  16.698  0.00  0.00    +0.000 C 
ENDBRANCH   1  13
BRANCH   3  15
ATOM     15  C   UNL     1       2.867   7.735  17.881  0.00  0.00    +0.000 C 
BRANCH  15  16
ATOM     16  N   UNL     1       3.337   6.872  18.999  0.00  0.00    +0.000 NA
ATOM     17  C   UNL     1       2.213   6.076  19.613  0.00  0.00    +0.000 C 
ATOM     18  C   UNL     1       2.233   4.696  19.014  0.00  0.00    +0.000 A 
ATOM     19  C   UNL     1       1.210   3.761  19.027  0.00  0.00    +0.000 A 
ATOM     20  C   UNL     1       1.419   2.529  18.393  0.00  0.00    +0.000 A 
ATOM     21  C   UNL     1       2.640   2.242  17.761  0.00  0.00    +0.000 A 
ATOM     22  C   UNL     1       3.672   3.181  17.757  0.00  0.00    +0.000 A 
ATOM     23  C   UNL     1       3.435   4.387  18.389  0.00  0.00    +0.000 A 
ATOM     24  S   UNL     1       4.543   5.734  18.501  0.00  0.00    +0.000 S 
ATOM     25  O   UNL     1       5.019   6.067  17.177  0.00  0.00    +0.000 OA
ATOM     26  O   UNL     1       5.416   5.472  19.620  0.00  0.00    +0.000 OA
ENDBRANCH  15  16
ENDBRANCH   3  15
TORSDOF 4
ENDMDL
MODEL 6
REMARK VINA RESULT:      -7.9      3.274      5.568
REMARK  Name = 
REMARK  6 active torsions:
REMARK  status: ('A' for Active; 'I' for Inactive)
REMARK    1  A    between atoms: C_1  and  C_2
REMARK    2  A    between atoms: C_2  and  C_3
REMARK    3  A    between atoms: C_2  and  C_4
REMARK    4  A    between atoms: C_6  and  C_7
REMARK    5  A    between atoms: C_7  and  N_8
REMARK    6  A    between atoms: N_20  and  C_21
REMARK                            x       y       z     vdW  Elec       q    Type
REMARK                         _______ _______ _______ _____ _____    ______ ____
ROOT
ATOM      1  C   UNL     1       1.295  11.203  18.927  0.00  0.00    +0.000 A 
ATOM      2  C   UNL     1       2.086  10.338  18.186  0.00  0.00    +0.000 A 
ATOM      3  C   UNL     1       1.753   9.040  18.598  0.00  0.00    +0.000 A 
ATOM      4  N   UNL     1       0.915   9.069  19.638  0.00  0.00    +0.000 NA
ATOM      5  N   UNL     1       0.621  10.390  19.848  0.00  0.00    +0.000 N 
ENDROOT
BRANCH   5   6
ATOM      6  C   UNL     1      -0.243  10.717  20.942  0.00  0.00    +0.000 A 
ATOM      7  C   UNL     1      -0.098  10.010  22.148  0.00  0.00    +0.000 A 
ATOM      8  C   UNL     1      -0.850  10.358  23.274  0.00  0.00    +0.000 A 
ATOM      9  C   UNL     1      -1.772  11.397  23.205  0.00  0.00    +0.000 A 
ATOM     10  C   UNL     1      -1.973  12.059  21.998  0.00  0.00    +0.000 A 
ATOM     11  C   UNL     1      -1.221  11.712  20.870  0.00  0.00    +0.000 A 
ENDBRANCH   5   6
BRANCH   1  13
ATOM     12  C   UNL     1       2.470  13.266  18.090  0.00  0.00    +0.000 C 
ATOM     13  C   UNL     1       1.246  12.708  18.815  0.00  0.00    +0.000 C 
ATOM     14  C   UNL     1      -0.041  13.183  18.128  0.00  0.00    +0.000 C 
ENDBRANCH   1  13
BRANCH   3  15
ATOM     15  C   UNL     1       2.202   7.744  17.971  0.00  0.00    +0.000 C 
BRANCH  15  16
ATOM     16  N   UNL     1       2.981   6.916  18.932  0.00  0.00    +0.000 NA
ATOM     17  C   UNL     1       2.092   6.023  19.762  0.00  0.00    +0.000 C 
ATOM     18  C   UNL     1       2.089   4.654  19.137  0.00  0.00    +0.000 A 
ATOM     19  C   UNL     1       1.173   3.636  19.354  0.00  0.00    +0.000 A 
ATOM     20  C   UNL     1       1.332   2.431  18.657  0.00  0.00    +0.000 A 
ATOM     21  C   UNL     1       2.398   2.252  17.760  0.00  0.00    +0.000 A 
ATOM     22  C   UNL     1       3.323   3.275  17.550  0.00  0.00    +0.000 A 
ATOM     23  C   UNL     1       3.139   4.452  18.251  0.00  0.00    +0.000 A 
ATOM     24  S   UNL     1       4.131   5.888  18.146  0.00  0.00    +0.000 S 
ATOM     25  O   UNL     1       4.267   6.269  16.758  0.00  0.00    +0.000 OA
ATOM     26  O   UNL     1       5.252   5.692  19.033  0.00  0.00    +0.000 OA
ENDBRANCH  15  16
ENDBRANCH   3  15
TORSDOF 4
ENDMDL
MODEL 7
REMARK VINA RESULT:      -7.9      4.015      7.959
REMARK  Name = 
REMARK  6 active torsions:
REMARK  status: ('A' for Active; 'I' for Inactive)
REMARK    1  A    between atoms: C_1  and  C_2
REMARK    2  A    between atoms: C_2  and  C_3
REMARK    3  A    between atoms: C_2  and  C_4
REMARK    4  A    between atoms: C_6  and  C_7
REMARK    5  A    between atoms: C_7  and  N_8
REMARK    6  A    between atoms: N_20  and  C_21
REMARK                            x       y       z     vdW  Elec       q    Type
REMARK                         _______ _______ _______ _____ _____    ______ ____
ROOT
ATOM      1  C   UNL     1       2.284   4.935  19.615  0.00  0.00    +0.000 A 
ATOM      2  C   UNL     1       1.396   5.609  20.440  0.00  0.00    +0.000 A 
ATOM      3  C   UNL     1       1.743   6.966  20.376  0.00  0.00    +0.000 A 
ATOM      4  N   UNL     1       2.867   7.139  19.676  0.00  0.00    +0.000 NA
ATOM      5  N   UNL     1       3.208   5.901  19.200  0.00  0.00    +0.000 N 
ENDROOT
BRANCH   5   6
ATOM      6  C   UNL     1       4.413   5.788  18.433  0.00  0.00    +0.000 A 
ATOM      7  C   UNL     1       4.384   6.157  17.076  0.00  0.00    +0.000 A 
ATOM      8  C   UNL     1       5.555   6.159  16.312  0.00  0.00    +0.000 A 
ATOM      9  C   UNL     1       6.762   5.768  16.882  0.00  0.00    +0.000 A 
ATOM     10  C   UNL     1       6.791   5.336  18.204  0.00  0.00    +0.000 A 
ATOM     11  C   UNL     1       5.620   5.335  18.971  0.00  0.00    +0.000 A 
ENDBRANCH   5   6
BRANCH   1  13
ATOM     12  C   UNL     1       2.368   3.184  17.808  0.00  0.00    +0.000 C 
ATOM     13  C   UNL     1       2.293   3.456  19.309  0.00  0.00    +0.000 C 
ATOM     14  C   UNL     1       3.434   2.734  20.037  0.00  0.00    +0.000 C 
ENDBRANCH   1  13
BRANCH   3  15
ATOM     15  C   UNL     1       0.974   8.128  20.950  0.00  0.00    +0.000 C 
BRANCH  15  16
ATOM     16  N   UNL     1       1.369   9.413  20.309  0.00  0.00    +0.000 NA
ATOM     17  C   UNL     1       0.898   9.501  18.878  0.00  0.00    +0.000 C 
ATOM     18  C   UNL     1      -0.379  10.295  18.852  0.00  0.00    +0.000 A 
ATOM     19  C   UNL     1      -1.318  10.340  17.834  0.00  0.00    +0.000 A 
ATOM     20  C   UNL     1      -2.461  11.132  18.009  0.00  0.00    +0.000 A 
ATOM     21  C   UNL     1      -2.652  11.870  19.189  0.00  0.00    +0.000 A 
ATOM     22  C   UNL     1      -1.701  11.830  20.209  0.00  0.00    +0.000 A 
ATOM     23  C   UNL     1      -0.586  11.039  20.007  0.00  0.00    +0.000 A 
ATOM     24  S   UNL     1       0.730  10.794  21.133  0.00  0.00    +0.000 S 
ATOM     25  O   UNL     1       0.188  10.398  22.414  0.00  0.00    +0.000 OA
ATOM     26  O   UNL     1       1.645  11.896  20.959  0.00  0.00    +0.000 OA
ENDBRANCH  15  16
ENDBRANCH   3  15
TORSDOF 4
ENDMDL
MODEL 8
REMARK VINA RESULT:      -7.9      3.430      8.543
REMARK  Name = 
REMARK  6 active torsions:
REMARK  status: ('A' for Active; 'I' for Inactive)
REMARK    1  A    between atoms: C_1  and  C_2
REMARK    2  A    between atoms: C_2  and  C_3
REMARK    3  A    between atoms: C_2  and  C_4
REMARK    4  A    between atoms: C_6  and  C_7
REMARK    5  A    between atoms: C_7  and  N_8
REMARK    6  A    between atoms: N_20  and  C_21
REMARK                            x       y       z     vdW  Elec       q    Type
REMARK                         _______ _______ _______ _____ _____    ______ ____
ROOT
ATOM      1  C   UNL     1       2.279   4.978  19.706  0.00  0.00    +0.000 A 
ATOM      2  C   UNL     1       1.794   5.828  20.689  0.00  0.00    +0.000 A 
ATOM      3  C   UNL     1       2.101   7.133  20.276  0.00  0.00    +0.000 A 
ATOM      4  N   UNL     1       2.861   7.119  19.178  0.00  0.00    +0.000 NA
ATOM      5  N   UNL     1       2.975   5.804  18.815  0.00  0.00    +0.000 N 
ENDROOT
BRANCH   5   6
ATOM      6  C   UNL     1       3.780   5.494  17.671  0.00  0.00    +0.000 A 
ATOM      7  C   UNL     1       4.328   6.553  16.927  0.00  0.00    +0.000 A 
ATOM      8  C   UNL     1       5.200   6.301  15.863  0.00  0.00    +0.000 A 
ATOM      9  C   UNL     1       5.513   4.993  15.511  0.00  0.00    +0.000 A 
ATOM     10  C   UNL     1       4.923   3.936  16.196  0.00  0.00    +0.000 A 
ATOM     11  C   UNL     1       4.051   4.186  17.262  0.00  0.00    +0.000 A 
ENDBRANCH   5   6
BRANCH   1  13
ATOM     12  C   UNL     1       2.832   2.811  20.862  0.00  0.00    +0.000 C 
ATOM     13  C   UNL     1       2.152   3.474  19.665  0.00  0.00    +0.000 C 
ATOM     14  C   UNL     1       0.686   3.033  19.575  0.00  0.00    +0.000 C 
ENDBRANCH   1  13
BRANCH   3  15
ATOM     15  C   UNL     1       1.631   8.419  20.906  0.00  0.00    +0.000 C 
BRANCH  15  16
ATOM     16  N   UNL     1       0.224   8.728  20.528  0.00  0.00    +0.000 NA
ATOM     17  C   UNL     1      -0.640   9.000  21.735  0.00  0.00    +0.000 C 
ATOM     18  C   UNL     1      -0.739  10.491  21.914  0.00  0.00    +0.000 A 
ATOM     19  C   UNL     1      -1.135  11.173  23.054  0.00  0.00    +0.000 A 
ATOM     20  C   UNL     1      -1.142  12.574  23.028  0.00  0.00    +0.000 A 
ATOM     21  C   UNL     1      -0.761  13.276  21.872  0.00  0.00    +0.000 A 
ATOM     22  C   UNL     1      -0.371  12.587  20.724  0.00  0.00    +0.000 A 
ATOM     23  C   UNL     1      -0.373  11.206  20.781  0.00  0.00    +0.000 A 
ATOM     24  S   UNL     1       0.099  10.114  19.499  0.00  0.00    +0.000 S 
ATOM     25  O   UNL     1       1.409  10.491  19.016  0.00  0.00    +0.000 OA
ATOM     26  O   UNL     1      -1.050   9.948  18.643  0.00  0.00    +0.000 OA
ENDBRANCH  15  16
ENDBRANCH   3  15
TORSDOF 4
ENDMDL
MODEL 9
REMARK VINA RESULT:      -7.8      3.593      8.591
REMARK  Name = 
REMARK  6 active torsions:
REMARK  status: ('A' for Active; 'I' for Inactive)
REMARK    1  A    between atoms: C_1  and  C_2
REMARK    2  A    between atoms: C_2  and  C_3
REMARK    3  A    between atoms: C_2  and  C_4
REMARK    4  A    between atoms: C_6  and  C_7
REMARK    5  A    between atoms: C_7  and  N_8
REMARK    6  A    between atoms: N_20  and  C_21
REMARK                            x       y       z     vdW  Elec       q    Type
REMARK                         _______ _______ _______ _____ _____    ______ ____
ROOT
ATOM      1  C   UNL     1       2.256   4.908  19.978  0.00  0.00    +0.000 A 
ATOM      2  C   UNL     1       1.651   5.906  20.727  0.00  0.00    +0.000 A 
ATOM      3  C   UNL     1       2.200   7.120  20.294  0.00  0.00    +0.000 A 
ATOM      4  N   UNL     1       3.197   6.912  19.430  0.00  0.00    +0.000 NA
ATOM      5  N   UNL     1       3.240   5.559  19.223  0.00  0.00    +0.000 N 
ENDROOT
BRANCH   5   6
ATOM      6  C   UNL     1       4.256   5.048  18.353  0.00  0.00    +0.000 A 
ATOM      7  C   UNL     1       3.875   4.545  17.096  0.00  0.00    +0.000 A 
ATOM      8  C   UNL     1       4.838   4.126  16.173  0.00  0.00    +0.000 A 
ATOM      9  C   UNL     1       6.189   4.178  16.501  0.00  0.00    +0.000 A 
ATOM     10  C   UNL     1       6.574   4.608  17.766  0.00  0.00    +0.000 A 
ATOM     11  C   UNL     1       5.612   5.029  18.691  0.00  0.00    +0.000 A 
ENDBRANCH   5   6
BRANCH   1  13
ATOM     12  C   UNL     1       1.612   2.972  21.452  0.00  0.00    +0.000 C 
ATOM     13  C   UNL     1       1.967   3.427  20.037  0.00  0.00    +0.000 C 
ATOM     14  C   UNL     1       0.856   3.028  19.057  0.00  0.00    +0.000 C 
ENDBRANCH   1  13
BRANCH   3  15
ATOM     15  C   UNL     1       1.746   8.508  20.669  0.00  0.00    +0.000 C 
BRANCH  15  16
ATOM     16  N   UNL     1       0.303   8.711  20.364  0.00  0.00    +0.000 NA
ATOM     17  C   UNL     1      -0.525   8.862  21.616  0.00  0.00    +0.000 C 
ATOM     18  C   UNL     1      -0.739  10.330  21.862  0.00  0.00    +0.000 A 
ATOM     19  C   UNL     1      -1.139  10.933  23.044  0.00  0.00    +0.000 A 
ATOM     20  C   UNL     1      -1.265  12.328  23.077  0.00  0.00    +0.000 A 
ATOM     21  C   UNL     1      -0.996  13.103  21.937  0.00  0.00    +0.000 A 
ATOM     22  C   UNL     1      -0.602  12.494  20.746  0.00  0.00    +0.000 A 
ATOM     23  C   UNL     1      -0.486  11.117  20.745  0.00  0.00    +0.000 A 
ATOM     24  S   UNL     1       0.016  10.119  19.400  0.00  0.00    +0.000 S 
ATOM     25  O   UNL     1       1.267  10.624  18.878  0.00  0.00    +0.000 OA
ATOM     26  O   UNL     1      -1.153   9.888  18.586  0.00  0.00    +0.000 OA
ENDBRANCH  15  16
ENDBRANCH   3  15
TORSDOF 4
ENDMDL
