MODEL 1
REMARK VINA RESULT:      -7.3      0.000      0.000
REMARK  Name = 
REMARK  7 active torsions:
REMARK  status: ('A' for Active; 'I' for Inactive)
REMARK    1  A    between atoms: C_1  and  O_2
REMARK    2  A    between atoms: O_2  and  C_3
REMARK    3  A    between atoms: C_6  and  O_7
REMARK    4  A    between atoms: O_7  and  C_8
REMARK    5  A    between atoms: C_12  and  C_14
REMARK    6  A    between atoms: C_14  and  C_15
REMARK    7  A    between atoms: C_15  and  C_16
REMARK                            x       y       z     vdW  Elec       q    Type
REMARK                         _______ _______ _______ _____ _____    ______ ____
ROOT
ATOM      1  C   UNL     1       3.588   6.214  18.867  0.00  0.00    +0.000 C 
ATOM      2  C   UNL     1       4.985   5.872  19.397  0.00  0.00    +0.000 C 
ATOM      3  C   UNL     1       5.975   6.047  18.256  0.00  0.00    +0.000 C 
ATOM      4  N   UNL     1       5.608   5.184  17.134  0.00  0.00    +0.000 N 
ATOM      5  C   UNL     1       6.608   4.431  16.539  0.00  0.00    +0.000 C 
ATOM      6  O   UNL     1       7.781   4.479  16.912  0.00  0.00    +0.000 OA
ATOM      7  C   UNL     1       4.220   5.308  16.653  0.00  0.00    +0.000 C 
ATOM      8  C   UNL     1       3.225   5.172  17.806  0.00  0.00    +0.000 C 
ENDROOT
BRANCH   1   9
ATOM      9  O   UNL     1       2.615   6.233  19.913  0.00  0.00    +0.000 OA
BRANCH   9  13
ATOM     10  C   UNL     1       0.577   9.885  20.051  0.00  0.00    +0.000 A 
ATOM     11  C   UNL     1       1.301   9.489  18.923  0.00  0.00    +0.000 A 
ATOM     12  C   UNL     1       1.958   8.254  18.893  0.00  0.00    +0.000 A 
ATOM     13  C   UNL     1       1.931   7.422  20.012  0.00  0.00    +0.000 A 
ATOM     14  C   UNL     1       1.223   7.835  21.144  0.00  0.00    +0.000 A 
ATOM     15  C   UNL     1       0.556   9.058  21.169  0.00  0.00    +0.000 A 
BRANCH  10  17
ATOM     16  C   UNL     1      -0.737  11.500  21.153  0.00  0.00    +0.000 C 
ATOM     17  O   UNL     1      -0.043  11.099  19.974  0.00  0.00    +0.000 OA
ENDBRANCH  10  17
ENDBRANCH   9  13
ENDBRANCH   1   9
BRANCH   5  18
ATOM     18  C   UNL     1       6.212   3.548  15.381  0.00  0.00    +0.000 C 
BRANCH  18  19
ATOM     19  C   UNL     1       6.711   4.120  14.059  0.00  0.00    +0.000 C 
BRANCH  19  20
ATOM     20  C   UNL     1       5.963   3.527  12.921  0.00  0.00    +0.000 A 
ATOM     21  N   UNL     1       4.785   3.885  12.453  0.00  0.00    +0.000 NA
ATOM     22  C   UNL     1       4.584   3.023  11.410  0.00  0.00    +0.000 A 
ATOM     23 CL   UNL     1       3.212   3.046  10.418  0.00  0.00    +0.000 Cl
ATOM     24  N   UNL     1       5.570   2.145  11.212  0.00  0.00    +0.000 NA
ATOM     25  N   UNL     1       6.430   2.477  12.186  0.00  0.00    +0.000 N 
ATOM     26  H   UNL     1       7.298   1.961  12.280  0.00  0.00    +0.000 HD
ENDBRANCH  19  20
ENDBRANCH  18  19
ENDBRANCH   5  18
TORSDOF 6
ENDMDL
MODEL 2
REMARK VINA RESULT:      -7.3      4.172      5.972
REMARK  Name = 
REMARK  7 active torsions:
REMARK  status: ('A' for Active; 'I' for Inactive)
REMARK    1  A    between atoms: C_1  and  O_2
REMARK    2  A    between atoms: O_2  and  C_3
REMARK    3  A    between atoms: C_6  and  O_7
REMARK    4  A    between atoms: O_7  and  C_8
REMARK    5  A    between atoms: C_12  and  C_14
REMARK    6  A    between atoms: C_14  and  C_15
REMARK    7  A    between atoms: C_15  and  C_16
REMARK                            x       y       z     vdW  Elec       q    Type
REMARK                         _______ _______ _______ _____ _____    ______ ____
ROOT
ATOM      1  C   UNL     1       1.157  10.052  18.994  0.00  0.00    +0.000 C 
ATOM      2  C   UNL     1       0.581   9.224  20.148  0.00  0.00    +0.000 C 
ATOM      3  C   UNL     1       1.661   8.264  20.620  0.00  0.00    +0.000 C 
ATOM      4  N   UNL     1       2.091   7.407  19.517  0.00  0.00    +0.000 N 
ATOM      5  C   UNL     1       2.199   6.045  19.755  0.00  0.00    +0.000 C 
ATOM      6  O   UNL     1       1.963   5.547  20.857  0.00  0.00    +0.000 OA
ATOM      7  C   UNL     1       2.504   8.101  18.284  0.00  0.00    +0.000 C 
ATOM      8  C   UNL     1       1.435   9.097  17.830  0.00  0.00    +0.000 C 
ENDROOT
BRANCH   1   9
ATOM      9  O   UNL     1       0.264  11.093  18.593  0.00  0.00    +0.000 OA
BRANCH   9  13
ATOM     10  C   UNL     1       2.097  14.852  18.756  0.00  0.00    +0.000 A 
ATOM     11  C   UNL     1       2.834  13.682  18.550  0.00  0.00    +0.000 A 
ATOM     12  C   UNL     1       2.197  12.439  18.478  0.00  0.00    +0.000 A 
ATOM     13  C   UNL     1       0.817  12.351  18.657  0.00  0.00    +0.000 A 
ATOM     14  C   UNL     1       0.089  13.523  18.886  0.00  0.00    +0.000 A 
ATOM     15  C   UNL     1       0.722  14.764  18.941  0.00  0.00    +0.000 A 
BRANCH  10  17
ATOM     16  C   UNL     1       3.115  16.576  17.515  0.00  0.00    +0.000 C 
ATOM     17  O   UNL     1       2.810  16.016  18.791  0.00  0.00    +0.000 OA
ENDBRANCH  10  17
ENDBRANCH   9  13
ENDBRANCH   1   9
BRANCH   5  18
ATOM     18  C   UNL     1       2.645   5.176  18.605  0.00  0.00    +0.000 C 
BRANCH  18  19
ATOM     19  C   UNL     1       3.731   4.199  19.045  0.00  0.00    +0.000 C 
BRANCH  19  20
ATOM     20  C   UNL     1       5.073   4.713  18.673  0.00  0.00    +0.000 A 
ATOM     21  N   UNL     1       5.404   5.942  18.336  0.00  0.00    +0.000 NA
ATOM     22  C   UNL     1       6.750   5.857  18.108  0.00  0.00    +0.000 A 
ATOM     23 CL   UNL     1       7.716   7.172  17.658  0.00  0.00    +0.000 Cl
ATOM     24  N   UNL     1       7.270   4.639  18.278  0.00  0.00    +0.000 NA
ATOM     25  N   UNL     1       6.188   3.927  18.628  0.00  0.00    +0.000 N 
ATOM     26  H   UNL     1       6.285   2.938  18.823  0.00  0.00    +0.000 HD
ENDBRANCH  19  20
ENDBRANCH  18  19
ENDBRANCH   5  18
TORSDOF 6
ENDMDL
MODEL 3
REMARK VINA RESULT:      -7.1      6.890     11.043
REMARK  Name = 
REMARK  7 active torsions:
REMARK  status: ('A' for Active; 'I' for Inactive)
REMARK    1  A    between atoms: C_1  and  O_2
REMARK    2  A    between atoms: O_2  and  C_3
REMARK    3  A    between atoms: C_6  and  O_7
REMARK    4  A    between atoms: O_7  and  C_8
REMARK    5  A    between atoms: C_12  and  C_14
REMARK    6  A    between atoms: C_14  and  C_15
REMARK    7  A    between atoms: C_15  and  C_16
REMARK                            x       y       z     vdW  Elec       q    Type
REMARK                         _______ _______ _______ _____ _____    ______ ____
ROOT
ATOM      1  C   UNL     1       1.166   8.398  20.604  0.00  0.00    +0.000 C 
ATOM      2  C   UNL     1       1.306   8.923  22.037  0.00  0.00    +0.000 C 
ATOM      3  C   UNL     1      -0.064   9.395  22.498  0.00  0.00    +0.000 C 
ATOM      4  N   UNL     1      -0.569  10.432  21.600  0.00  0.00    +0.000 N 
ATOM      5  C   UNL     1      -1.106  11.578  22.167  0.00  0.00    +0.000 C 
ATOM      6  O   UNL     1      -1.184  11.737  23.387  0.00  0.00    +0.000 OA
ATOM      7  C   UNL     1      -0.582  10.093  20.166  0.00  0.00    +0.000 C 
ATOM      8  C   UNL     1       0.785   9.581  19.710  0.00  0.00    +0.000 C 
ENDROOT
BRANCH   1   9
ATOM      9  O   UNL     1       2.373   7.785  20.146  0.00  0.00    +0.000 OA
BRANCH   9  13
ATOM     10  C   UNL     1       1.783   3.869  18.794  0.00  0.00    +0.000 A 
ATOM     11  C   UNL     1       1.592   4.222  20.133  0.00  0.00    +0.000 A 
ATOM     12  C   UNL     1       1.775   5.542  20.557  0.00  0.00    +0.000 A 
ATOM     13  C   UNL     1       2.196   6.514  19.650  0.00  0.00    +0.000 A 
ATOM     14  C   UNL     1       2.406   6.149  18.317  0.00  0.00    +0.000 A 
ATOM     15  C   UNL     1       2.208   4.837  17.891  0.00  0.00    +0.000 A 
BRANCH  10  17
ATOM     16  C   UNL     1       2.706   1.715  18.553  0.00  0.00    +0.000 C 
ATOM     17  O   UNL     1       1.559   2.560  18.478  0.00  0.00    +0.000 OA
ENDBRANCH  10  17
ENDBRANCH   9  13
ENDBRANCH   1   9
BRANCH   5  18
ATOM     18  C   UNL     1      -1.623  12.638  21.226  0.00  0.00    +0.000 C 
BRANCH  18  19
ATOM     19  C   UNL     1      -2.718  13.470  21.885  0.00  0.00    +0.000 C 
BRANCH  19  20
ATOM     20  C   UNL     1      -4.057  12.918  21.559  0.00  0.00    +0.000 A 
ATOM     21  N   UNL     1      -4.581  12.717  20.367  0.00  0.00    +0.000 NA
ATOM     22  C   UNL     1      -5.812  12.190  20.647  0.00  0.00    +0.000 A 
ATOM     23 CL   UNL     1      -6.926  11.715  19.464  0.00  0.00    +0.000 Cl
ATOM     24  N   UNL     1      -6.082  12.060  21.948  0.00  0.00    +0.000 NA
ATOM     25  N   UNL     1      -4.959  12.535  22.508  0.00  0.00    +0.000 N 
ATOM     26  H   UNL     1      -4.879  12.559  23.518  0.00  0.00    +0.000 HD
ENDBRANCH  19  20
ENDBRANCH  18  19
ENDBRANCH   5  18
TORSDOF 6
ENDMDL
MODEL 4
REMARK VINA RESULT:      -6.9      3.953      5.737
REMARK  Name = 
REMARK  7 active torsions:
REMARK  status: ('A' for Active; 'I' for Inactive)
REMARK    1  A    between atoms: C_1  and  O_2
REMARK    2  A    between atoms: O_2  and  C_3
REMARK    3  A    between atoms: C_6  and  O_7
REMARK    4  A    between atoms: O_7  and  C_8
REMARK    5  A    between atoms: C_12  and  C_14
REMARK    6  A    between atoms: C_14  and  C_15
REMARK    7  A    between atoms: C_15  and  C_16
REMARK                            x       y       z     vdW  Elec       q    Type
REMARK                         _______ _______ _______ _____ _____    ______ ____
ROOT
ATOM      1  C   UNL     1       1.565   9.710  19.126  0.00  0.00    +0.000 C 
ATOM      2  C   UNL     1       0.975   8.748  20.163  0.00  0.00    +0.000 C 
ATOM      3  C   UNL     1       1.978   7.628  20.387  0.00  0.00    +0.000 C 
ATOM      4  N   UNL     1       2.257   6.941  19.126  0.00  0.00    +0.000 N 
ATOM      5  C   UNL     1       2.241   5.555  19.123  0.00  0.00    +0.000 C 
ATOM      6  O   UNL     1       2.019   4.895  20.140  0.00  0.00    +0.000 OA
ATOM      7  C   UNL     1       2.668   7.801  18.002  0.00  0.00    +0.000 C 
ATOM      8  C   UNL     1       1.680   8.952  17.801  0.00  0.00    +0.000 C 
ENDROOT
BRANCH   1   9
ATOM      9  O   UNL     1       0.760  10.881  18.972  0.00  0.00    +0.000 OA
BRANCH   9  13
ATOM     10  C   UNL     1       2.790  14.460  19.734  0.00  0.00    +0.000 A 
ATOM     11  C   UNL     1       1.946  13.877  20.684  0.00  0.00    +0.000 A 
ATOM     12  C   UNL     1       1.294  12.669  20.413  0.00  0.00    +0.000 A 
ATOM     13  C   UNL     1       1.448  12.055  19.171  0.00  0.00    +0.000 A 
ATOM     14  C   UNL     1       2.276  12.657  18.218  0.00  0.00    +0.000 A 
ATOM     15  C   UNL     1       2.939  13.852  18.493  0.00  0.00    +0.000 A 
BRANCH  10  17
ATOM     16  C   UNL     1       4.556  15.971  19.350  0.00  0.00    +0.000 C 
ATOM     17  O   UNL     1       3.394  15.628  20.102  0.00  0.00    +0.000 OA
ENDBRANCH  10  17
ENDBRANCH   9  13
ENDBRANCH   1   9
BRANCH   5  18
ATOM     18  C   UNL     1       2.533   4.863  17.814  0.00  0.00    +0.000 C 
BRANCH  18  19
ATOM     19  C   UNL     1       3.631   3.819  17.978  0.00  0.00    +0.000 C 
BRANCH  19  20
ATOM     20  C   UNL     1       4.949   4.476  18.170  0.00  0.00    +0.000 A 
ATOM     21  N   UNL     1       5.392   5.581  17.606  0.00  0.00    +0.000 NA
ATOM     22  C   UNL     1       6.642   5.730  18.140  0.00  0.00    +0.000 A 
ATOM     23 CL   UNL     1       7.676   7.020  17.776  0.00  0.00    +0.000 Cl
ATOM     24  N   UNL     1       7.000   4.773  19.000  0.00  0.00    +0.000 NA
ATOM     25  N   UNL     1       5.916   3.984  18.998  0.00  0.00    +0.000 N 
ATOM     26  H   UNL     1       5.904   3.153  19.577  0.00  0.00    +0.000 HD
ENDBRANCH  19  20
ENDBRANCH  18  19
ENDBRANCH   5  18
TORSDOF 6
ENDMDL
MODEL 5
REMARK VINA RESULT:      -6.9      2.196      2.759
REMARK  Name = 
REMARK  7 active torsions:
REMARK  status: ('A' for Active; 'I' for Inactive)
REMARK    1  A    between atoms: C_1  and  O_2
REMARK    2  A    between atoms: O_2  and  C_3
REMARK    3  A    between atoms: C_6  and  O_7
REMARK    4  A    between atoms: O_7  and  C_8
REMARK    5  A    between atoms: C_12  and  C_14
REMARK    6  A    between atoms: C_14  and  C_15
REMARK    7  A    between atoms: C_15  and  C_16
REMARK                            x       y       z     vdW  Elec       q    Type
REMARK                         _______ _______ _______ _____ _____    ______ ____
ROOT
ATOM      1  C   UNL     1       2.716   7.620  18.549  0.00  0.00    +0.000 C 
ATOM      2  C   UNL     1       2.483   6.244  19.183  0.00  0.00    +0.000 C 
ATOM      3  C   UNL     1       3.835   5.680  19.588  0.00  0.00    +0.000 C 
ATOM      4  N   UNL     1       4.712   5.585  18.422  0.00  0.00    +0.000 N 
ATOM      5  C   UNL     1       5.414   4.405  18.231  0.00  0.00    +0.000 C 
ATOM      6  O   UNL     1       5.334   3.455  19.012  0.00  0.00    +0.000 OA
ATOM      7  C   UNL     1       4.870   6.819  17.632  0.00  0.00    +0.000 C 
ATOM      8  C   UNL     1       3.509   7.409  17.257  0.00  0.00    +0.000 C 
ENDROOT
BRANCH   1   9
ATOM      9  O   UNL     1       1.485   8.295  18.283  0.00  0.00    +0.000 OA
BRANCH   9  13
ATOM     10  C   UNL     1       0.844  11.588  20.785  0.00  0.00    +0.000 A 
ATOM     11  C   UNL     1       0.665  10.277  21.235  0.00  0.00    +0.000 A 
ATOM     12  C   UNL     1       0.905   9.191  20.386  0.00  0.00    +0.000 A 
ATOM     13  C   UNL     1       1.286   9.411  19.062  0.00  0.00    +0.000 A 
ATOM     14  C   UNL     1       1.441  10.726  18.613  0.00  0.00    +0.000 A 
ATOM     15  C   UNL     1       1.217  11.808  19.464  0.00  0.00    +0.000 A 
BRANCH  10  17
ATOM     16  C   UNL     1      -0.590  13.326  21.473  0.00  0.00    +0.000 C 
ATOM     17  O   UNL     1       0.603  12.576  21.696  0.00  0.00    +0.000 OA
ENDBRANCH  10  17
ENDBRANCH   9  13
ENDBRANCH   1   9
BRANCH   5  18
ATOM     18  C   UNL     1       6.315   4.324  17.024  0.00  0.00    +0.000 C 
BRANCH  18  19
ATOM     19  C   UNL     1       5.562   3.788  15.811  0.00  0.00    +0.000 C 
BRANCH  19  20
ATOM     20  C   UNL     1       6.271   4.147  14.558  0.00  0.00    +0.000 A 
ATOM     21  N   UNL     1       7.015   5.210  14.325  0.00  0.00    +0.000 NA
ATOM     22  C   UNL     1       7.424   5.033  13.032  0.00  0.00    +0.000 A 
ATOM     23 CL   UNL     1       8.439   6.109  12.208  0.00  0.00    +0.000 Cl
ATOM     24  N   UNL     1       6.968   3.922  12.448  0.00  0.00    +0.000 NA
ATOM     25  N   UNL     1       6.233   3.380  13.430  0.00  0.00    +0.000 N 
ATOM     26  H   UNL     1       5.752   2.503  13.266  0.00  0.00    +0.000 HD
ENDBRANCH  19  20
ENDBRANCH  18  19
ENDBRANCH   5  18
TORSDOF 6
ENDMDL
MODEL 6
REMARK VINA RESULT:      -6.9      2.288      3.031
REMARK  Name = 
REMARK  7 active torsions:
REMARK  status: ('A' for Active; 'I' for Inactive)
REMARK    1  A    between atoms: C_1  and  O_2
REMARK    2  A    between atoms: O_2  and  C_3
REMARK    3  A    between atoms: C_6  and  O_7
REMARK    4  A    between atoms: O_7  and  C_8
REMARK    5  A    between atoms: C_12  and  C_14
REMARK    6  A    between atoms: C_14  and  C_15
REMARK    7  A    between atoms: C_15  and  C_16
REMARK                            x       y       z     vdW  Elec       q    Type
REMARK                         _______ _______ _______ _____ _____    ______ ____
ROOT
ATOM      1  C   UNL     1       2.631   7.934  18.203  0.00  0.00    +0.000 C 
ATOM      2  C   UNL     1       2.158   6.647  18.889  0.00  0.00    +0.000 C 
ATOM      3  C   UNL     1       3.361   6.009  19.566  0.00  0.00    +0.000 C 
ATOM      4  N   UNL     1       4.406   5.732  18.582  0.00  0.00    +0.000 N 
ATOM      5  C   UNL     1       5.008   4.483  18.606  0.00  0.00    +0.000 C 
ATOM      6  O   UNL     1       4.704   3.620  19.432  0.00  0.00    +0.000 OA
ATOM      7  C   UNL     1       4.816   6.870  17.740  0.00  0.00    +0.000 C 
ATOM      8  C   UNL     1       3.603   7.537  17.090  0.00  0.00    +0.000 C 
ENDROOT
BRANCH   1   9
ATOM      9  O   UNL     1       1.535   8.685  17.676  0.00  0.00    +0.000 OA
BRANCH   9  13
ATOM     10  C   UNL     1       0.940  12.343  19.618  0.00  0.00    +0.000 A 
ATOM     11  C   UNL     1       1.938  12.177  18.653  0.00  0.00    +0.000 A 
ATOM     12  C   UNL     1       2.104  10.949  18.003  0.00  0.00    +0.000 A 
ATOM     13  C   UNL     1       1.299   9.863  18.345  0.00  0.00    +0.000 A 
ATOM     14  C   UNL     1       0.318  10.032  19.327  0.00  0.00    +0.000 A 
ATOM     15  C   UNL     1       0.141  11.259  19.963  0.00  0.00    +0.000 A 
BRANCH  10  17
ATOM     16  C   UNL     1       0.442  13.600  21.547  0.00  0.00    +0.000 C 
ATOM     17  O   UNL     1       0.846  13.585  20.180  0.00  0.00    +0.000 OA
ENDBRANCH  10  17
ENDBRANCH   9  13
ENDBRANCH   1   9
BRANCH   5  18
ATOM     18  C   UNL     1       6.085   4.215  17.584  0.00  0.00    +0.000 C 
BRANCH  18  19
ATOM     19  C   UNL     1       5.483   3.766  16.257  0.00  0.00    +0.000 C 
BRANCH  19  20
ATOM     20  C   UNL     1       6.283   4.287  15.121  0.00  0.00    +0.000 A 
ATOM     21  N   UNL     1       6.185   3.965  13.847  0.00  0.00    +0.000 NA
ATOM     22  C   UNL     1       7.140   4.740  13.249  0.00  0.00    +0.000 A 
ATOM     23 CL   UNL     1       7.443   4.748  11.584  0.00  0.00    +0.000 Cl
ATOM     24  N   UNL     1       7.831   5.519  14.085  0.00  0.00    +0.000 NA
ATOM     25  N   UNL     1       7.277   5.210  15.267  0.00  0.00    +0.000 N 
ATOM     26  H   UNL     1       7.615   5.663  16.108  0.00  0.00    +0.000 HD
ENDBRANCH  19  20
ENDBRANCH  18  19
ENDBRANCH   5  18
TORSDOF 6
ENDMDL
MODEL 7
REMARK VINA RESULT:      -6.8      6.993     10.905
REMARK  Name = 
REMARK  7 active torsions:
REMARK  status: ('A' for Active; 'I' for Inactive)
REMARK    1  A    between atoms: C_1  and  O_2
REMARK    2  A    between atoms: O_2  and  C_3
REMARK    3  A    between atoms: C_6  and  O_7
REMARK    4  A    between atoms: O_7  and  C_8
REMARK    5  A    between atoms: C_12  and  C_14
REMARK    6  A    between atoms: C_14  and  C_15
REMARK    7  A    between atoms: C_15  and  C_16
REMARK                            x       y       z     vdW  Elec       q    Type
REMARK                         _______ _______ _______ _____ _____    ______ ____
ROOT
ATOM      1  C   UNL     1       1.089   8.549  20.765  0.00  0.00    +0.000 C 
ATOM      2  C   UNL     1       1.063   9.044  22.215  0.00  0.00    +0.000 C 
ATOM      3  C   UNL     1      -0.348   9.520  22.522  0.00  0.00    +0.000 C 
ATOM      4  N   UNL     1      -0.736  10.581  21.593  0.00  0.00    +0.000 N 
ATOM      5  C   UNL     1      -1.327  11.720  22.118  0.00  0.00    +0.000 C 
ATOM      6  O   UNL     1      -1.547  11.855  23.323  0.00  0.00    +0.000 OA
ATOM      7  C   UNL     1      -0.583  10.270  20.161  0.00  0.00    +0.000 C 
ATOM      8  C   UNL     1       0.824   9.754  19.858  0.00  0.00    +0.000 C 
ENDROOT
BRANCH   1   9
ATOM      9  O   UNL     1       2.337   7.934  20.438  0.00  0.00    +0.000 OA
BRANCH   9  13
ATOM     10  C   UNL     1       1.879   4.179  18.649  0.00  0.00    +0.000 A 
ATOM     11  C   UNL     1       1.588   4.390  19.999  0.00  0.00    +0.000 A 
ATOM     12  C   UNL     1       1.729   5.659  20.570  0.00  0.00    +0.000 A 
ATOM     13  C   UNL     1       2.206   6.721  19.802  0.00  0.00    +0.000 A 
ATOM     14  C   UNL     1       2.516   6.497  18.458  0.00  0.00    +0.000 A 
ATOM     15  C   UNL     1       2.360   5.236  17.884  0.00  0.00    +0.000 A 
BRANCH  10  17
ATOM     16  C   UNL     1       0.683   2.160  18.860  0.00  0.00    +0.000 C 
ATOM     17  O   UNL     1       1.690   2.909  18.183  0.00  0.00    +0.000 OA
ENDBRANCH  10  17
ENDBRANCH   9  13
ENDBRANCH   1   9
BRANCH   5  18
ATOM     18  C   UNL     1      -1.722  12.804  21.145  0.00  0.00    +0.000 C 
BRANCH  18  19
ATOM     19  C   UNL     1      -2.995  13.511  21.598  0.00  0.00    +0.000 C 
BRANCH  19  20
ATOM     20  C   UNL     1      -4.184  12.913  20.940  0.00  0.00    +0.000 A 
ATOM     21  N   UNL     1      -5.223  12.341  21.512  0.00  0.00    +0.000 NA
ATOM     22  C   UNL     1      -6.012  11.984  20.453  0.00  0.00    +0.000 A 
ATOM     23 CL   UNL     1      -7.513  11.217  20.610  0.00  0.00    +0.000 Cl
ATOM     24  N   UNL     1      -5.513  12.297  19.255  0.00  0.00    +0.000 NA
ATOM     25  N   UNL     1      -4.350  12.877  19.586  0.00  0.00    +0.000 N 
ATOM     26  H   UNL     1      -3.740  13.224  18.855  0.00  0.00    +0.000 HD
ENDBRANCH  19  20
ENDBRANCH  18  19
ENDBRANCH   5  18
TORSDOF 6
ENDMDL
MODEL 8
REMARK VINA RESULT:      -6.8      3.588      4.442
REMARK  Name = 
REMARK  7 active torsions:
REMARK  status: ('A' for Active; 'I' for Inactive)
REMARK    1  A    between atoms: C_1  and  O_2
REMARK    2  A    between atoms: O_2  and  C_3
REMARK    3  A    between atoms: C_6  and  O_7
REMARK    4  A    between atoms: O_7  and  C_8
REMARK    5  A    between atoms: C_12  and  C_14
REMARK    6  A    between atoms: C_14  and  C_15
REMARK    7  A    between atoms: C_15  and  C_16
REMARK                            x       y       z     vdW  Elec       q    Type
REMARK                         _______ _______ _______ _____ _____    ______ ____
ROOT
ATOM      1  C   UNL     1       2.165   7.265  19.687  0.00  0.00    +0.000 C 
ATOM      2  C   UNL     1       2.131   5.822  20.202  0.00  0.00    +0.000 C 
ATOM      3  C   UNL     1       3.478   5.185  19.899  0.00  0.00    +0.000 C 
ATOM      4  N   UNL     1       3.745   5.229  18.462  0.00  0.00    +0.000 N 
ATOM      5  C   UNL     1       4.201   4.072  17.850  0.00  0.00    +0.000 C 
ATOM      6  O   UNL     1       4.401   3.029  18.475  0.00  0.00    +0.000 OA
ATOM      7  C   UNL     1       3.632   6.553  17.825  0.00  0.00    +0.000 C 
ATOM      8  C   UNL     1       2.293   7.212  18.162  0.00  0.00    +0.000 C 
ENDROOT
BRANCH   1   9
ATOM      9  O   UNL     1       0.996   7.992  20.072  0.00  0.00    +0.000 OA
BRANCH   9  13
ATOM     10  C   UNL     1       1.301  12.149  19.710  0.00  0.00    +0.000 A 
ATOM     11  C   UNL     1       0.963  11.540  20.922  0.00  0.00    +0.000 A 
ATOM     12  C   UNL     1       0.888  10.146  21.023  0.00  0.00    +0.000 A 
ATOM     13  C   UNL     1       1.108   9.352  19.898  0.00  0.00    +0.000 A 
ATOM     14  C   UNL     1       1.423   9.970  18.685  0.00  0.00    +0.000 A 
ATOM     15  C   UNL     1       1.514  11.358  18.587  0.00  0.00    +0.000 A 
BRANCH  10  17
ATOM     16  C   UNL     1       1.944  14.099  18.554  0.00  0.00    +0.000 C 
ATOM     17  O   UNL     1       1.367  13.513  19.720  0.00  0.00    +0.000 OA
ENDBRANCH  10  17
ENDBRANCH   9  13
ENDBRANCH   1   9
BRANCH   5  18
ATOM     18  C   UNL     1       4.473   4.135  16.367  0.00  0.00    +0.000 C 
BRANCH  18  19
ATOM     19  C   UNL     1       5.966   4.034  16.078  0.00  0.00    +0.000 C 
BRANCH  19  20
ATOM     20  C   UNL     1       6.731   4.944  16.968  0.00  0.00    +0.000 A 
ATOM     21  N   UNL     1       6.967   6.229  16.800  0.00  0.00    +0.000 NA
ATOM     22  C   UNL     1       7.697   6.564  17.907  0.00  0.00    +0.000 A 
ATOM     23 CL   UNL     1       8.263   8.127  18.228  0.00  0.00    +0.000 Cl
ATOM     24  N   UNL     1       7.932   5.553  18.748  0.00  0.00    +0.000 NA
ATOM     25  N   UNL     1       7.318   4.534  18.129  0.00  0.00    +0.000 N 
ATOM     26  H   UNL     1       7.334   3.613  18.551  0.00  0.00    +0.000 HD
ENDBRANCH  19  20
ENDBRANCH  18  19
ENDBRANCH   5  18
TORSDOF 6
ENDMDL
MODEL 9
REMARK VINA RESULT:      -6.8      7.237     11.508
REMARK  Name = 
REMARK  7 active torsions:
REMARK  status: ('A' for Active; 'I' for Inactive)
REMARK    1  A    between atoms: C_1  and  O_2
REMARK    2  A    between atoms: O_2  and  C_3
REMARK    3  A    between atoms: C_6  and  O_7
REMARK    4  A    between atoms: O_7  and  C_8
REMARK    5  A    between atoms: C_12  and  C_14
REMARK    6  A    between atoms: C_14  and  C_15
REMARK    7  A    between atoms: C_15  and  C_16
REMARK                            x       y       z     vdW  Elec       q    Type
REMARK                         _______ _______ _______ _____ _____    ______ ____
ROOT
ATOM      1  C   UNL     1       1.091   8.453  20.735  0.00  0.00    +0.000 C 
ATOM      2  C   UNL     1       1.121   8.979  22.175  0.00  0.00    +0.000 C 
ATOM      3  C   UNL     1      -0.262   9.514  22.507  0.00  0.00    +0.000 C 
ATOM      4  N   UNL     1      -0.634  10.570  21.566  0.00  0.00    +0.000 N 
ATOM      5  C   UNL     1      -1.168  11.742  22.080  0.00  0.00    +0.000 C 
ATOM      6  O   UNL     1      -1.351  11.909  23.287  0.00  0.00    +0.000 OA
ATOM      7  C   UNL     1      -0.531  10.225  20.137  0.00  0.00    +0.000 C 
ATOM      8  C   UNL     1       0.848   9.648  19.810  0.00  0.00    +0.000 C 
ENDROOT
BRANCH   1   9
ATOM      9  O   UNL     1       2.305   7.784  20.391  0.00  0.00    +0.000 OA
BRANCH   9  13
ATOM     10  C   UNL     1       1.668   3.936  18.876  0.00  0.00    +0.000 A 
ATOM     11  C   UNL     1       1.447   4.242  20.222  0.00  0.00    +0.000 A 
ATOM     12  C   UNL     1       1.648   5.541  20.701  0.00  0.00    +0.000 A 
ATOM     13  C   UNL     1       2.114   6.537  19.843  0.00  0.00    +0.000 A 
ATOM     14  C   UNL     1       2.354   6.217  18.503  0.00  0.00    +0.000 A 
ATOM     15  C   UNL     1       2.138   4.927  18.022  0.00  0.00    +0.000 A 
BRANCH  10  17
ATOM     16  C   UNL     1       2.430   2.052  17.684  0.00  0.00    +0.000 C 
ATOM     17  O   UNL     1       1.425   2.644  18.504  0.00  0.00    +0.000 OA
ENDBRANCH  10  17
ENDBRANCH   9  13
ENDBRANCH   1   9
BRANCH   5  18
ATOM     18  C   UNL     1      -1.547  12.820  21.095  0.00  0.00    +0.000 C 
BRANCH  18  19
ATOM     19  C   UNL     1      -2.997  12.670  20.648  0.00  0.00    +0.000 C 
BRANCH  19  20
ATOM     20  C   UNL     1      -3.920  13.003  21.762  0.00  0.00    +0.000 A 
ATOM     21  N   UNL     1      -5.032  12.384  22.103  0.00  0.00    +0.000 NA
ATOM     22  C   UNL     1      -5.469  13.092  23.188  0.00  0.00    +0.000 A 
ATOM     23 CL   UNL     1      -6.871  12.716  24.059  0.00  0.00    +0.000 Cl
ATOM     24  N   UNL     1      -4.692  14.122  23.534  0.00  0.00    +0.000 NA
ATOM     25  N   UNL     1      -3.720  14.052  22.611  0.00  0.00    +0.000 N 
ATOM     26  H   UNL     1      -2.968  14.731  22.628  0.00  0.00    +0.000 HD
ENDBRANCH  19  20
ENDBRANCH  18  19
ENDBRANCH   5  18
TORSDOF 6
ENDMDL
