MODEL 1
REMARK VINA RESULT:      -7.4      0.000      0.000
REMARK  Name = 
REMARK  4 active torsions:
REMARK  status: ('A' for Active; 'I' for Inactive)
REMARK    1  A    between atoms: C_1  and  C_2
REMARK    2  A    between atoms: C_4  and  C_5
REMARK    3  A    between atoms: C_13  and  C_14
REMARK    4  A    between atoms: N_16  and  C_17
REMARK                            x       y       z     vdW  Elec       q    Type
REMARK                         _______ _______ _______ _____ _____    ______ ____
ROOT
ATOM      1  C   UNL     1      -0.849  10.556  23.099  0.00  0.00    +0.000 C 
ATOM      2  C   UNL     1      -0.063   9.902  22.000  0.00  0.00    +0.000 A 
ATOM      3  C   UNL     1       0.261  10.592  20.828  0.00  0.00    +0.000 A 
ATOM      4  C   UNL     1       1.005   9.991  19.790  0.00  0.00    +0.000 A 
ATOM      5  C   UNL     1       1.323  10.779  18.550  0.00  0.00    +0.000 C 
ATOM      6  C   UNL     1       1.435   8.650  19.958  0.00  0.00    +0.000 A 
ATOM      7  N   UNL     1       2.179   7.900  19.051  0.00  0.00    +0.000 NA
ATOM      8  C   UNL     1       2.442   6.698  19.522  0.00  0.00    +0.000 A 
ATOM      9  N   UNL     1       3.156   5.753  18.842  0.00  0.00    +0.000 N 
ATOM     10  C   UNL     1       3.847   4.648  19.501  0.00  0.00    +0.000 C 
ATOM     11  C   UNL     1       5.356   4.820  19.331  0.00  0.00    +0.000 C 
ATOM     12  C   UNL     1       5.729   4.959  17.856  0.00  0.00    +0.000 C 
ATOM     13  C   UNL     1       4.947   6.101  17.188  0.00  0.00    +0.000 C 
ATOM     14  C   UNL     1       3.442   5.926  17.417  0.00  0.00    +0.000 C 
ATOM     15  S   UNL     1       1.751   6.400  21.079  0.00  0.00    +0.000 S 
ATOM     16  C   UNL     1       1.105   7.981  21.132  0.00  0.00    +0.000 A 
ATOM     17  C   UNL     1       0.357   8.579  22.159  0.00  0.00    +0.000 A 
ENDROOT
BRANCH  13  18
ATOM     18  C   UNL     1       5.209   6.134  15.690  0.00  0.00    +0.000 C 
ATOM     19  O   UNL     1       5.243   7.177  15.044  0.00  0.00    +0.000 OA
ATOM     20  N   UNL     1       5.442   4.895  15.128  0.00  0.00    +0.000 N 
ATOM     21  H   UNL     1       5.555   4.097  15.741  0.00  0.00    +0.000 HD
BRANCH  20  22
ATOM     22  C   UNL     1       5.818   4.755  13.735  0.00  0.00    +0.000 C 
ATOM     23  C   UNL     1       7.329   4.816  13.537  0.00  0.00    +0.000 C 
ATOM     24  C   UNL     1       7.544   4.188  12.167  0.00  0.00    +0.000 C 
ATOM     25  C   UNL     1       6.390   3.206  11.967  0.00  0.00    +0.000 C 
ATOM     26  C   UNL     1       5.453   3.392  13.158  0.00  0.00    +0.000 C 
ENDBRANCH  20  22
ENDBRANCH  13  18
TORSDOF 2
ENDMDL
MODEL 2
REMARK VINA RESULT:      -7.1      3.624     10.131
REMARK  Name = 
REMARK  4 active torsions:
REMARK  status: ('A' for Active; 'I' for Inactive)
REMARK    1  A    between atoms: C_1  and  C_2
REMARK    2  A    between atoms: C_4  and  C_5
REMARK    3  A    between atoms: C_13  and  C_14
REMARK    4  A    between atoms: N_16  and  C_17
REMARK                            x       y       z     vdW  Elec       q    Type
REMARK                         _______ _______ _______ _____ _____    ______ ____
ROOT
ATOM      1  C   UNL     1       5.100   3.996  17.243  0.00  0.00    +0.000 C 
ATOM      2  C   UNL     1       4.187   4.959  17.945  0.00  0.00    +0.000 A 
ATOM      3  C   UNL     1       3.586   4.634  19.164  0.00  0.00    +0.000 A 
ATOM      4  C   UNL     1       2.732   5.534  19.838  0.00  0.00    +0.000 A 
ATOM      5  C   UNL     1       2.110   5.131  21.146  0.00  0.00    +0.000 C 
ATOM      6  C   UNL     1       2.492   6.803  19.251  0.00  0.00    +0.000 A 
ATOM      7  N   UNL     1       1.689   7.815  19.771  0.00  0.00    +0.000 NA
ATOM      8  C   UNL     1       1.702   8.883  18.999  0.00  0.00    +0.000 A 
ATOM      9  N   UNL     1       1.003  10.025  19.267  0.00  0.00    +0.000 N 
ATOM     10  C   UNL     1       1.365  11.329  18.718  0.00  0.00    +0.000 C 
ATOM     11  C   UNL     1       1.824  12.247  19.850  0.00  0.00    +0.000 C 
ATOM     12  C   UNL     1       0.765  12.337  20.947  0.00  0.00    +0.000 C 
ATOM     13  C   UNL     1       0.378  10.943  21.465  0.00  0.00    +0.000 C 
ATOM     14  C   UNL     1      -0.032  10.033  20.302  0.00  0.00    +0.000 C 
ATOM     15  S   UNL     1       2.655   8.689  17.568  0.00  0.00    +0.000 S 
ATOM     16  C   UNL     1       3.102   7.108  18.040  0.00  0.00    +0.000 A 
ATOM     17  C   UNL     1       3.944   6.208  17.367  0.00  0.00    +0.000 A 
ENDROOT
BRANCH  13  18
ATOM     18  C   UNL     1      -0.783  11.031  22.444  0.00  0.00    +0.000 C 
ATOM     19  O   UNL     1      -0.848  10.348  23.462  0.00  0.00    +0.000 OA
ATOM     20  N   UNL     1      -1.737  11.970  22.108  0.00  0.00    +0.000 N 
ATOM     21  H   UNL     1      -1.546  12.606  21.344  0.00  0.00    +0.000 HD
BRANCH  20  22
ATOM     22  C   UNL     1      -2.852  12.263  22.988  0.00  0.00    +0.000 C 
ATOM     23  C   UNL     1      -2.586  13.477  23.871  0.00  0.00    +0.000 C 
ATOM     24  C   UNL     1      -3.972  13.903  24.334  0.00  0.00    +0.000 C 
ATOM     25  C   UNL     1      -4.938  13.462  23.235  0.00  0.00    +0.000 C 
ATOM     26  C   UNL     1      -4.113  12.662  22.230  0.00  0.00    +0.000 C 
ENDBRANCH  20  22
ENDBRANCH  13  18
TORSDOF 2
ENDMDL
MODEL 3
REMARK VINA RESULT:      -7.1      0.688      1.056
REMARK  Name = 
REMARK  4 active torsions:
REMARK  status: ('A' for Active; 'I' for Inactive)
REMARK    1  A    between atoms: C_1  and  C_2
REMARK    2  A    between atoms: C_4  and  C_5
REMARK    3  A    between atoms: C_13  and  C_14
REMARK    4  A    between atoms: N_16  and  C_17
REMARK                            x       y       z     vdW  Elec       q    Type
REMARK                         _______ _______ _______ _____ _____    ______ ____
ROOT
ATOM      1  C   UNL     1      -0.820  10.828  22.261  0.00  0.00    +0.000 C 
ATOM      2  C   UNL     1       0.020  10.026  21.310  0.00  0.00    +0.000 A 
ATOM      3  C   UNL     1       0.520  10.587  20.131  0.00  0.00    +0.000 A 
ATOM      4  C   UNL     1       1.316   9.845  19.232  0.00  0.00    +0.000 A 
ATOM      5  C   UNL     1       1.825  10.498  17.977  0.00  0.00    +0.000 C 
ATOM      6  C   UNL     1       1.615   8.496  19.551  0.00  0.00    +0.000 A 
ATOM      7  N   UNL     1       2.385   7.618  18.793  0.00  0.00    +0.000 NA
ATOM      8  C   UNL     1       2.499   6.446  19.382  0.00  0.00    +0.000 A 
ATOM      9  N   UNL     1       3.200   5.395  18.861  0.00  0.00    +0.000 N 
ATOM     10  C   UNL     1       3.725   4.304  19.677  0.00  0.00    +0.000 C 
ATOM     11  C   UNL     1       5.252   4.349  19.662  0.00  0.00    +0.000 C 
ATOM     12  C   UNL     1       5.788   4.333  18.232  0.00  0.00    +0.000 C 
ATOM     13  C   UNL     1       5.176   5.467  17.394  0.00  0.00    +0.000 C 
ATOM     14  C   UNL     1       3.646   5.424  17.467  0.00  0.00    +0.000 C 
ATOM     15  S   UNL     1       1.626   6.334  20.872  0.00  0.00    +0.000 S 
ATOM     16  C   UNL     1       1.111   7.957  20.730  0.00  0.00    +0.000 A 
ATOM     17  C   UNL     1       0.311   8.694  21.618  0.00  0.00    +0.000 A 
ENDROOT
BRANCH  13  18
ATOM     18  C   UNL     1       5.595   5.351  15.937  0.00  0.00    +0.000 C 
ATOM     19  O   UNL     1       5.510   6.285  15.144  0.00  0.00    +0.000 OA
ATOM     20  N   UNL     1       6.112   4.119  15.592  0.00  0.00    +0.000 N 
ATOM     21  H   UNL     1       6.300   3.448  16.327  0.00  0.00    +0.000 HD
BRANCH  20  22
ATOM     22  C   UNL     1       6.662   3.872  14.274  0.00  0.00    +0.000 C 
ATOM     23  C   UNL     1       5.575   3.653  13.227  0.00  0.00    +0.000 C 
ATOM     24  C   UNL     1       6.288   3.894  11.903  0.00  0.00    +0.000 C 
ATOM     25  C   UNL     1       7.420   4.875  12.207  0.00  0.00    +0.000 C 
ATOM     26  C   UNL     1       7.432   5.067  13.721  0.00  0.00    +0.000 C 
ENDBRANCH  20  22
ENDBRANCH  13  18
TORSDOF 2
ENDMDL
MODEL 4
REMARK VINA RESULT:      -6.8      6.291      8.687
REMARK  Name = 
REMARK  4 active torsions:
REMARK  status: ('A' for Active; 'I' for Inactive)
REMARK    1  A    between atoms: C_1  and  C_2
REMARK    2  A    between atoms: C_4  and  C_5
REMARK    3  A    between atoms: C_13  and  C_14
REMARK    4  A    between atoms: N_16  and  C_17
REMARK                            x       y       z     vdW  Elec       q    Type
REMARK                         _______ _______ _______ _____ _____    ______ ____
ROOT
ATOM      1  C   UNL     1      -3.175   9.700  17.703  0.00  0.00    +0.000 C 
ATOM      2  C   UNL     1      -1.879  10.407  17.976  0.00  0.00    +0.000 A 
ATOM      3  C   UNL     1      -0.658   9.729  17.931  0.00  0.00    +0.000 A 
ATOM      4  C   UNL     1       0.569  10.383  18.179  0.00  0.00    +0.000 A 
ATOM      5  C   UNL     1       1.853   9.604  18.120  0.00  0.00    +0.000 C 
ATOM      6  C   UNL     1       0.545  11.771  18.472  0.00  0.00    +0.000 A 
ATOM      7  N   UNL     1       1.648  12.579  18.735  0.00  0.00    +0.000 NA
ATOM      8  C   UNL     1       1.289  13.830  18.938  0.00  0.00    +0.000 A 
ATOM      9  N   UNL     1       2.167  14.839  19.217  0.00  0.00    +0.000 N 
ATOM     10  C   UNL     1       1.867  16.247  18.974  0.00  0.00    +0.000 C 
ATOM     11  C   UNL     1       2.782  16.778  17.871  0.00  0.00    +0.000 C 
ATOM     12  C   UNL     1       4.251  16.533  18.212  0.00  0.00    +0.000 C 
ATOM     13  C   UNL     1       4.515  15.048  18.506  0.00  0.00    +0.000 C 
ATOM     14  C   UNL     1       3.552  14.534  19.581  0.00  0.00    +0.000 C 
ATOM     15  S   UNL     1      -0.422  14.078  18.871  0.00  0.00    +0.000 S 
ATOM     16  C   UNL     1      -0.680  12.428  18.509  0.00  0.00    +0.000 A 
ATOM     17  C   UNL     1      -1.899  11.773  18.271  0.00  0.00    +0.000 A 
ENDROOT
BRANCH  13  18
ATOM     18  C   UNL     1       5.941  14.838  18.992  0.00  0.00    +0.000 C 
ATOM     19  O   UNL     1       6.279  15.014  20.160  0.00  0.00    +0.000 OA
ATOM     20  N   UNL     1       6.813  14.397  18.018  0.00  0.00    +0.000 N 
ATOM     21  H   UNL     1       6.437  14.122  17.118  0.00  0.00    +0.000 HD
BRANCH  20  22
ATOM     22  C   UNL     1       8.182  14.040  18.333  0.00  0.00    +0.000 C 
ATOM     23  C   UNL     1       8.631  12.778  17.606  0.00  0.00    +0.000 C 
ATOM     24  C   UNL     1      10.151  12.841  17.666  0.00  0.00    +0.000 C 
ATOM     25  C   UNL     1      10.508  14.326  17.734  0.00  0.00    +0.000 C 
ATOM     26  C   UNL     1       9.188  15.083  17.860  0.00  0.00    +0.000 C 
ENDBRANCH  20  22
ENDBRANCH  13  18
TORSDOF 2
ENDMDL
MODEL 5
REMARK VINA RESULT:      -6.7      1.323      1.581
REMARK  Name = 
REMARK  4 active torsions:
REMARK  status: ('A' for Active; 'I' for Inactive)
REMARK    1  A    between atoms: C_1  and  C_2
REMARK    2  A    between atoms: C_4  and  C_5
REMARK    3  A    between atoms: C_13  and  C_14
REMARK    4  A    between atoms: N_16  and  C_17
REMARK                            x       y       z     vdW  Elec       q    Type
REMARK                         _______ _______ _______ _____ _____    ______ ____
ROOT
ATOM      1  C   UNL     1      -0.321   9.584  22.128  0.00  0.00    +0.000 C 
ATOM      2  C   UNL     1       0.532   8.919  21.087  0.00  0.00    +0.000 A 
ATOM      3  C   UNL     1       0.809   9.543  19.867  0.00  0.00    +0.000 A 
ATOM      4  C   UNL     1       1.615   8.931  18.883  0.00  0.00    +0.000 A 
ATOM      5  C   UNL     1       1.878   9.646  17.587  0.00  0.00    +0.000 C 
ATOM      6  C   UNL     1       2.159   7.650  19.157  0.00  0.00    +0.000 A 
ATOM      7  N   UNL     1       2.977   6.902  18.315  0.00  0.00    +0.000 NA
ATOM      8  C   UNL     1       3.339   5.768  18.880  0.00  0.00    +0.000 A 
ATOM      9  N   UNL     1       4.141   4.839  18.279  0.00  0.00    +0.000 N 
ATOM     10  C   UNL     1       4.917   3.854  19.026  0.00  0.00    +0.000 C 
ATOM     11  C   UNL     1       6.408   4.144  18.851  0.00  0.00    +0.000 C 
ATOM     12  C   UNL     1       6.785   4.202  17.372  0.00  0.00    +0.000 C 
ATOM     13  C   UNL     1       5.914   5.215  16.613  0.00  0.00    +0.000 C 
ATOM     14  C   UNL     1       4.428   4.927  16.846  0.00  0.00    +0.000 C 
ATOM     15  S   UNL     1       2.657   5.530  20.451  0.00  0.00    +0.000 S 
ATOM     16  C   UNL     1       1.875   7.048  20.378  0.00  0.00    +0.000 A 
ATOM     17  C   UNL     1       1.065   7.654  21.351  0.00  0.00    +0.000 A 
ENDROOT
BRANCH  13  18
ATOM     18  C   UNL     1       6.192   5.156  15.119  0.00  0.00    +0.000 C 
ATOM     19  O   UNL     1       7.122   5.758  14.590  0.00  0.00    +0.000 OA
ATOM     20  N   UNL     1       5.331   4.339  14.414  0.00  0.00    +0.000 N 
ATOM     21  H   UNL     1       4.687   3.751  14.930  0.00  0.00    +0.000 HD
BRANCH  20  22
ATOM     22  C   UNL     1       5.520   4.081  13.001  0.00  0.00    +0.000 C 
ATOM     23  C   UNL     1       6.467   2.913  12.750  0.00  0.00    +0.000 C 
ATOM     24  C   UNL     1       6.166   2.499  11.315  0.00  0.00    +0.000 C 
ATOM     25  C   UNL     1       4.708   2.880  11.064  0.00  0.00    +0.000 C 
ATOM     26  C   UNL     1       4.238   3.637  12.304  0.00  0.00    +0.000 C 
ENDBRANCH  20  22
ENDBRANCH  13  18
TORSDOF 2
ENDMDL
MODEL 6
REMARK VINA RESULT:      -6.6      3.865      6.168
REMARK  Name = 
REMARK  4 active torsions:
REMARK  status: ('A' for Active; 'I' for Inactive)
REMARK    1  A    between atoms: C_1  and  C_2
REMARK    2  A    between atoms: C_4  and  C_5
REMARK    3  A    between atoms: C_13  and  C_14
REMARK    4  A    between atoms: N_16  and  C_17
REMARK                            x       y       z     vdW  Elec       q    Type
REMARK                         _______ _______ _______ _____ _____    ______ ____
ROOT
ATOM      1  C   UNL     1       2.219  18.319  20.804  0.00  0.00    +0.000 C 
ATOM      2  C   UNL     1       2.145  16.865  20.437  0.00  0.00    +0.000 A 
ATOM      3  C   UNL     1       2.969  16.322  19.448  0.00  0.00    +0.000 A 
ATOM      4  C   UNL     1       2.914  14.955  19.099  0.00  0.00    +0.000 A 
ATOM      5  C   UNL     1       3.822  14.424  18.025  0.00  0.00    +0.000 C 
ATOM      6  C   UNL     1       1.995  14.120  19.786  0.00  0.00    +0.000 A 
ATOM      7  N   UNL     1       1.807  12.756  19.583  0.00  0.00    +0.000 NA
ATOM      8  C   UNL     1       0.900  12.268  20.406  0.00  0.00    +0.000 A 
ATOM      9  N   UNL     1       0.517  10.957  20.426  0.00  0.00    +0.000 N 
ATOM     10  C   UNL     1      -0.092  10.323  21.592  0.00  0.00    +0.000 C 
ATOM     11  C   UNL     1       0.860   9.267  22.150  0.00  0.00    +0.000 C 
ATOM     12  C   UNL     1       1.262   8.264  21.070  0.00  0.00    +0.000 C 
ATOM     13  C   UNL     1       1.855   8.974  19.843  0.00  0.00    +0.000 C 
ATOM     14  C   UNL     1       0.899  10.058  19.336  0.00  0.00    +0.000 C 
ATOM     15  S   UNL     1       0.191  13.461  21.438  0.00  0.00    +0.000 S 
ATOM     16  C   UNL     1       1.186  14.679  20.769  0.00  0.00    +0.000 A 
ATOM     17  C   UNL     1       1.237  16.041  21.108  0.00  0.00    +0.000 A 
ENDROOT
BRANCH  13  18
ATOM     18  C   UNL     1       2.109   7.986  18.715  0.00  0.00    +0.000 C 
ATOM     19  O   UNL     1       1.891   8.251  17.537  0.00  0.00    +0.000 OA
ATOM     20  N   UNL     1       2.640   6.780  19.127  0.00  0.00    +0.000 N 
ATOM     21  H   UNL     1       2.942   6.686  20.090  0.00  0.00    +0.000 HD
BRANCH  20  22
ATOM     22  C   UNL     1       3.047   5.768  18.173  0.00  0.00    +0.000 C 
ATOM     23  C   UNL     1       4.204   4.920  18.691  0.00  0.00    +0.000 C 
ATOM     24  C   UNL     1       4.160   3.671  17.820  0.00  0.00    +0.000 C 
ATOM     25  C   UNL     1       2.701   3.502  17.398  0.00  0.00    +0.000 C 
ATOM     26  C   UNL     1       1.958   4.734  17.909  0.00  0.00    +0.000 C 
ENDBRANCH  20  22
ENDBRANCH  13  18
TORSDOF 2
ENDMDL
MODEL 7
REMARK VINA RESULT:      -6.4      7.026     10.640
REMARK  Name = 
REMARK  4 active torsions:
REMARK  status: ('A' for Active; 'I' for Inactive)
REMARK    1  A    between atoms: C_1  and  C_2
REMARK    2  A    between atoms: C_4  and  C_5
REMARK    3  A    between atoms: C_13  and  C_14
REMARK    4  A    between atoms: N_16  and  C_17
REMARK                            x       y       z     vdW  Elec       q    Type
REMARK                         _______ _______ _______ _____ _____    ______ ____
ROOT
ATOM      1  C   UNL     1       4.379  17.438  19.990  0.00  0.00    +0.000 C 
ATOM      2  C   UNL     1       3.163  16.613  19.686  0.00  0.00    +0.000 A 
ATOM      3  C   UNL     1       2.035  17.175  19.082  0.00  0.00    +0.000 A 
ATOM      4  C   UNL     1       0.887  16.407  18.785  0.00  0.00    +0.000 A 
ATOM      5  C   UNL     1      -0.300  17.064  18.136  0.00  0.00    +0.000 C 
ATOM      6  C   UNL     1       0.897  15.026  19.108  0.00  0.00    +0.000 A 
ATOM      7  N   UNL     1      -0.134  14.118  18.884  0.00  0.00    +0.000 NA
ATOM      8  C   UNL     1       0.204  12.904  19.270  0.00  0.00    +0.000 A 
ATOM      9  N   UNL     1      -0.617  11.816  19.167  0.00  0.00    +0.000 N 
ATOM     10  C   UNL     1      -0.120  10.444  19.132  0.00  0.00    +0.000 C 
ATOM     11  C   UNL     1      -0.401   9.837  17.758  0.00  0.00    +0.000 C 
ATOM     12  C   UNL     1      -1.884   9.942  17.405  0.00  0.00    +0.000 C 
ATOM     13  C   UNL     1      -2.378  11.394  17.499  0.00  0.00    +0.000 C 
ATOM     14  C   UNL     1      -2.040  11.989  18.870  0.00  0.00    +0.000 C 
ATOM     15  S   UNL     1       1.781  12.816  19.975  0.00  0.00    +0.000 S 
ATOM     16  C   UNL     1       2.030  14.485  19.705  0.00  0.00    +0.000 A 
ATOM     17  C   UNL     1       3.166  15.252  20.008  0.00  0.00    +0.000 A 
ENDROOT
BRANCH  13  18
ATOM     18  C   UNL     1      -3.884  11.469  17.296  0.00  0.00    +0.000 C 
ATOM     19  O   UNL     1      -4.471  10.822  16.434  0.00  0.00    +0.000 OA
ATOM     20  N   UNL     1      -4.536  12.296  18.188  0.00  0.00    +0.000 N 
ATOM     21  H   UNL     1      -4.015  12.675  18.970  0.00  0.00    +0.000 HD
BRANCH  20  22
ATOM     22  C   UNL     1      -5.981  12.397  18.207  0.00  0.00    +0.000 C 
ATOM     23  C   UNL     1      -6.508  12.868  19.558  0.00  0.00    +0.000 C 
ATOM     24  C   UNL     1      -7.915  13.364  19.250  0.00  0.00    +0.000 C 
ATOM     25  C   UNL     1      -7.889  13.826  17.794  0.00  0.00    +0.000 C 
ATOM     26  C   UNL     1      -6.513  13.454  17.246  0.00  0.00    +0.000 C 
ENDBRANCH  20  22
ENDBRANCH  13  18
TORSDOF 2
ENDMDL
MODEL 8
REMARK VINA RESULT:      -6.4      5.291      9.852
REMARK  Name = 
REMARK  4 active torsions:
REMARK  status: ('A' for Active; 'I' for Inactive)
REMARK    1  A    between atoms: C_1  and  C_2
REMARK    2  A    between atoms: C_4  and  C_5
REMARK    3  A    between atoms: C_13  and  C_14
REMARK    4  A    between atoms: N_16  and  C_17
REMARK                            x       y       z     vdW  Elec       q    Type
REMARK                         _______ _______ _______ _____ _____    ______ ____
ROOT
ATOM      1  C   UNL     1       2.429   5.316  19.585  0.00  0.00    +0.000 C 
ATOM      2  C   UNL     1       2.000   6.745  19.748  0.00  0.00    +0.000 A 
ATOM      3  C   UNL     1       2.212   7.687  18.738  0.00  0.00    +0.000 A 
ATOM      4  C   UNL     1       1.807   9.033  18.876  0.00  0.00    +0.000 A 
ATOM      5  C   UNL     1       2.063  10.005  17.758  0.00  0.00    +0.000 C 
ATOM      6  C   UNL     1       1.160   9.422  20.077  0.00  0.00    +0.000 A 
ATOM      7  N   UNL     1       0.688  10.695  20.386  0.00  0.00    +0.000 NA
ATOM      8  C   UNL     1       0.108  10.718  21.568  0.00  0.00    +0.000 A 
ATOM      9  N   UNL     1      -0.445  11.837  22.124  0.00  0.00    +0.000 N 
ATOM     10  C   UNL     1      -1.473  11.788  23.160  0.00  0.00    +0.000 C 
ATOM     11  C   UNL     1      -2.783  12.340  22.601  0.00  0.00    +0.000 C 
ATOM     12  C   UNL     1      -2.587  13.741  22.023  0.00  0.00    +0.000 C 
ATOM     13  C   UNL     1      -1.466  13.759  20.972  0.00  0.00    +0.000 C 
ATOM     14  C   UNL     1      -0.180  13.157  21.547  0.00  0.00    +0.000 C 
ATOM     15  S   UNL     1       0.154   9.197  22.391  0.00  0.00    +0.000 S 
ATOM     16  C   UNL     1       0.955   8.469  21.068  0.00  0.00    +0.000 A 
ATOM     17  C   UNL     1       1.367   7.134  20.932  0.00  0.00    +0.000 A 
ENDROOT
BRANCH  13  18
ATOM     18  C   UNL     1      -1.174  15.180  20.516  0.00  0.00    +0.000 C 
ATOM     19  O   UNL     1      -1.664  16.167  21.058  0.00  0.00    +0.000 OA
ATOM     20  N   UNL     1      -0.284  15.266  19.464  0.00  0.00    +0.000 N 
ATOM     21  H   UNL     1       0.201  14.428  19.169  0.00  0.00    +0.000 HD
BRANCH  20  22
ATOM     22  C   UNL     1       0.189  16.547  18.978  0.00  0.00    +0.000 C 
ATOM     23  C   UNL     1       1.611  16.467  18.434  0.00  0.00    +0.000 C 
ATOM     24  C   UNL     1       1.742  17.711  17.565  0.00  0.00    +0.000 C 
ATOM     25  C   UNL     1       0.331  18.031  17.072  0.00  0.00    +0.000 C 
ATOM     26  C   UNL     1      -0.606  17.055  17.781  0.00  0.00    +0.000 C 
ENDBRANCH  20  22
ENDBRANCH  13  18
TORSDOF 2
ENDMDL
MODEL 9
REMARK VINA RESULT:      -6.4      8.195     12.392
REMARK  Name = 
REMARK  4 active torsions:
REMARK  status: ('A' for Active; 'I' for Inactive)
REMARK    1  A    between atoms: C_1  and  C_2
REMARK    2  A    between atoms: C_4  and  C_5
REMARK    3  A    between atoms: C_13  and  C_14
REMARK    4  A    between atoms: N_16  and  C_17
REMARK                            x       y       z     vdW  Elec       q    Type
REMARK                         _______ _______ _______ _____ _____    ______ ____
ROOT
ATOM      1  C   UNL     1      -3.528  10.013  13.763  0.00  0.00    +0.000 C 
ATOM      2  C   UNL     1      -3.517  10.538  15.169  0.00  0.00    +0.000 A 
ATOM      3  C   UNL     1      -4.688  10.985  15.787  0.00  0.00    +0.000 A 
ATOM      4  C   UNL     1      -4.693  11.474  17.112  0.00  0.00    +0.000 A 
ATOM      5  C   UNL     1      -5.982  11.944  17.727  0.00  0.00    +0.000 C 
ATOM      6  C   UNL     1      -3.467  11.500  17.825  0.00  0.00    +0.000 A 
ATOM      7  N   UNL     1      -3.281  11.939  19.133  0.00  0.00    +0.000 NA
ATOM      8  C   UNL     1      -2.027  11.803  19.512  0.00  0.00    +0.000 A 
ATOM      9  N   UNL     1      -1.561  12.154  20.748  0.00  0.00    +0.000 N 
ATOM     10  C   UNL     1      -0.349  11.590  21.333  0.00  0.00    +0.000 C 
ATOM     11  C   UNL     1      -0.719  10.741  22.548  0.00  0.00    +0.000 C 
ATOM     12  C   UNL     1      -1.543  11.548  23.550  0.00  0.00    +0.000 C 
ATOM     13  C   UNL     1      -2.784  12.163  22.884  0.00  0.00    +0.000 C 
ATOM     14  C   UNL     1      -2.385  12.967  21.643  0.00  0.00    +0.000 C 
ATOM     15  S   UNL     1      -0.994  11.178  18.273  0.00  0.00    +0.000 S 
ATOM     16  C   UNL     1      -2.314  11.048  17.193  0.00  0.00    +0.000 A 
ATOM     17  C   UNL     1      -2.310  10.571  15.873  0.00  0.00    +0.000 A 
ENDROOT
BRANCH  13  18
ATOM     18  C   UNL     1      -3.514  13.087  23.848  0.00  0.00    +0.000 C 
ATOM     19  O   UNL     1      -4.310  12.677  24.688  0.00  0.00    +0.000 OA
ATOM     20  N   UNL     1      -3.177  14.419  23.721  0.00  0.00    +0.000 N 
ATOM     21  H   UNL     1      -2.401  14.669  23.119  0.00  0.00    +0.000 HD
BRANCH  20  22
ATOM     22  C   UNL     1      -3.694  15.420  24.632  0.00  0.00    +0.000 C 
ATOM     23  C   UNL     1      -2.809  16.660  24.689  0.00  0.00    +0.000 C 
ATOM     24  C   UNL     1      -3.718  17.732  25.275  0.00  0.00    +0.000 C 
ATOM     25  C   UNL     1      -5.141  17.344  24.873  0.00  0.00    +0.000 C 
ATOM     26  C   UNL     1      -5.041  15.982  24.191  0.00  0.00    +0.000 C 
ENDBRANCH  20  22
ENDBRANCH  13  18
TORSDOF 2
ENDMDL
