MODEL 1
REMARK VINA RESULT:      -7.8      0.000      0.000
REMARK  Name = 
REMARK  9 active torsions:
REMARK  status: ('A' for Active; 'I' for Inactive)
REMARK    1  A    between atoms: C_1  and  C_2
REMARK    2  A    between atoms: C_2  and  C_3
REMARK    3  A    between atoms: N_5  and  C_6
REMARK    4  A    between atoms: C_9  and  C_10
REMARK    5  A    between atoms: C_10  and  C_11
REMARK    6  A    between atoms: C_17  and  C_18
REMARK    7  A    between atoms: C_19  and  C_20
REMARK    8  A    between atoms: C_27  and  C_28
REMARK    9  A    between atoms: C_28  and  C_29
REMARK                            x       y       z     vdW  Elec       q    Type
REMARK                         _______ _______ _______ _____ _____    ______ ____
ROOT
ATOM      1  C   UNL     1       1.978   9.701  18.710  0.00  0.00    +0.000 C 
ATOM      2  C   UNL     1       1.949   8.401  17.845  0.00  0.00    +0.000 C 
ATOM      3  N   UNL     1       2.588   7.334  18.630  0.00  0.00    +0.000 N 
ATOM      4  C   UNL     1       1.807   6.979  19.821  0.00  0.00    +0.000 C 
ATOM      5  C   UNL     1       1.682   8.235  20.724  0.00  0.00    +0.000 C 
ATOM      6  N   UNL     1       1.214   9.420  19.961  0.00  0.00    +0.000 N 
ATOM      7  C   UNL     1       0.355  10.304  20.570  0.00  0.00    +0.000 A 
ATOM      8  C   UNL     1       0.365  10.525  21.953  0.00  0.00    +0.000 A 
ATOM      9  N   UNL     1      -0.559  11.249  22.633  0.00  0.00    +0.000 NA
ATOM     10  C   UNL     1      -1.531  11.783  21.864  0.00  0.00    +0.000 A 
ATOM     11  C   UNL     1      -1.537  11.638  20.489  0.00  0.00    +0.000 A 
ATOM     12  N   UNL     1      -0.601  10.905  19.823  0.00  0.00    +0.000 NA
ENDROOT
BRANCH   3  13
ATOM     13  C   UNL     1       3.546   6.468  18.152  0.00  0.00    +0.000 A 
ATOM     14  N   UNL     1       4.781   6.958  17.914  0.00  0.00    +0.000 NA
ATOM     15  N   UNL     1       5.791   6.187  17.376  0.00  0.00    +0.000 NA
ATOM     16  C   UNL     1       5.592   4.879  17.118  0.00  0.00    +0.000 A 
ATOM     17  C   UNL     1       4.359   4.289  17.393  0.00  0.00    +0.000 A 
ATOM     18  C   UNL     1       4.116   2.816  17.187  0.00  0.00    +0.000 C 
ATOM     19  C   UNL     1       3.292   5.126  17.824  0.00  0.00    +0.000 A 
ATOM     20  C   UNL     1       1.895   4.553  17.840  0.00  0.00    +0.000 C 
BRANCH  16  21
ATOM     21  C   UNL     1       6.731   4.178  16.407  0.00  0.00    +0.000 C 
BRANCH  21  22
ATOM     22  C   UNL     1       6.658   4.331  14.900  0.00  0.00    +0.000 A 
ATOM     23  C   UNL     1       5.720   3.591  14.164  0.00  0.00    +0.000 A 
ATOM     24  C   UNL     1       5.727   3.618  12.769  0.00  0.00    +0.000 A 
ATOM     25  C   UNL     1       6.658   4.403  12.093  0.00  0.00    +0.000 A 
ATOM     26  C   UNL     1       7.557   5.189  12.812  0.00  0.00    +0.000 A 
ATOM     27  C   UNL     1       7.555   5.160  14.209  0.00  0.00    +0.000 A 
ENDBRANCH  21  22
ENDBRANCH  16  21
ENDBRANCH   3  13
BRANCH  10  28
ATOM     28  C   UNL     1      -2.629  12.501  22.554  0.00  0.00    +0.000 C 
ATOM     29  C   UNL     1      -2.954  13.909  22.120  0.00  0.00    +0.000 C 
ATOM     30  O   UNL     1      -3.237  11.958  23.475  0.00  0.00    +0.000 OA
ENDBRANCH  10  28
BRANCH   1  32
ATOM     31  C   UNL     1       2.462  12.160  18.191  0.00  0.00    +0.000 C 
ATOM     32  C   UNL     1       1.575  10.945  17.907  0.00  0.00    +0.000 C 
ENDBRANCH   1  32
TORSDOF 5
ENDMDL
MODEL 2
REMARK VINA RESULT:      -7.8      2.857      4.652
REMARK  Name = 
REMARK  9 active torsions:
REMARK  status: ('A' for Active; 'I' for Inactive)
REMARK    1  A    between atoms: C_1  and  C_2
REMARK    2  A    between atoms: C_2  and  C_3
REMARK    3  A    between atoms: N_5  and  C_6
REMARK    4  A    between atoms: C_9  and  C_10
REMARK    5  A    between atoms: C_10  and  C_11
REMARK    6  A    between atoms: C_17  and  C_18
REMARK    7  A    between atoms: C_19  and  C_20
REMARK    8  A    between atoms: C_27  and  C_28
REMARK    9  A    between atoms: C_28  and  C_29
REMARK                            x       y       z     vdW  Elec       q    Type
REMARK                         _______ _______ _______ _____ _____    ______ ____
ROOT
ATOM      1  C   UNL     1      -0.765  11.281  21.026  0.00  0.00    +0.000 C 
ATOM      2  C   UNL     1       0.614  11.182  20.300  0.00  0.00    +0.000 C 
ATOM      3  N   UNL     1       0.456  10.241  19.180  0.00  0.00    +0.000 N 
ATOM      4  C   UNL     1      -0.449  10.758  18.146  0.00  0.00    +0.000 C 
ATOM      5  C   UNL     1      -1.845  10.994  18.781  0.00  0.00    +0.000 C 
ATOM      6  N   UNL     1      -1.756  11.788  20.032  0.00  0.00    +0.000 N 
ATOM      7  C   UNL     1      -2.742  12.706  20.307  0.00  0.00    +0.000 A 
ATOM      8  C   UNL     1      -4.062  12.540  19.868  0.00  0.00    +0.000 A 
ATOM      9  N   UNL     1      -5.037  13.480  19.957  0.00  0.00    +0.000 NA
ATOM     10  C   UNL     1      -4.650  14.637  20.533  0.00  0.00    +0.000 A 
ATOM     11  C   UNL     1      -3.373  14.813  21.035  0.00  0.00    +0.000 A 
ATOM     12  N   UNL     1      -2.406  13.858  20.934  0.00  0.00    +0.000 NA
ENDROOT
BRANCH   3  13
ATOM     13  C   UNL     1       1.322   9.212  18.885  0.00  0.00    +0.000 A 
ATOM     14  N   UNL     1       1.969   9.248  17.701  0.00  0.00    +0.000 NA
ATOM     15  N   UNL     1       2.808   8.233  17.287  0.00  0.00    +0.000 NA
ATOM     16  C   UNL     1       3.059   7.181  18.090  0.00  0.00    +0.000 A 
ATOM     17  C   UNL     1       2.472   7.104  19.352  0.00  0.00    +0.000 A 
ATOM     18  C   UNL     1       2.781   5.981  20.308  0.00  0.00    +0.000 C 
ATOM     19  C   UNL     1       1.511   8.090  19.709  0.00  0.00    +0.000 A 
ATOM     20  C   UNL     1       0.664   7.853  20.937  0.00  0.00    +0.000 C 
BRANCH  16  21
ATOM     21  C   UNL     1       3.887   6.075  17.468  0.00  0.00    +0.000 C 
BRANCH  21  22
ATOM     22  C   UNL     1       5.359   6.184  17.817  0.00  0.00    +0.000 A 
ATOM     23  C   UNL     1       5.896   5.400  18.850  0.00  0.00    +0.000 A 
ATOM     24  C   UNL     1       7.213   5.582  19.273  0.00  0.00    +0.000 A 
ATOM     25  C   UNL     1       8.017   6.536  18.652  0.00  0.00    +0.000 A 
ATOM     26  C   UNL     1       7.515   7.280  17.586  0.00  0.00    +0.000 A 
ATOM     27  C   UNL     1       6.195   7.102  17.163  0.00  0.00    +0.000 A 
ENDBRANCH  21  22
ENDBRANCH  16  21
ENDBRANCH   3  13
BRANCH  10  28
ATOM     28  C   UNL     1      -5.636  15.743  20.572  0.00  0.00    +0.000 C 
ATOM     29  C   UNL     1      -6.396  16.076  19.312  0.00  0.00    +0.000 C 
ATOM     30  O   UNL     1      -5.802  16.384  21.609  0.00  0.00    +0.000 OA
ENDBRANCH  10  28
BRANCH   1  32
ATOM     31  C   UNL     1      -1.647  11.512  23.418  0.00  0.00    +0.000 C 
ATOM     32  C   UNL     1      -0.666  12.030  22.363  0.00  0.00    +0.000 C 
ENDBRANCH   1  32
TORSDOF 5
ENDMDL
MODEL 3
REMARK VINA RESULT:      -7.7      2.901      4.724
REMARK  Name = 
REMARK  9 active torsions:
REMARK  status: ('A' for Active; 'I' for Inactive)
REMARK    1  A    between atoms: C_1  and  C_2
REMARK    2  A    between atoms: C_2  and  C_3
REMARK    3  A    between atoms: N_5  and  C_6
REMARK    4  A    between atoms: C_9  and  C_10
REMARK    5  A    between atoms: C_10  and  C_11
REMARK    6  A    between atoms: C_17  and  C_18
REMARK    7  A    between atoms: C_19  and  C_20
REMARK    8  A    between atoms: C_27  and  C_28
REMARK    9  A    between atoms: C_28  and  C_29
REMARK                            x       y       z     vdW  Elec       q    Type
REMARK                         _______ _______ _______ _____ _____    ______ ____
ROOT
ATOM      1  C   UNL     1       0.573  12.787  20.609  0.00  0.00    +0.000 C 
ATOM      2  C   UNL     1       1.342  12.171  19.397  0.00  0.00    +0.000 C 
ATOM      3  N   UNL     1       0.709  10.881  19.082  0.00  0.00    +0.000 N 
ATOM      4  C   UNL     1      -0.661  11.045  18.581  0.00  0.00    +0.000 C 
ATOM      5  C   UNL     1      -1.508  11.746  19.675  0.00  0.00    +0.000 C 
ATOM      6  N   UNL     1      -0.847  12.972  20.186  0.00  0.00    +0.000 N 
ATOM      7  C   UNL     1      -1.622  14.063  20.502  0.00  0.00    +0.000 A 
ATOM      8  C   UNL     1      -2.942  13.937  20.952  0.00  0.00    +0.000 A 
ATOM      9  N   UNL     1      -3.811  14.966  21.117  0.00  0.00    +0.000 NA
ATOM     10  C   UNL     1      -3.304  16.181  20.821  0.00  0.00    +0.000 A 
ATOM     11  C   UNL     1      -1.988  16.350  20.434  0.00  0.00    +0.000 A 
ATOM     12  N   UNL     1      -1.130  15.303  20.272  0.00  0.00    +0.000 NA
ENDROOT
BRANCH   3  13
ATOM     13  C   UNL     1       1.386   9.702  18.865  0.00  0.00    +0.000 A 
ATOM     14  N   UNL     1       2.019   9.543  17.684  0.00  0.00    +0.000 NA
ATOM     15  N   UNL     1       2.671   8.374  17.346  0.00  0.00    +0.000 NA
ATOM     16  C   UNL     1       2.747   7.354  18.223  0.00  0.00    +0.000 A 
ATOM     17  C   UNL     1       2.167   7.468  19.486  0.00  0.00    +0.000 A 
ATOM     18  C   UNL     1       2.290   6.381  20.521  0.00  0.00    +0.000 C 
ATOM     19  C   UNL     1       1.390   8.626  19.768  0.00  0.00    +0.000 A 
ATOM     20  C   UNL     1       0.527   8.624  21.007  0.00  0.00    +0.000 C 
BRANCH  16  21
ATOM     21  C   UNL     1       3.371   6.083  17.685  0.00  0.00    +0.000 C 
BRANCH  21  22
ATOM     22  C   UNL     1       4.874   6.042  17.886  0.00  0.00    +0.000 A 
ATOM     23  C   UNL     1       5.416   5.371  18.993  0.00  0.00    +0.000 A 
ATOM     24  C   UNL     1       6.783   5.435  19.266  0.00  0.00    +0.000 A 
ATOM     25  C   UNL     1       7.628   6.152  18.423  0.00  0.00    +0.000 A 
ATOM     26  C   UNL     1       7.111   6.773  17.287  0.00  0.00    +0.000 A 
ATOM     27  C   UNL     1       5.743   6.714  17.013  0.00  0.00    +0.000 A 
ENDBRANCH  21  22
ENDBRANCH  16  21
ENDBRANCH   3  13
BRANCH  10  28
ATOM     28  C   UNL     1      -4.228  17.339  20.882  0.00  0.00    +0.000 C 
ATOM     29  C   UNL     1      -4.631  17.870  22.236  0.00  0.00    +0.000 C 
ATOM     30  O   UNL     1      -4.669  17.830  19.844  0.00  0.00    +0.000 OA
ENDBRANCH  10  28
BRANCH   1  32
ATOM     31  C   UNL     1       2.537  14.416  20.402  0.00  0.00    +0.000 C 
ATOM     32  C   UNL     1       1.294  14.008  21.197  0.00  0.00    +0.000 C 
ENDBRANCH   1  32
TORSDOF 5
ENDMDL
MODEL 4
REMARK VINA RESULT:      -7.6      2.843      4.512
REMARK  Name = 
REMARK  9 active torsions:
REMARK  status: ('A' for Active; 'I' for Inactive)
REMARK    1  A    between atoms: C_1  and  C_2
REMARK    2  A    between atoms: C_2  and  C_3
REMARK    3  A    between atoms: N_5  and  C_6
REMARK    4  A    between atoms: C_9  and  C_10
REMARK    5  A    between atoms: C_10  and  C_11
REMARK    6  A    between atoms: C_17  and  C_18
REMARK    7  A    between atoms: C_19  and  C_20
REMARK    8  A    between atoms: C_27  and  C_28
REMARK    9  A    between atoms: C_28  and  C_29
REMARK                            x       y       z     vdW  Elec       q    Type
REMARK                         _______ _______ _______ _____ _____    ______ ____
ROOT
ATOM      1  C   UNL     1       1.808  12.687  19.571  0.00  0.00    +0.000 C 
ATOM      2  C   UNL     1       2.114  11.666  18.430  0.00  0.00    +0.000 C 
ATOM      3  N   UNL     1       1.312  10.460  18.690  0.00  0.00    +0.000 N 
ATOM      4  C   UNL     1      -0.128  10.714  18.555  0.00  0.00    +0.000 C 
ATOM      5  C   UNL     1      -0.537  11.800  19.586  0.00  0.00    +0.000 C 
ATOM      6  N   UNL     1       0.348  12.990  19.516  0.00  0.00    +0.000 N 
ATOM      7  C   UNL     1      -0.201  14.238  19.699  0.00  0.00    +0.000 A 
ATOM      8  C   UNL     1      -1.324  14.449  20.509  0.00  0.00    +0.000 A 
ATOM      9  N   UNL     1      -2.012  15.615  20.597  0.00  0.00    +0.000 NA
ATOM     10  C   UNL     1      -1.524  16.614  19.834  0.00  0.00    +0.000 A 
ATOM     11  C   UNL     1      -0.381  16.460  19.071  0.00  0.00    +0.000 A 
ATOM     12  N   UNL     1       0.296  15.280  18.993  0.00  0.00    +0.000 NA
ENDROOT
BRANCH   3  13
ATOM     13  C   UNL     1       1.790   9.170  18.649  0.00  0.00    +0.000 A 
ATOM     14  N   UNL     1       2.378   8.747  17.510  0.00  0.00    +0.000 NA
ATOM     15  N   UNL     1       2.832   7.453  17.349  0.00  0.00    +0.000 NA
ATOM     16  C   UNL     1       2.754   6.569  18.362  0.00  0.00    +0.000 A 
ATOM     17  C   UNL     1       2.211   6.951  19.589  0.00  0.00    +0.000 A 
ATOM     18  C   UNL     1       2.170   6.015  20.769  0.00  0.00    +0.000 C 
ATOM     19  C   UNL     1       1.631   8.245  19.695  0.00  0.00    +0.000 A 
ATOM     20  C   UNL     1       0.791   8.555  20.911  0.00  0.00    +0.000 C 
BRANCH  16  21
ATOM     21  C   UNL     1       3.161   5.151  18.017  0.00  0.00    +0.000 C 
BRANCH  21  22
ATOM     22  C   UNL     1       4.665   4.989  17.906  0.00  0.00    +0.000 A 
ATOM     23  C   UNL     1       5.492   5.349  18.982  0.00  0.00    +0.000 A 
ATOM     24  C   UNL     1       6.881   5.332  18.851  0.00  0.00    +0.000 A 
ATOM     25  C   UNL     1       7.461   4.934  17.649  0.00  0.00    +0.000 A 
ATOM     26  C   UNL     1       6.653   4.518  16.592  0.00  0.00    +0.000 A 
ATOM     27  C   UNL     1       5.262   4.537  16.719  0.00  0.00    +0.000 A 
ENDBRANCH  21  22
ENDBRANCH  16  21
ENDBRANCH   3  13
BRANCH  10  28
ATOM     28  C   UNL     1      -2.286  17.886  19.804  0.00  0.00    +0.000 C 
ATOM     29  C   UNL     1      -2.396  18.630  18.497  0.00  0.00    +0.000 C 
ATOM     30  O   UNL     1      -2.791  18.325  20.836  0.00  0.00    +0.000 OA
ENDBRANCH  10  28
BRANCH   1  32
ATOM     31  C   UNL     1       3.385  14.177  20.930  0.00  0.00    +0.000 C 
ATOM     32  C   UNL     1       2.774  13.881  19.559  0.00  0.00    +0.000 C 
ENDBRANCH   1  32
TORSDOF 5
ENDMDL
MODEL 5
REMARK VINA RESULT:      -7.6      2.682      4.384
REMARK  Name = 
REMARK  9 active torsions:
REMARK  status: ('A' for Active; 'I' for Inactive)
REMARK    1  A    between atoms: C_1  and  C_2
REMARK    2  A    between atoms: C_2  and  C_3
REMARK    3  A    between atoms: N_5  and  C_6
REMARK    4  A    between atoms: C_9  and  C_10
REMARK    5  A    between atoms: C_10  and  C_11
REMARK    6  A    between atoms: C_17  and  C_18
REMARK    7  A    between atoms: C_19  and  C_20
REMARK    8  A    between atoms: C_27  and  C_28
REMARK    9  A    between atoms: C_28  and  C_29
REMARK                            x       y       z     vdW  Elec       q    Type
REMARK                         _______ _______ _______ _____ _____    ______ ____
ROOT
ATOM      1  C   UNL     1       1.608  12.713  19.788  0.00  0.00    +0.000 C 
ATOM      2  C   UNL     1       1.950  11.760  18.599  0.00  0.00    +0.000 C 
ATOM      3  N   UNL     1       1.174  10.524  18.787  0.00  0.00    +0.000 N 
ATOM      4  C   UNL     1      -0.270  10.750  18.650  0.00  0.00    +0.000 C 
ATOM      5  C   UNL     1      -0.715  11.771  19.731  0.00  0.00    +0.000 C 
ATOM      6  N   UNL     1       0.141  12.984  19.732  0.00  0.00    +0.000 N 
ATOM      7  C   UNL     1      -0.439  14.207  19.973  0.00  0.00    +0.000 A 
ATOM      8  C   UNL     1      -1.575  14.349  20.780  0.00  0.00    +0.000 A 
ATOM      9  N   UNL     1      -2.292  15.492  20.921  0.00  0.00    +0.000 NA
ATOM     10  C   UNL     1      -1.821  16.541  20.216  0.00  0.00    +0.000 A 
ATOM     11  C   UNL     1      -0.667  16.454  19.459  0.00  0.00    +0.000 A 
ATOM     12  N   UNL     1       0.039  15.296  19.327  0.00  0.00    +0.000 NA
ENDROOT
BRANCH   3  13
ATOM     13  C   UNL     1       1.684   9.249  18.686  0.00  0.00    +0.000 A 
ATOM     14  N   UNL     1       2.227   8.875  17.508  0.00  0.00    +0.000 NA
ATOM     15  N   UNL     1       2.707   7.600  17.287  0.00  0.00    +0.000 NA
ATOM     16  C   UNL     1       2.701   6.685  18.276  0.00  0.00    +0.000 A 
ATOM     17  C   UNL     1       2.210   7.017  19.538  0.00  0.00    +0.000 A 
ATOM     18  C   UNL     1       2.251   6.047  20.690  0.00  0.00    +0.000 C 
ATOM     19  C   UNL     1       1.601   8.291  19.710  0.00  0.00    +0.000 A 
ATOM     20  C   UNL     1       0.814   8.543  20.974  0.00  0.00    +0.000 C 
BRANCH  16  21
ATOM     21  C   UNL     1       3.129   5.290  17.870  0.00  0.00    +0.000 C 
BRANCH  21  22
ATOM     22  C   UNL     1       4.629   5.173  17.681  0.00  0.00    +0.000 A 
ATOM     23  C   UNL     1       5.149   4.702  16.465  0.00  0.00    +0.000 A 
ATOM     24  C   UNL     1       6.516   4.462  16.320  0.00  0.00    +0.000 A 
ATOM     25  C   UNL     1       7.383   4.711  17.381  0.00  0.00    +0.000 A 
ATOM     26  C   UNL     1       6.888   5.235  18.574  0.00  0.00    +0.000 A 
ATOM     27  C   UNL     1       5.519   5.473  18.724  0.00  0.00    +0.000 A 
ENDBRANCH  21  22
ENDBRANCH  16  21
ENDBRANCH   3  13
BRANCH  10  28
ATOM     28  C   UNL     1      -2.614  17.794  20.243  0.00  0.00    +0.000 C 
ATOM     29  C   UNL     1      -3.408  18.172  19.017  0.00  0.00    +0.000 C 
ATOM     30  O   UNL     1      -2.594  18.513  21.241  0.00  0.00    +0.000 OA
ENDBRANCH  10  28
BRANCH   1  32
ATOM     31  C   UNL     1       3.368  14.119  18.572  0.00  0.00    +0.000 C 
ATOM     32  C   UNL     1       2.544  13.929  19.847  0.00  0.00    +0.000 C 
ENDBRANCH   1  32
TORSDOF 5
ENDMDL
MODEL 6
REMARK VINA RESULT:      -7.6      3.188      4.640
REMARK  Name = 
REMARK  9 active torsions:
REMARK  status: ('A' for Active; 'I' for Inactive)
REMARK    1  A    between atoms: C_1  and  C_2
REMARK    2  A    between atoms: C_2  and  C_3
REMARK    3  A    between atoms: N_5  and  C_6
REMARK    4  A    between atoms: C_9  and  C_10
REMARK    5  A    between atoms: C_10  and  C_11
REMARK    6  A    between atoms: C_17  and  C_18
REMARK    7  A    between atoms: C_19  and  C_20
REMARK    8  A    between atoms: C_27  and  C_28
REMARK    9  A    between atoms: C_28  and  C_29
REMARK                            x       y       z     vdW  Elec       q    Type
REMARK                         _______ _______ _______ _____ _____    ______ ____
ROOT
ATOM      1  C   UNL     1      -0.891  11.619  20.022  0.00  0.00    +0.000 C 
ATOM      2  C   UNL     1      -0.910  10.093  19.691  0.00  0.00    +0.000 C 
ATOM      3  N   UNL     1       0.097   9.443  20.544  0.00  0.00    +0.000 N 
ATOM      4  C   UNL     1      -0.264   9.497  21.966  0.00  0.00    +0.000 C 
ATOM      5  C   UNL     1      -0.373  10.985  22.393  0.00  0.00    +0.000 C 
ATOM      6  N   UNL     1      -1.235  11.763  21.468  0.00  0.00    +0.000 N 
ATOM      7  C   UNL     1      -2.050  12.743  21.985  0.00  0.00    +0.000 A 
ATOM      8  C   UNL     1      -1.716  13.460  23.141  0.00  0.00    +0.000 A 
ATOM      9  N   UNL     1      -2.544  14.312  23.796  0.00  0.00    +0.000 NA
ATOM     10  C   UNL     1      -3.764  14.449  23.237  0.00  0.00    +0.000 A 
ATOM     11  C   UNL     1      -4.106  13.806  22.062  0.00  0.00    +0.000 A 
ATOM     12  N   UNL     1      -3.261  12.951  21.419  0.00  0.00    +0.000 NA
ENDROOT
BRANCH   3  13
ATOM     13  C   UNL     1       1.037   8.537  20.106  0.00  0.00    +0.000 A 
ATOM     14  N   UNL     1       1.292   7.463  20.883  0.00  0.00    +0.000 NA
ATOM     15  N   UNL     1       2.260   6.533  20.562  0.00  0.00    +0.000 NA
ATOM     16  C   UNL     1       2.956   6.636  19.413  0.00  0.00    +0.000 A 
ATOM     17  C   UNL     1       2.705   7.687  18.531  0.00  0.00    +0.000 A 
ATOM     18  C   UNL     1       3.409   7.799  17.204  0.00  0.00    +0.000 C 
ATOM     19  C   UNL     1       1.799   8.705  18.938  0.00  0.00    +0.000 A 
ATOM     20  C   UNL     1       1.746   9.980  18.129  0.00  0.00    +0.000 C 
BRANCH  16  21
ATOM     21  C   UNL     1       4.077   5.631  19.242  0.00  0.00    +0.000 C 
BRANCH  21  22
ATOM     22  C   UNL     1       3.569   4.246  18.893  0.00  0.00    +0.000 A 
ATOM     23  C   UNL     1       4.084   3.121  19.557  0.00  0.00    +0.000 A 
ATOM     24  C   UNL     1       3.728   1.832  19.159  0.00  0.00    +0.000 A 
ATOM     25  C   UNL     1       2.833   1.652  18.107  0.00  0.00    +0.000 A 
ATOM     26  C   UNL     1       2.268   2.760  17.478  0.00  0.00    +0.000 A 
ATOM     27  C   UNL     1       2.626   4.052  17.872  0.00  0.00    +0.000 A 
ENDBRANCH  21  22
ENDBRANCH  16  21
ENDBRANCH   3  13
BRANCH  10  28
ATOM     28  C   UNL     1      -4.754  15.286  23.956  0.00  0.00    +0.000 C 
ATOM     29  C   UNL     1      -4.249  16.375  24.870  0.00  0.00    +0.000 C 
ATOM     30  O   UNL     1      -5.958  15.070  23.820  0.00  0.00    +0.000 OA
ENDBRANCH  10  28
BRANCH   1  32
ATOM     31  C   UNL     1      -2.149  11.639  17.794  0.00  0.00    +0.000 C 
ATOM     32  C   UNL     1      -1.712  12.443  19.020  0.00  0.00    +0.000 C 
ENDBRANCH   1  32
TORSDOF 5
ENDMDL
MODEL 7
REMARK VINA RESULT:      -7.5      2.965      4.698
REMARK  Name = 
REMARK  9 active torsions:
REMARK  status: ('A' for Active; 'I' for Inactive)
REMARK    1  A    between atoms: C_1  and  C_2
REMARK    2  A    between atoms: C_2  and  C_3
REMARK    3  A    between atoms: N_5  and  C_6
REMARK    4  A    between atoms: C_9  and  C_10
REMARK    5  A    between atoms: C_10  and  C_11
REMARK    6  A    between atoms: C_17  and  C_18
REMARK    7  A    between atoms: C_19  and  C_20
REMARK    8  A    between atoms: C_27  and  C_28
REMARK    9  A    between atoms: C_28  and  C_29
REMARK                            x       y       z     vdW  Elec       q    Type
REMARK                         _______ _______ _______ _____ _____    ______ ____
ROOT
ATOM      1  C   UNL     1      -1.348  11.777  19.017  0.00  0.00    +0.000 C 
ATOM      2  C   UNL     1      -0.950  10.418  19.676  0.00  0.00    +0.000 C 
ATOM      3  N   UNL     1       0.519  10.373  19.742  0.00  0.00    +0.000 N 
ATOM      4  C   UNL     1       1.063  11.380  20.661  0.00  0.00    +0.000 C 
ATOM      5  C   UNL     1       0.644  12.787  20.158  0.00  0.00    +0.000 C 
ATOM      6  N   UNL     1      -0.814  12.866  19.888  0.00  0.00    +0.000 N 
ATOM      7  C   UNL     1      -1.483  14.029  20.186  0.00  0.00    +0.000 A 
ATOM      8  C   UNL     1      -0.859  15.283  20.143  0.00  0.00    +0.000 A 
ATOM      9  N   UNL     1      -1.408  16.442  20.585  0.00  0.00    +0.000 NA
ATOM     10  C   UNL     1      -2.656  16.318  21.083  0.00  0.00    +0.000 A 
ATOM     11  C   UNL     1      -3.326  15.108  21.084  0.00  0.00    +0.000 A 
ATOM     12  N   UNL     1      -2.757  13.953  20.637  0.00  0.00    +0.000 NA
ENDROOT
BRANCH   3  13
ATOM     13  C   UNL     1       1.294   9.302  19.357  0.00  0.00    +0.000 A 
ATOM     14  N   UNL     1       1.912   9.365  18.158  0.00  0.00    +0.000 NA
ATOM     15  N   UNL     1       2.658   8.318  17.656  0.00  0.00    +0.000 NA
ATOM     16  C   UNL     1       2.846   7.200  18.383  0.00  0.00    +0.000 A 
ATOM     17  C   UNL     1       2.288   7.086  19.656  0.00  0.00    +0.000 A 
ATOM     18  C   UNL     1       2.532   5.884  20.530  0.00  0.00    +0.000 C 
ATOM     19  C   UNL     1       1.416   8.118  20.103  0.00  0.00    +0.000 A 
ATOM     20  C   UNL     1       0.586   7.867  21.339  0.00  0.00    +0.000 C 
BRANCH  16  21
ATOM     21  C   UNL     1       3.569   6.077  17.669  0.00  0.00    +0.000 C 
BRANCH  21  22
ATOM     22  C   UNL     1       5.068   6.108  17.902  0.00  0.00    +0.000 A 
ATOM     23  C   UNL     1       5.627   5.383  18.966  0.00  0.00    +0.000 A 
ATOM     24  C   UNL     1       6.982   5.505  19.277  0.00  0.00    +0.000 A 
ATOM     25  C   UNL     1       7.799   6.335  18.514  0.00  0.00    +0.000 A 
ATOM     26  C   UNL     1       7.268   7.015  17.418  0.00  0.00    +0.000 A 
ATOM     27  C   UNL     1       5.911   6.898  17.107  0.00  0.00    +0.000 A 
ENDBRANCH  21  22
ENDBRANCH  16  21
ENDBRANCH   3  13
BRANCH  10  28
ATOM     28  C   UNL     1      -3.278  17.526  21.677  0.00  0.00    +0.000 C 
ATOM     29  C   UNL     1      -2.427  18.423  22.542  0.00  0.00    +0.000 C 
ATOM     30  O   UNL     1      -4.469  17.765  21.481  0.00  0.00    +0.000 OA
ENDBRANCH  10  28
BRANCH   1  32
ATOM     31  C   UNL     1      -3.292  10.670  17.774  0.00  0.00    +0.000 C 
ATOM     32  C   UNL     1      -2.839  11.835  18.656  0.00  0.00    +0.000 C 
ENDBRANCH   1  32
TORSDOF 5
ENDMDL
MODEL 8
REMARK VINA RESULT:      -7.5      3.019      4.861
REMARK  Name = 
REMARK  9 active torsions:
REMARK  status: ('A' for Active; 'I' for Inactive)
REMARK    1  A    between atoms: C_1  and  C_2
REMARK    2  A    between atoms: C_2  and  C_3
REMARK    3  A    between atoms: N_5  and  C_6
REMARK    4  A    between atoms: C_9  and  C_10
REMARK    5  A    between atoms: C_10  and  C_11
REMARK    6  A    between atoms: C_17  and  C_18
REMARK    7  A    between atoms: C_19  and  C_20
REMARK    8  A    between atoms: C_27  and  C_28
REMARK    9  A    between atoms: C_28  and  C_29
REMARK                            x       y       z     vdW  Elec       q    Type
REMARK                         _______ _______ _______ _____ _____    ______ ____
ROOT
ATOM      1  C   UNL     1      -0.911  11.494  21.040  0.00  0.00    +0.000 C 
ATOM      2  C   UNL     1       0.453  11.390  20.287  0.00  0.00    +0.000 C 
ATOM      3  N   UNL     1       0.283  10.417  19.196  0.00  0.00    +0.000 N 
ATOM      4  C   UNL     1      -0.649  10.897  18.168  0.00  0.00    +0.000 C 
ATOM      5  C   UNL     1      -2.034  11.134  18.826  0.00  0.00    +0.000 C 
ATOM      6  N   UNL     1      -1.928  11.964  20.053  0.00  0.00    +0.000 N 
ATOM      7  C   UNL     1      -2.919  12.878  20.324  0.00  0.00    +0.000 A 
ATOM      8  C   UNL     1      -4.245  12.686  19.917  0.00  0.00    +0.000 A 
ATOM      9  N   UNL     1      -5.229  13.617  20.002  0.00  0.00    +0.000 NA
ATOM     10  C   UNL     1      -4.843  14.794  20.538  0.00  0.00    +0.000 A 
ATOM     11  C   UNL     1      -3.559  14.997  21.008  0.00  0.00    +0.000 A 
ATOM     12  N   UNL     1      -2.583  14.050  20.912  0.00  0.00    +0.000 NA
ENDROOT
BRANCH   3  13
ATOM     13  C   UNL     1       1.154   9.390  18.911  0.00  0.00    +0.000 A 
ATOM     14  N   UNL     1       1.803   9.420  17.728  0.00  0.00    +0.000 NA
ATOM     15  N   UNL     1       2.648   8.406  17.323  0.00  0.00    +0.000 NA
ATOM     16  C   UNL     1       2.902   7.361  18.135  0.00  0.00    +0.000 A 
ATOM     17  C   UNL     1       2.313   7.291  19.397  0.00  0.00    +0.000 A 
ATOM     18  C   UNL     1       2.625   6.177  20.362  0.00  0.00    +0.000 C 
ATOM     19  C   UNL     1       1.346   8.275  19.744  0.00  0.00    +0.000 A 
ATOM     20  C   UNL     1       0.498   8.044  20.972  0.00  0.00    +0.000 C 
BRANCH  16  21
ATOM     21  C   UNL     1       3.736   6.254  17.523  0.00  0.00    +0.000 C 
BRANCH  21  22
ATOM     22  C   UNL     1       5.194   6.329  17.935  0.00  0.00    +0.000 A 
ATOM     23  C   UNL     1       6.076   7.177  17.246  0.00  0.00    +0.000 A 
ATOM     24  C   UNL     1       7.443   7.160  17.522  0.00  0.00    +0.000 A 
ATOM     25  C   UNL     1       7.943   6.313  18.507  0.00  0.00    +0.000 A 
ATOM     26  C   UNL     1       7.071   5.509  19.241  0.00  0.00    +0.000 A 
ATOM     27  C   UNL     1       5.702   5.521  18.963  0.00  0.00    +0.000 A 
ENDBRANCH  21  22
ENDBRANCH  16  21
ENDBRANCH   3  13
BRANCH  10  28
ATOM     28  C   UNL     1      -5.841  15.890  20.567  0.00  0.00    +0.000 C 
ATOM     29  C   UNL     1      -6.403  16.317  21.901  0.00  0.00    +0.000 C 
ATOM     30  O   UNL     1      -6.212  16.413  19.518  0.00  0.00    +0.000 OA
ENDBRANCH  10  28
BRANCH   1  32
ATOM     31  C   UNL     1      -1.727  11.762  23.451  0.00  0.00    +0.000 C 
ATOM     32  C   UNL     1      -0.794  12.279  22.353  0.00  0.00    +0.000 C 
ENDBRANCH   1  32
TORSDOF 5
ENDMDL
MODEL 9
REMARK VINA RESULT:      -7.5      3.290      4.719
REMARK  Name = 
REMARK  9 active torsions:
REMARK  status: ('A' for Active; 'I' for Inactive)
REMARK    1  A    between atoms: C_1  and  C_2
REMARK    2  A    between atoms: C_2  and  C_3
REMARK    3  A    between atoms: N_5  and  C_6
REMARK    4  A    between atoms: C_9  and  C_10
REMARK    5  A    between atoms: C_10  and  C_11
REMARK    6  A    between atoms: C_17  and  C_18
REMARK    7  A    between atoms: C_19  and  C_20
REMARK    8  A    between atoms: C_27  and  C_28
REMARK    9  A    between atoms: C_28  and  C_29
REMARK                            x       y       z     vdW  Elec       q    Type
REMARK                         _______ _______ _______ _____ _____    ______ ____
ROOT
ATOM      1  C   UNL     1      -0.687  11.827  20.175  0.00  0.00    +0.000 C 
ATOM      2  C   UNL     1      -0.798  10.333  19.733  0.00  0.00    +0.000 C 
ATOM      3  N   UNL     1       0.070   9.544  20.621  0.00  0.00    +0.000 N 
ATOM      4  C   UNL     1      -0.417   9.537  22.006  0.00  0.00    +0.000 C 
ATOM      5  C   UNL     1      -0.446  10.997  22.529  0.00  0.00    +0.000 C 
ATOM      6  N   UNL     1      -1.151  11.907  21.591  0.00  0.00    +0.000 N 
ATOM      7  C   UNL     1      -1.929  12.917  22.104  0.00  0.00    +0.000 A 
ATOM      8  C   UNL     1      -1.648  13.526  23.334  0.00  0.00    +0.000 A 
ATOM      9  N   UNL     1      -2.462  14.403  23.974  0.00  0.00    +0.000 NA
ATOM     10  C   UNL     1      -3.610  14.681  23.321  0.00  0.00    +0.000 A 
ATOM     11  C   UNL     1      -3.892  14.148  22.077  0.00  0.00    +0.000 A 
ATOM     12  N   UNL     1      -3.062  13.266  21.451  0.00  0.00    +0.000 NA
ENDROOT
BRANCH   3  13
ATOM     13  C   UNL     1       0.970   8.590  20.203  0.00  0.00    +0.000 A 
ATOM     14  N   UNL     1       1.189   7.529  21.008  0.00  0.00    +0.000 NA
ATOM     15  N   UNL     1       2.117   6.553  20.707  0.00  0.00    +0.000 NA
ATOM     16  C   UNL     1       2.808   6.596  19.551  0.00  0.00    +0.000 A 
ATOM     17  C   UNL     1       2.592   7.632  18.642  0.00  0.00    +0.000 A 
ATOM     18  C   UNL     1       3.290   7.680  17.308  0.00  0.00    +0.000 C 
ATOM     19  C   UNL     1       1.730   8.696  19.026  0.00  0.00    +0.000 A 
ATOM     20  C   UNL     1       1.720   9.948  18.182  0.00  0.00    +0.000 C 
BRANCH  16  21
ATOM     21  C   UNL     1       3.887   5.545  19.401  0.00  0.00    +0.000 C 
BRANCH  21  22
ATOM     22  C   UNL     1       3.339   4.211  18.931  0.00  0.00    +0.000 A 
ATOM     23  C   UNL     1       2.033   4.128  18.423  0.00  0.00    +0.000 A 
ATOM     24  C   UNL     1       1.466   2.892  18.112  0.00  0.00    +0.000 A 
ATOM     25  C   UNL     1       2.206   1.725  18.282  0.00  0.00    +0.000 A 
ATOM     26  C   UNL     1       3.524   1.797  18.729  0.00  0.00    +0.000 A 
ATOM     27  C   UNL     1       4.093   3.033  19.046  0.00  0.00    +0.000 A 
ENDBRANCH  21  22
ENDBRANCH  16  21
ENDBRANCH   3  13
BRANCH  10  28
ATOM     28  C   UNL     1      -4.592  15.553  24.010  0.00  0.00    +0.000 C 
ATOM     29  C   UNL     1      -4.084  16.566  25.006  0.00  0.00    +0.000 C 
ATOM     30  O   UNL     1      -5.794  15.425  23.782  0.00  0.00    +0.000 OA
ENDBRANCH  10  28
BRANCH   1  32
ATOM     31  C   UNL     1      -0.405  13.899  18.699  0.00  0.00    +0.000 C 
ATOM     32  C   UNL     1      -1.341  12.782  19.167  0.00  0.00    +0.000 C 
ENDBRANCH   1  32
TORSDOF 5
ENDMDL
