MODEL 1
REMARK VINA RESULT:      -4.4      0.000      0.000
REMARK  Name = 
REMARK  1 active torsions:
REMARK  status: ('A' for Active; 'I' for Inactive)
REMARK    1  A    between atoms: C_1  and  C_2
REMARK                            x       y       z     vdW  Elec       q    Type
REMARK                         _______ _______ _______ _____ _____    ______ ____
ROOT
ATOM      1  C   UNL     1       2.845   6.378  18.149  0.00  0.00    +0.000 C 
ATOM      2  C   UNL     1       2.161   5.188  18.752  0.00  0.00    +0.000 A 
ATOM      3  C   UNL     1       1.894   5.129  20.124  0.00  0.00    +0.000 A 
ATOM      4  C   UNL     1       1.268   4.009  20.675  0.00  0.00    +0.000 A 
ATOM      5  C   UNL     1       0.902   2.940  19.858  0.00  0.00    +0.000 A 
ATOM      6  C   UNL     1       1.161   2.992  18.490  0.00  0.00    +0.000 A 
ATOM      7  C   UNL     1       1.788   4.110  17.938  0.00  0.00    +0.000 A 
ENDROOT
TORSDOF 0
ENDMDL
MODEL 2
REMARK VINA RESULT:      -4.3      0.815      3.197
REMARK  Name = 
REMARK  1 active torsions:
REMARK  status: ('A' for Active; 'I' for Inactive)
REMARK    1  A    between atoms: C_1  and  C_2
REMARK                            x       y       z     vdW  Elec       q    Type
REMARK                         _______ _______ _______ _____ _____    ______ ____
ROOT
ATOM      1  C   UNL     1       1.374   2.740  21.554  0.00  0.00    +0.000 C 
ATOM      2  C   UNL     1       1.603   3.589  20.339  0.00  0.00    +0.000 A 
ATOM      3  C   UNL     1       1.260   3.129  19.063  0.00  0.00    +0.000 A 
ATOM      4  C   UNL     1       1.491   3.924  17.940  0.00  0.00    +0.000 A 
ATOM      5  C   UNL     1       2.063   5.188  18.083  0.00  0.00    +0.000 A 
ATOM      6  C   UNL     1       2.404   5.656  19.351  0.00  0.00    +0.000 A 
ATOM      7  C   UNL     1       2.175   4.860  20.475  0.00  0.00    +0.000 A 
ENDROOT
TORSDOF 0
ENDMDL
MODEL 3
REMARK VINA RESULT:      -4.3      0.807      2.718
REMARK  Name = 
REMARK  1 active torsions:
REMARK  status: ('A' for Active; 'I' for Inactive)
REMARK    1  A    between atoms: C_1  and  C_2
REMARK                            x       y       z     vdW  Elec       q    Type
REMARK                         _______ _______ _______ _____ _____    ______ ____
ROOT
ATOM      1  C   UNL     1       1.370   2.785  21.562  0.00  0.00    +0.000 C 
ATOM      2  C   UNL     1       1.631   3.637  20.355  0.00  0.00    +0.000 A 
ATOM      3  C   UNL     1       2.197   4.910  20.482  0.00  0.00    +0.000 A 
ATOM      4  C   UNL     1       2.423   5.698  19.352  0.00  0.00    +0.000 A 
ATOM      5  C   UNL     1       2.088   5.218  18.086  0.00  0.00    +0.000 A 
ATOM      6  C   UNL     1       1.528   3.950  17.951  0.00  0.00    +0.000 A 
ATOM      7  C   UNL     1       1.300   3.162  19.080  0.00  0.00    +0.000 A 
ENDROOT
TORSDOF 0
ENDMDL
MODEL 4
REMARK VINA RESULT:      -4.3      1.377      3.181
REMARK  Name = 
REMARK  1 active torsions:
REMARK  status: ('A' for Active; 'I' for Inactive)
REMARK    1  A    between atoms: C_1  and  C_2
REMARK                            x       y       z     vdW  Elec       q    Type
REMARK                         _______ _______ _______ _____ _____    ______ ____
ROOT
ATOM      1  C   UNL     1       1.407   2.743  21.350  0.00  0.00    +0.000 C 
ATOM      2  C   UNL     1       1.767   2.958  19.910  0.00  0.00    +0.000 A 
ATOM      3  C   UNL     1       2.434   1.969  19.179  0.00  0.00    +0.000 A 
ATOM      4  C   UNL     1       2.775   2.187  17.843  0.00  0.00    +0.000 A 
ATOM      5  C   UNL     1       2.450   3.395  17.227  0.00  0.00    +0.000 A 
ATOM      6  C   UNL     1       1.783   4.384  17.946  0.00  0.00    +0.000 A 
ATOM      7  C   UNL     1       1.443   4.168  19.283  0.00  0.00    +0.000 A 
ENDROOT
TORSDOF 0
ENDMDL
MODEL 5
REMARK VINA RESULT:      -4.3      0.811      3.157
REMARK  Name = 
REMARK  1 active torsions:
REMARK  status: ('A' for Active; 'I' for Inactive)
REMARK    1  A    between atoms: C_1  and  C_2
REMARK                            x       y       z     vdW  Elec       q    Type
REMARK                         _______ _______ _______ _____ _____    ______ ____
ROOT
ATOM      1  C   UNL     1       0.727   2.377  18.776  0.00  0.00    +0.000 C 
ATOM      2  C   UNL     1       1.313   3.736  19.022  0.00  0.00    +0.000 A 
ATOM      3  C   UNL     1       1.878   4.476  17.978  0.00  0.00    +0.000 A 
ATOM      4  C   UNL     1       2.432   5.734  18.222  0.00  0.00    +0.000 A 
ATOM      5  C   UNL     1       2.423   6.262  19.513  0.00  0.00    +0.000 A 
ATOM      6  C   UNL     1       1.859   5.534  20.558  0.00  0.00    +0.000 A 
ATOM      7  C   UNL     1       1.307   4.275  20.314  0.00  0.00    +0.000 A 
ENDROOT
TORSDOF 0
ENDMDL
MODEL 6
REMARK VINA RESULT:      -4.3      0.811      2.685
REMARK  Name = 
REMARK  1 active torsions:
REMARK  status: ('A' for Active; 'I' for Inactive)
REMARK    1  A    between atoms: C_1  and  C_2
REMARK                            x       y       z     vdW  Elec       q    Type
REMARK                         _______ _______ _______ _____ _____    ______ ____
ROOT
ATOM      1  C   UNL     1       0.743   2.342  18.835  0.00  0.00    +0.000 C 
ATOM      2  C   UNL     1       1.326   3.702  19.078  0.00  0.00    +0.000 A 
ATOM      3  C   UNL     1       1.338   4.263  20.359  0.00  0.00    +0.000 A 
ATOM      4  C   UNL     1       1.873   5.536  20.568  0.00  0.00    +0.000 A 
ATOM      5  C   UNL     1       2.401   6.257  19.498  0.00  0.00    +0.000 A 
ATOM      6  C   UNL     1       2.396   5.704  18.219  0.00  0.00    +0.000 A 
ATOM      7  C   UNL     1       1.861   4.432  18.008  0.00  0.00    +0.000 A 
ENDROOT
TORSDOF 0
ENDMDL
MODEL 7
REMARK VINA RESULT:      -4.3      0.569      1.869
REMARK  Name = 
REMARK  1 active torsions:
REMARK  status: ('A' for Active; 'I' for Inactive)
REMARK    1  A    between atoms: C_1  and  C_2
REMARK                            x       y       z     vdW  Elec       q    Type
REMARK                         _______ _______ _______ _____ _____    ______ ____
ROOT
ATOM      1  C   UNL     1       2.812   6.676  19.140  0.00  0.00    +0.000 C 
ATOM      2  C   UNL     1       2.159   5.333  19.279  0.00  0.00    +0.000 A 
ATOM      3  C   UNL     1       1.910   4.533  18.158  0.00  0.00    +0.000 A 
ATOM      4  C   UNL     1       1.291   3.290  18.301  0.00  0.00    +0.000 A 
ATOM      5  C   UNL     1       0.917   2.836  19.565  0.00  0.00    +0.000 A 
ATOM      6  C   UNL     1       1.165   3.624  20.687  0.00  0.00    +0.000 A 
ATOM      7  C   UNL     1       1.783   4.868  20.546  0.00  0.00    +0.000 A 
ENDROOT
TORSDOF 0
ENDMDL
MODEL 8
REMARK VINA RESULT:      -4.3      1.469      3.016
REMARK  Name = 
REMARK  1 active torsions:
REMARK  status: ('A' for Active; 'I' for Inactive)
REMARK    1  A    between atoms: C_1  and  C_2
REMARK                            x       y       z     vdW  Elec       q    Type
REMARK                         _______ _______ _______ _____ _____    ______ ____
ROOT
ATOM      1  C   UNL     1       1.549   2.682  21.444  0.00  0.00    +0.000 C 
ATOM      2  C   UNL     1       1.859   2.879  19.989  0.00  0.00    +0.000 A 
ATOM      3  C   UNL     1       1.383   3.998  19.297  0.00  0.00    +0.000 A 
ATOM      4  C   UNL     1       1.667   4.162  17.940  0.00  0.00    +0.000 A 
ATOM      5  C   UNL     1       2.432   3.211  17.266  0.00  0.00    +0.000 A 
ATOM      6  C   UNL     1       2.913   2.096  17.948  0.00  0.00    +0.000 A 
ATOM      7  C   UNL     1       2.628   1.930  19.305  0.00  0.00    +0.000 A 
ENDROOT
TORSDOF 0
ENDMDL
MODEL 9
REMARK VINA RESULT:      -4.2      0.538      1.869
REMARK  Name = 
REMARK  1 active torsions:
REMARK  status: ('A' for Active; 'I' for Inactive)
REMARK    1  A    between atoms: C_1  and  C_2
REMARK                            x       y       z     vdW  Elec       q    Type
REMARK                         _______ _______ _______ _____ _____    ______ ____
ROOT
ATOM      1  C   UNL     1       3.311   5.675  17.674  0.00  0.00    +0.000 C 
ATOM      2  C   UNL     1       2.428   4.796  18.510  0.00  0.00    +0.000 A 
ATOM      3  C   UNL     1       1.906   3.603  17.998  0.00  0.00    +0.000 A 
ATOM      4  C   UNL     1       1.076   2.801  18.783  0.00  0.00    +0.000 A 
ATOM      5  C   UNL     1       0.764   3.183  20.087  0.00  0.00    +0.000 A 
ATOM      6  C   UNL     1       1.283   4.367  20.607  0.00  0.00    +0.000 A 
ATOM      7  C   UNL     1       2.112   5.171  19.822  0.00  0.00    +0.000 A 
ENDROOT
TORSDOF 0
ENDMDL
