MODEL 1
REMARK VINA RESULT:      -7.3      0.000      0.000
REMARK  Name = 
REMARK  6 active torsions:
REMARK  status: ('A' for Active; 'I' for Inactive)
REMARK    1  A    between atoms: C_1  and  C_2
REMARK    2  A    between atoms: C_2  and  C_4
REMARK    3  A    between atoms: C_10  and  N_11
REMARK    4  A    between atoms: C_14  and  O_15
REMARK    5  A    between atoms: O_15  and  C_16
REMARK    6  A    between atoms: C_16  and  C_17
REMARK                            x       y       z     vdW  Elec       q    Type
REMARK                         _______ _______ _______ _____ _____    ______ ____
ROOT
ATOM      1  N   UNL     1       5.665   4.605  18.897  0.00  0.00    +0.000 N 
ATOM      2  C   UNL     1       6.742   5.407  19.482  0.00  0.00    +0.000 C 
ATOM      3  C   UNL     1       7.314   6.176  18.307  0.00  0.00    +0.000 C 
ATOM      4  C   UNL     1       7.233   5.158  17.170  0.00  0.00    +0.000 C 
ATOM      5  C   UNL     1       5.846   4.527  17.427  0.00  0.00    +0.000 C 
ENDROOT
BRANCH   1  12
ATOM      6  C   UNL     1       3.597   3.517  19.702  0.00  0.00    +0.000 A 
ATOM      7  C   UNL     1       2.262   3.664  20.119  0.00  0.00    +0.000 A 
ATOM      8  F   UNL     1       1.515   2.603  20.455  0.00  0.00    +0.000 F 
ATOM      9  C   UNL     1       1.661   4.913  20.236  0.00  0.00    +0.000 A 
ATOM     10  C   UNL     1       2.393   6.048  19.936  0.00  0.00    +0.000 A 
ATOM     11  C   UNL     1       3.714   5.922  19.501  0.00  0.00    +0.000 A 
ATOM     12  C   UNL     1       4.355   4.667  19.366  0.00  0.00    +0.000 A 
BRANCH   6  14
ATOM     13  C   UNL     1       3.847   1.174  18.620  0.00  0.00    +0.000 C 
ATOM     14  C   UNL     1       4.198   2.142  19.726  0.00  0.00    +0.000 C 
ATOM     15  O   UNL     1       4.930   1.775  20.643  0.00  0.00    +0.000 OA
ENDBRANCH   6  14
ENDBRANCH   1  12
BRANCH   4  16
ATOM     16  O   UNL     1       7.357   5.770  15.879  0.00  0.00    +0.000 OA
BRANCH  16  17
ATOM     17  C   UNL     1       6.137   5.653  15.138  0.00  0.00    +0.000 C 
BRANCH  17  18
ATOM     18  C   UNL     1       6.256   4.824  13.886  0.00  0.00    +0.000 A 
ATOM     19  C   UNL     1       7.389   4.982  13.076  0.00  0.00    +0.000 A 
ATOM     20  C   UNL     1       7.554   4.150  11.978  0.00  0.00    +0.000 A 
ATOM     21  N   UNL     1       6.680   3.181  11.640  0.00  0.00    +0.000 NA
ATOM     22  C   UNL     1       5.594   3.042  12.431  0.00  0.00    +0.000 A 
ATOM     23  C   UNL     1       5.340   3.828  13.551  0.00  0.00    +0.000 A 
ENDBRANCH  17  18
ENDBRANCH  16  17
ENDBRANCH   4  16
TORSDOF 5
ENDMDL
MODEL 2
REMARK VINA RESULT:      -7.2      0.959      1.160
REMARK  Name = 
REMARK  6 active torsions:
REMARK  status: ('A' for Active; 'I' for Inactive)
REMARK    1  A    between atoms: C_1  and  C_2
REMARK    2  A    between atoms: C_2  and  C_4
REMARK    3  A    between atoms: C_10  and  N_11
REMARK    4  A    between atoms: C_14  and  O_15
REMARK    5  A    between atoms: O_15  and  C_16
REMARK    6  A    between atoms: C_16  and  C_17
REMARK                            x       y       z     vdW  Elec       q    Type
REMARK                         _______ _______ _______ _____ _____    ______ ____
ROOT
ATOM      1  N   UNL     1       5.372   4.577  18.156  0.00  0.00    +0.000 N 
ATOM      2  C   UNL     1       6.610   5.310  18.432  0.00  0.00    +0.000 C 
ATOM      3  C   UNL     1       6.930   6.005  17.123  0.00  0.00    +0.000 C 
ATOM      4  C   UNL     1       6.509   4.967  16.083  0.00  0.00    +0.000 C 
ATOM      5  C   UNL     1       5.187   4.448  16.691  0.00  0.00    +0.000 C 
ENDROOT
BRANCH   1  12
ATOM      6  C   UNL     1       3.556   3.677  19.571  0.00  0.00    +0.000 A 
ATOM      7  C   UNL     1       2.369   3.928  20.282  0.00  0.00    +0.000 A 
ATOM      8  F   UNL     1       1.715   2.945  20.918  0.00  0.00    +0.000 F 
ATOM      9  C   UNL     1       1.833   5.207  20.391  0.00  0.00    +0.000 A 
ATOM     10  C   UNL     1       2.481   6.268  19.784  0.00  0.00    +0.000 A 
ATOM     11  C   UNL     1       3.651   6.037  19.057  0.00  0.00    +0.000 A 
ATOM     12  C   UNL     1       4.221   4.747  18.922  0.00  0.00    +0.000 A 
BRANCH   6  14
ATOM     13  C   UNL     1       3.693   1.292  18.564  0.00  0.00    +0.000 C 
ATOM     14  C   UNL     1       4.125   2.290  19.613  0.00  0.00    +0.000 C 
ATOM     15  O   UNL     1       4.898   1.937  20.504  0.00  0.00    +0.000 OA
ENDBRANCH   6  14
ENDBRANCH   1  12
BRANCH   4  16
ATOM     16  O   UNL     1       6.359   5.535  14.775  0.00  0.00    +0.000 OA
BRANCH  16  17
ATOM     17  C   UNL     1       7.208   4.873  13.829  0.00  0.00    +0.000 C 
BRANCH  17  18
ATOM     18  C   UNL     1       6.471   3.988  12.858  0.00  0.00    +0.000 A 
ATOM     19  C   UNL     1       7.197   3.043  12.119  0.00  0.00    +0.000 A 
ATOM     20  C   UNL     1       6.513   2.157  11.300  0.00  0.00    +0.000 A 
ATOM     21  N   UNL     1       5.171   2.145  11.174  0.00  0.00    +0.000 NA
ATOM     22  C   UNL     1       4.487   3.060  11.893  0.00  0.00    +0.000 A 
ATOM     23  C   UNL     1       5.082   3.990  12.739  0.00  0.00    +0.000 A 
ENDBRANCH  17  18
ENDBRANCH  16  17
ENDBRANCH   4  16
TORSDOF 5
ENDMDL
MODEL 3
REMARK VINA RESULT:      -7.1      1.152      1.664
REMARK  Name = 
REMARK  6 active torsions:
REMARK  status: ('A' for Active; 'I' for Inactive)
REMARK    1  A    between atoms: C_1  and  C_2
REMARK    2  A    between atoms: C_2  and  C_4
REMARK    3  A    between atoms: C_10  and  N_11
REMARK    4  A    between atoms: C_14  and  O_15
REMARK    5  A    between atoms: O_15  and  C_16
REMARK    6  A    between atoms: C_16  and  C_17
REMARK                            x       y       z     vdW  Elec       q    Type
REMARK                         _______ _______ _______ _____ _____    ______ ____
ROOT
ATOM      1  N   UNL     1       5.369   4.269  17.578  0.00  0.00    +0.000 N 
ATOM      2  C   UNL     1       6.766   4.547  17.917  0.00  0.00    +0.000 C 
ATOM      3  C   UNL     1       7.290   5.328  16.728  0.00  0.00    +0.000 C 
ATOM      4  C   UNL     1       6.587   4.655  15.550  0.00  0.00    +0.000 C 
ATOM      5  C   UNL     1       5.166   4.452  16.121  0.00  0.00    +0.000 C 
ENDROOT
BRANCH   1  12
ATOM      6  C   UNL     1       3.662   3.732  19.283  0.00  0.00    +0.000 A 
ATOM      7  C   UNL     1       2.571   4.174  20.052  0.00  0.00    +0.000 A 
ATOM      8  F   UNL     1       1.932   3.351  20.896  0.00  0.00    +0.000 F 
ATOM      9  C   UNL     1       2.121   5.490  20.003  0.00  0.00    +0.000 A 
ATOM     10  C   UNL     1       2.761   6.395  19.175  0.00  0.00    +0.000 A 
ATOM     11  C   UNL     1       3.835   5.970  18.388  0.00  0.00    +0.000 A 
ATOM     12  C   UNL     1       4.315   4.638  18.410  0.00  0.00    +0.000 A 
BRANCH   6  14
ATOM     13  C   UNL     1       3.611   1.227  18.618  0.00  0.00    +0.000 C 
ATOM     14  C   UNL     1       4.154   2.331  19.495  0.00  0.00    +0.000 C 
ATOM     15  O   UNL     1       4.952   2.057  20.390  0.00  0.00    +0.000 OA
ENDBRANCH   6  14
ENDBRANCH   1  12
BRANCH   4  16
ATOM     16  O   UNL     1       6.623   5.456  14.362  0.00  0.00    +0.000 OA
BRANCH  16  17
ATOM     17  C   UNL     1       7.296   4.767  13.300  0.00  0.00    +0.000 C 
BRANCH  17  18
ATOM     18  C   UNL     1       6.433   3.768  12.574  0.00  0.00    +0.000 A 
ATOM     19  C   UNL     1       5.078   4.064  12.372  0.00  0.00    +0.000 A 
ATOM     20  C   UNL     1       4.304   3.197  11.616  0.00  0.00    +0.000 A 
ATOM     21  N   UNL     1       4.783   2.071  11.051  0.00  0.00    +0.000 NA
ATOM     22  C   UNL     1       6.090   1.800  11.254  0.00  0.00    +0.000 A 
ATOM     23  C   UNL     1       6.946   2.606  11.998  0.00  0.00    +0.000 A 
ENDBRANCH  17  18
ENDBRANCH  16  17
ENDBRANCH   4  16
TORSDOF 5
ENDMDL
MODEL 4
REMARK VINA RESULT:      -7.0      3.273      5.232
REMARK  Name = 
REMARK  6 active torsions:
REMARK  status: ('A' for Active; 'I' for Inactive)
REMARK    1  A    between atoms: C_1  and  C_2
REMARK    2  A    between atoms: C_2  and  C_4
REMARK    3  A    between atoms: C_10  and  N_11
REMARK    4  A    between atoms: C_14  and  O_15
REMARK    5  A    between atoms: O_15  and  C_16
REMARK    6  A    between atoms: C_16  and  C_17
REMARK                            x       y       z     vdW  Elec       q    Type
REMARK                         _______ _______ _______ _____ _____    ______ ____
ROOT
ATOM      1  N   UNL     1       4.457   5.343  17.832  0.00  0.00    +0.000 N 
ATOM      2  C   UNL     1       5.746   4.676  18.034  0.00  0.00    +0.000 C 
ATOM      3  C   UNL     1       6.748   5.813  18.088  0.00  0.00    +0.000 C 
ATOM      4  C   UNL     1       6.199   6.791  17.051  0.00  0.00    +0.000 C 
ATOM      5  C   UNL     1       4.683   6.724  17.342  0.00  0.00    +0.000 C 
ENDROOT
BRANCH   1  12
ATOM      6  C   UNL     1       2.504   4.038  18.602  0.00  0.00    +0.000 A 
ATOM      7  C   UNL     1       1.407   3.947  19.478  0.00  0.00    +0.000 A 
ATOM      8  F   UNL     1       0.562   2.906  19.432  0.00  0.00    +0.000 F 
ATOM      9  C   UNL     1       1.162   4.908  20.453  0.00  0.00    +0.000 A 
ATOM     10  C   UNL     1       2.018   5.988  20.570  0.00  0.00    +0.000 A 
ATOM     11  C   UNL     1       3.102   6.108  19.698  0.00  0.00    +0.000 A 
ATOM     12  C   UNL     1       3.378   5.151  18.691  0.00  0.00    +0.000 A 
BRANCH   6  14
ATOM     13  C   UNL     1       3.497   1.679  18.187  0.00  0.00    +0.000 C 
ATOM     14  C   UNL     1       2.760   2.893  17.668  0.00  0.00    +0.000 C 
ATOM     15  O   UNL     1       2.424   2.939  16.486  0.00  0.00    +0.000 OA
ENDBRANCH   6  14
ENDBRANCH   1  12
BRANCH   4  16
ATOM     16  O   UNL     1       6.756   8.106  17.193  0.00  0.00    +0.000 OA
BRANCH  16  17
ATOM     17  C   UNL     1       7.968   8.069  17.956  0.00  0.00    +0.000 C 
BRANCH  17  18
ATOM     18  C   UNL     1       8.520   9.428  18.297  0.00  0.00    +0.000 A 
ATOM     19  C   UNL     1       8.189  10.517  17.479  0.00  0.00    +0.000 A 
ATOM     20  C   UNL     1       8.610  11.787  17.845  0.00  0.00    +0.000 A 
ATOM     21  N   UNL     1       9.324  12.043  18.959  0.00  0.00    +0.000 NA
ATOM     22  C   UNL     1       9.634  10.983  19.736  0.00  0.00    +0.000 A 
ATOM     23  C   UNL     1       9.261   9.673  19.453  0.00  0.00    +0.000 A 
ENDBRANCH  17  18
ENDBRANCH  16  17
ENDBRANCH   4  16
TORSDOF 5
ENDMDL
MODEL 5
REMARK VINA RESULT:      -7.0      1.646      2.597
REMARK  Name = 
REMARK  6 active torsions:
REMARK  status: ('A' for Active; 'I' for Inactive)
REMARK    1  A    between atoms: C_1  and  C_2
REMARK    2  A    between atoms: C_2  and  C_4
REMARK    3  A    between atoms: C_10  and  N_11
REMARK    4  A    between atoms: C_14  and  O_15
REMARK    5  A    between atoms: O_15  and  C_16
REMARK    6  A    between atoms: C_16  and  C_17
REMARK                            x       y       z     vdW  Elec       q    Type
REMARK                         _______ _______ _______ _____ _____    ______ ____
ROOT
ATOM      1  N   UNL     1       4.008   5.461  18.408  0.00  0.00    +0.000 N 
ATOM      2  C   UNL     1       3.584   6.715  17.781  0.00  0.00    +0.000 C 
ATOM      3  C   UNL     1       4.660   6.998  16.750  0.00  0.00    +0.000 C 
ATOM      4  C   UNL     1       5.931   6.531  17.457  0.00  0.00    +0.000 C 
ATOM      5  C   UNL     1       5.444   5.225  18.124  0.00  0.00    +0.000 C 
ENDROOT
BRANCH   1  12
ATOM      6  C   UNL     1       2.360   4.028  19.566  0.00  0.00    +0.000 A 
ATOM      7  C   UNL     1       1.598   2.847  19.555  0.00  0.00    +0.000 A 
ATOM      8  F   UNL     1       0.799   2.521  20.581  0.00  0.00    +0.000 F 
ATOM      9  C   UNL     1       1.608   1.975  18.470  0.00  0.00    +0.000 A 
ATOM     10  C   UNL     1       2.388   2.273  17.368  0.00  0.00    +0.000 A 
ATOM     11  C   UNL     1       3.167   3.432  17.367  0.00  0.00    +0.000 A 
ATOM     12  C   UNL     1       3.185   4.339  18.456  0.00  0.00    +0.000 A 
BRANCH   6  14
ATOM     13  C   UNL     1       1.526   6.304  20.485  0.00  0.00    +0.000 C 
ATOM     14  C   UNL     1       2.190   4.968  20.723  0.00  0.00    +0.000 C 
ATOM     15  O   UNL     1       2.617   4.694  21.844  0.00  0.00    +0.000 OA
ENDBRANCH   6  14
ENDBRANCH   1  12
BRANCH   4  16
ATOM     16  O   UNL     1       7.024   6.343  16.548  0.00  0.00    +0.000 OA
BRANCH  16  17
ATOM     17  C   UNL     1       7.158   4.962  16.189  0.00  0.00    +0.000 C 
BRANCH  17  18
ATOM     18  C   UNL     1       6.920   4.682  14.728  0.00  0.00    +0.000 A 
ATOM     19  C   UNL     1       7.770   5.268  13.780  0.00  0.00    +0.000 A 
ATOM     20  C   UNL     1       7.621   4.933  12.443  0.00  0.00    +0.000 A 
ATOM     21  N   UNL     1       6.698   4.061  11.992  0.00  0.00    +0.000 NA
ATOM     22  C   UNL     1       5.888   3.504  12.918  0.00  0.00    +0.000 A 
ATOM     23  C   UNL     1       5.958   3.777  14.280  0.00  0.00    +0.000 A 
ENDBRANCH  17  18
ENDBRANCH  16  17
ENDBRANCH   4  16
TORSDOF 5
ENDMDL
MODEL 6
REMARK VINA RESULT:      -7.0      4.601      7.304
REMARK  Name = 
REMARK  6 active torsions:
REMARK  status: ('A' for Active; 'I' for Inactive)
REMARK    1  A    between atoms: C_1  and  C_2
REMARK    2  A    between atoms: C_2  and  C_4
REMARK    3  A    between atoms: C_10  and  N_11
REMARK    4  A    between atoms: C_14  and  O_15
REMARK    5  A    between atoms: O_15  and  C_16
REMARK    6  A    between atoms: C_16  and  C_17
REMARK                            x       y       z     vdW  Elec       q    Type
REMARK                         _______ _______ _______ _____ _____    ______ ____
ROOT
ATOM      1  N   UNL     1       2.757   6.009  19.118  0.00  0.00    +0.000 N 
ATOM      2  C   UNL     1       2.578   6.755  20.366  0.00  0.00    +0.000 C 
ATOM      3  C   UNL     1       1.688   7.920  19.978  0.00  0.00    +0.000 C 
ATOM      4  C   UNL     1       2.194   8.276  18.581  0.00  0.00    +0.000 C 
ATOM      5  C   UNL     1       2.400   6.873  17.967  0.00  0.00    +0.000 C 
ENDROOT
BRANCH   1  12
ATOM      6  C   UNL     1       3.313   3.702  18.426  0.00  0.00    +0.000 A 
ATOM      7  C   UNL     1       2.896   2.364  18.309  0.00  0.00    +0.000 A 
ATOM      8  F   UNL     1       3.693   1.429  17.772  0.00  0.00    +0.000 F 
ATOM      9  C   UNL     1       1.655   1.937  18.770  0.00  0.00    +0.000 A 
ATOM     10  C   UNL     1       0.801   2.850  19.364  0.00  0.00    +0.000 A 
ATOM     11  C   UNL     1       1.189   4.187  19.473  0.00  0.00    +0.000 A 
ATOM     12  C   UNL     1       2.442   4.657  19.009  0.00  0.00    +0.000 A 
BRANCH   6  14
ATOM     13  C   UNL     1       5.001   4.315  16.556  0.00  0.00    +0.000 C 
ATOM     14  C   UNL     1       4.714   4.044  18.015  0.00  0.00    +0.000 C 
ATOM     15  O   UNL     1       5.637   4.066  18.829  0.00  0.00    +0.000 OA
ENDBRANCH   6  14
ENDBRANCH   1  12
BRANCH   4  16
ATOM     16  O   UNL     1       1.264   9.092  17.855  0.00  0.00    +0.000 OA
BRANCH  16  17
ATOM     17  C   UNL     1       0.684  10.088  18.707  0.00  0.00    +0.000 C 
BRANCH  17  18
ATOM     18  C   UNL     1      -0.725  10.469  18.335  0.00  0.00    +0.000 A 
ATOM     19  C   UNL     1      -1.396   9.714  17.363  0.00  0.00    +0.000 A 
ATOM     20  C   UNL     1      -2.726   9.995  17.091  0.00  0.00    +0.000 A 
ATOM     21  N   UNL     1      -3.427  10.961  17.717  0.00  0.00    +0.000 NA
ATOM     22  C   UNL     1      -2.766  11.679  18.651  0.00  0.00    +0.000 A 
ATOM     23  C   UNL     1      -1.433  11.474  18.993  0.00  0.00    +0.000 A 
ENDBRANCH  17  18
ENDBRANCH  16  17
ENDBRANCH   4  16
TORSDOF 5
ENDMDL
MODEL 7
REMARK VINA RESULT:      -7.0      5.003      7.630
REMARK  Name = 
REMARK  6 active torsions:
REMARK  status: ('A' for Active; 'I' for Inactive)
REMARK    1  A    between atoms: C_1  and  C_2
REMARK    2  A    between atoms: C_2  and  C_4
REMARK    3  A    between atoms: C_10  and  N_11
REMARK    4  A    between atoms: C_14  and  O_15
REMARK    5  A    between atoms: O_15  and  C_16
REMARK    6  A    between atoms: C_16  and  C_17
REMARK                            x       y       z     vdW  Elec       q    Type
REMARK                         _______ _______ _______ _____ _____    ______ ____
ROOT
ATOM      1  N   UNL     1       2.418   6.951  19.838  0.00  0.00    +0.000 N 
ATOM      2  C   UNL     1       1.908   7.779  20.934  0.00  0.00    +0.000 C 
ATOM      3  C   UNL     1       0.931   8.724  20.263  0.00  0.00    +0.000 C 
ATOM      4  C   UNL     1       1.612   9.016  18.927  0.00  0.00    +0.000 C 
ATOM      5  C   UNL     1       2.139   7.615  18.542  0.00  0.00    +0.000 C 
ENDROOT
BRANCH   1  12
ATOM      6  C   UNL     1       3.354   4.719  19.338  0.00  0.00    +0.000 A 
ATOM      7  C   UNL     1       3.174   3.324  19.353  0.00  0.00    +0.000 A 
ATOM      8  F   UNL     1       4.112   2.493  18.877  0.00  0.00    +0.000 F 
ATOM      9  C   UNL     1       2.033   2.735  19.889  0.00  0.00    +0.000 A 
ATOM     10  C   UNL     1       1.043   3.540  20.425  0.00  0.00    +0.000 A 
ATOM     11  C   UNL     1       1.195   4.928  20.403  0.00  0.00    +0.000 A 
ATOM     12  C   UNL     1       2.340   5.560  19.860  0.00  0.00    +0.000 A 
BRANCH   6  14
ATOM     13  C   UNL     1       4.862   5.486  17.373  0.00  0.00    +0.000 C 
ATOM     14  C   UNL     1       4.669   5.256  18.854  0.00  0.00    +0.000 C 
ATOM     15  O   UNL     1       5.601   5.471  19.628  0.00  0.00    +0.000 OA
ENDBRANCH   6  14
ENDBRANCH   1  12
BRANCH   4  16
ATOM     16  O   UNL     1       0.710   9.577  17.964  0.00  0.00    +0.000 OA
BRANCH  16  17
ATOM     17  C   UNL     1      -0.159  10.538  18.577  0.00  0.00    +0.000 C 
BRANCH  17  18
ATOM     18  C   UNL     1      -1.549  10.567  17.996  0.00  0.00    +0.000 A 
ATOM     19  C   UNL     1      -2.500  11.429  18.560  0.00  0.00    +0.000 A 
ATOM     20  C   UNL     1      -3.749  11.535  17.967  0.00  0.00    +0.000 A 
ATOM     21  N   UNL     1      -4.109  10.854  16.861  0.00  0.00    +0.000 NA
ATOM     22  C   UNL     1      -3.181  10.029  16.330  0.00  0.00    +0.000 A 
ATOM     23  C   UNL     1      -1.904   9.852  16.852  0.00  0.00    +0.000 A 
ENDBRANCH  17  18
ENDBRANCH  16  17
ENDBRANCH   4  16
TORSDOF 5
ENDMDL
MODEL 8
REMARK VINA RESULT:      -6.9      3.064      5.080
REMARK  Name = 
REMARK  6 active torsions:
REMARK  status: ('A' for Active; 'I' for Inactive)
REMARK    1  A    between atoms: C_1  and  C_2
REMARK    2  A    between atoms: C_2  and  C_4
REMARK    3  A    between atoms: C_10  and  N_11
REMARK    4  A    between atoms: C_14  and  O_15
REMARK    5  A    between atoms: O_15  and  C_16
REMARK    6  A    between atoms: C_16  and  C_17
REMARK                            x       y       z     vdW  Elec       q    Type
REMARK                         _______ _______ _______ _____ _____    ______ ____
ROOT
ATOM      1  N   UNL     1       4.873   5.080  18.470  0.00  0.00    +0.000 N 
ATOM      2  C   UNL     1       6.207   4.729  18.961  0.00  0.00    +0.000 C 
ATOM      3  C   UNL     1       7.011   6.005  18.799  0.00  0.00    +0.000 C 
ATOM      4  C   UNL     1       6.467   6.578  17.491  0.00  0.00    +0.000 C 
ATOM      5  C   UNL     1       4.953   6.313  17.650  0.00  0.00    +0.000 C 
ENDROOT
BRANCH   1  12
ATOM      6  C   UNL     1       3.236   3.650  19.648  0.00  0.00    +0.000 A 
ATOM      7  C   UNL     1       2.045   3.572  20.390  0.00  0.00    +0.000 A 
ATOM      8  F   UNL     1       1.550   2.393  20.796  0.00  0.00    +0.000 F 
ATOM      9  C   UNL     1       1.337   4.709  20.768  0.00  0.00    +0.000 A 
ATOM     10  C   UNL     1       1.815   5.956  20.407  0.00  0.00    +0.000 A 
ATOM     11  C   UNL     1       2.987   6.054  19.654  0.00  0.00    +0.000 A 
ATOM     12  C   UNL     1       3.728   4.918  19.248  0.00  0.00    +0.000 A 
BRANCH   6  14
ATOM     13  C   UNL     1       3.663   1.566  18.166  0.00  0.00    +0.000 C 
ATOM     14  C   UNL     1       3.995   2.382  19.394  0.00  0.00    +0.000 C 
ATOM     15  O   UNL     1       4.847   1.972  20.182  0.00  0.00    +0.000 OA
ENDBRANCH   6  14
ENDBRANCH   1  12
BRANCH   4  16
ATOM     16  O   UNL     1       6.796   7.964  17.324  0.00  0.00    +0.000 OA
BRANCH  16  17
ATOM     17  C   UNL     1       8.184   8.196  17.591  0.00  0.00    +0.000 C 
BRANCH  17  18
ATOM     18  C   UNL     1       8.479   9.555  18.171  0.00  0.00    +0.000 A 
ATOM     19  C   UNL     1       9.107   9.635  19.422  0.00  0.00    +0.000 A 
ATOM     20  C   UNL     1       9.473  10.879  19.913  0.00  0.00    +0.000 A 
ATOM     21  N   UNL     1       9.263  12.034  19.250  0.00  0.00    +0.000 NA
ATOM     22  C   UNL     1       8.658  11.939  18.046  0.00  0.00    +0.000 A 
ATOM     23  C   UNL     1       8.253  10.739  17.470  0.00  0.00    +0.000 A 
ENDBRANCH  17  18
ENDBRANCH  16  17
ENDBRANCH   4  16
TORSDOF 5
ENDMDL
MODEL 9
REMARK VINA RESULT:      -6.9      5.180      7.849
REMARK  Name = 
REMARK  6 active torsions:
REMARK  status: ('A' for Active; 'I' for Inactive)
REMARK    1  A    between atoms: C_1  and  C_2
REMARK    2  A    between atoms: C_2  and  C_4
REMARK    3  A    between atoms: C_10  and  N_11
REMARK    4  A    between atoms: C_14  and  O_15
REMARK    5  A    between atoms: O_15  and  C_16
REMARK    6  A    between atoms: C_16  and  C_17
REMARK                            x       y       z     vdW  Elec       q    Type
REMARK                         _______ _______ _______ _____ _____    ______ ____
ROOT
ATOM      1  N   UNL     1       2.712   7.137  18.783  0.00  0.00    +0.000 N 
ATOM      2  C   UNL     1       2.154   7.439  20.103  0.00  0.00    +0.000 C 
ATOM      3  C   UNL     1       1.076   8.468  19.825  0.00  0.00    +0.000 C 
ATOM      4  C   UNL     1       1.694   9.305  18.707  0.00  0.00    +0.000 C 
ATOM      5  C   UNL     1       2.341   8.210  17.829  0.00  0.00    +0.000 C 
ENDROOT
BRANCH   1  12
ATOM      6  C   UNL     1       3.943   5.272  17.725  0.00  0.00    +0.000 A 
ATOM      7  C   UNL     1       3.898   3.973  17.189  0.00  0.00    +0.000 A 
ATOM      8  F   UNL     1       4.990   3.396  16.666  0.00  0.00    +0.000 F 
ATOM      9  C   UNL     1       2.735   3.209  17.204  0.00  0.00    +0.000 A 
ATOM     10  C   UNL     1       1.585   3.739  17.761  0.00  0.00    +0.000 A 
ATOM     11  C   UNL     1       1.602   5.034  18.281  0.00  0.00    +0.000 A 
ATOM     12  C   UNL     1       2.767   5.841  18.277  0.00  0.00    +0.000 A 
BRANCH   6  14
ATOM     13  C   UNL     1       6.238   5.612  18.881  0.00  0.00    +0.000 C 
ATOM     14  C   UNL     1       5.269   5.970  17.778  0.00  0.00    +0.000 C 
ATOM     15  O   UNL     1       5.565   6.853  16.975  0.00  0.00    +0.000 OA
ENDBRANCH   6  14
ENDBRANCH   1  12
BRANCH   4  16
ATOM     16  O   UNL     1       0.719  10.098  18.015  0.00  0.00    +0.000 OA
BRANCH  16  17
ATOM     17  C   UNL     1      -0.437  10.316  18.833  0.00  0.00    +0.000 C 
BRANCH  17  18
ATOM     18  C   UNL     1      -1.721  10.452  18.058  0.00  0.00    +0.000 A 
ATOM     19  C   UNL     1      -2.705  11.334  18.528  0.00  0.00    +0.000 A 
ATOM     20  C   UNL     1      -3.845  11.540  17.765  0.00  0.00    +0.000 A 
ATOM     21  N   UNL     1      -4.066  10.939  16.579  0.00  0.00    +0.000 NA
ATOM     22  C   UNL     1      -3.109  10.093  16.141  0.00  0.00    +0.000 A 
ATOM     23  C   UNL     1      -1.934   9.819  16.834  0.00  0.00    +0.000 A 
ENDBRANCH  17  18
ENDBRANCH  16  17
ENDBRANCH   4  16
TORSDOF 5
ENDMDL
