MODEL 1
REMARK VINA RESULT:      -8.0      0.000      0.000
REMARK  Name = 
REMARK  11 active torsions:
REMARK  status: ('A' for Active; 'I' for Inactive)
REMARK    1  A    between atoms: C_1  and  C_2
REMARK    2  A    between atoms: C_2  and  C_3
REMARK    3  A    between atoms: C_2  and  C_4
REMARK    4  A    between atoms: C_4  and  O_5
REMARK    5  A    between atoms: C_4  and  C_6
REMARK    6  A    between atoms: C_9  and  N_10
REMARK    7  A    between atoms: C_12  and  N_13
REMARK    8  A    between atoms: C_14  and  C_16
REMARK    9  A    between atoms: C_16  and  N_17
REMARK   10  A    between atoms: N_17  and  C_18
REMARK   11  A    between atoms: C_25  and  C_26
REMARK                            x       y       z     vdW  Elec       q    Type
REMARK                         _______ _______ _______ _____ _____    ______ ____
ROOT
ATOM      1  N   UNL     1       1.486  11.086  18.289  0.00  0.00    +0.000 N 
ATOM      2  C   UNL     1       1.372   9.750  18.621  0.00  0.00    +0.000 C 
ATOM      3  O   UNL     1       0.846   9.351  19.660  0.00  0.00    +0.000 OA
ATOM      4  H   UNL     1       2.159  11.326  17.569  0.00  0.00    +0.000 HD
ENDROOT
BRANCH   1   7
ATOM      5  N   UNL     1       1.905  14.056  18.904  0.00  0.00    +0.000 NA
ATOM      6  C   UNL     1       2.064  12.994  19.927  0.00  0.00    +0.000 C 
ATOM      7  C   UNL     1       0.990  12.148  19.205  0.00  0.00    +0.000 C 
ATOM      8  C   UNL     1       0.581  13.479  18.542  0.00  0.00    +0.000 C 
BRANCH   5  12
ATOM      9  C   UNL     1       4.368  16.842  19.218  0.00  0.00    +0.000 C 
ATOM     10  C   UNL     1       3.407  16.660  18.025  0.00  0.00    +0.000 C 
ATOM     11  C   UNL     1       1.937  16.490  18.424  0.00  0.00    +0.000 C 
ATOM     12  C   UNL     1       1.695  15.398  19.487  0.00  0.00    +0.000 C 
ATOM     13  C   UNL     1       2.608  15.694  20.687  0.00  0.00    +0.000 C 
ATOM     14  C   UNL     1       4.085  15.812  20.325  0.00  0.00    +0.000 C 
BRANCH   9  15
ATOM     15  C   UNL     1       5.847  16.789  18.725  0.00  0.00    +0.000 C 
BRANCH  15  17
ATOM     16  C   UNL     1       6.558  14.563  17.722  0.00  0.00    +0.000 C 
ATOM     17  C   UNL     1       6.617  15.463  18.965  0.00  0.00    +0.000 C 
ATOM     18  C   UNL     1       8.083  15.658  19.357  0.00  0.00    +0.000 C 
ENDBRANCH  15  17
BRANCH  15  19
ATOM     19  O   UNL     1       6.573  17.877  19.304  0.00  0.00    +0.000 OA
ATOM     20  H   UNL     1       5.941  18.443  19.776  0.00  0.00    +0.000 HD
ENDBRANCH  15  19
ENDBRANCH   9  15
ENDBRANCH   5  12
ENDBRANCH   1   7
BRANCH   2  21
ATOM     21  C   UNL     1       2.031   8.770  17.656  0.00  0.00    +0.000 C 
BRANCH  21  22
ATOM     22  N   UNL     1       2.646   7.718  18.468  0.00  0.00    +0.000 N 
ATOM     23  H   UNL     1       1.918   7.170  18.928  0.00  0.00    +0.000 HD
BRANCH  22  24
ATOM     24  C   UNL     1       3.518   6.863  17.776  0.00  0.00    +0.000 A 
ATOM     25  N   UNL     1       4.557   7.402  17.118  0.00  0.00    +0.000 NA
ATOM     26  C   UNL     1       5.381   6.553  16.498  0.00  0.00    +0.000 A 
ATOM     27  N   UNL     1       5.283   5.219  16.492  0.00  0.00    +0.000 NA
ATOM     28  C   UNL     1       4.262   4.692  17.173  0.00  0.00    +0.000 A 
ATOM     29  C   UNL     1       4.144   3.309  17.231  0.00  0.00    +0.000 A 
ATOM     30  C   UNL     1       3.116   2.680  17.942  0.00  0.00    +0.000 A 
ATOM     31  C   UNL     1       2.154   3.436  18.615  0.00  0.00    +0.000 A 
ATOM     32  C   UNL     1       2.254   4.836  18.555  0.00  0.00    +0.000 A 
ATOM     33  C   UNL     1       3.313   5.473  17.844  0.00  0.00    +0.000 A 
BRANCH  31  34
ATOM     34  C   UNL     1       1.048   2.797  19.413  0.00  0.00    +0.000 C 
ATOM     35  F   UNL     1       0.343   3.686  20.167  0.00  0.00    +0.000 F 
ATOM     36  F   UNL     1       0.135   2.165  18.626  0.00  0.00    +0.000 F 
ATOM     37  F   UNL     1       1.512   1.856  20.278  0.00  0.00    +0.000 F 
ENDBRANCH  31  34
ENDBRANCH  22  24
ENDBRANCH  21  22
ENDBRANCH   2  21
TORSDOF 9
ENDMDL
MODEL 2
REMARK VINA RESULT:      -7.9      5.045      7.436
REMARK  Name = 
REMARK  11 active torsions:
REMARK  status: ('A' for Active; 'I' for Inactive)
REMARK    1  A    between atoms: C_1  and  C_2
REMARK    2  A    between atoms: C_2  and  C_3
REMARK    3  A    between atoms: C_2  and  C_4
REMARK    4  A    between atoms: C_4  and  O_5
REMARK    5  A    between atoms: C_4  and  C_6
REMARK    6  A    between atoms: C_9  and  N_10
REMARK    7  A    between atoms: C_12  and  N_13
REMARK    8  A    between atoms: C_14  and  C_16
REMARK    9  A    between atoms: C_16  and  N_17
REMARK   10  A    between atoms: N_17  and  C_18
REMARK   11  A    between atoms: C_25  and  C_26
REMARK                            x       y       z     vdW  Elec       q    Type
REMARK                         _______ _______ _______ _____ _____    ______ ____
ROOT
ATOM      1  N   UNL     1       0.222   9.602  20.462  0.00  0.00    +0.000 N 
ATOM      2  C   UNL     1       0.967   8.710  21.209  0.00  0.00    +0.000 C 
ATOM      3  O   UNL     1       1.788   9.056  22.060  0.00  0.00    +0.000 OA
ATOM      4  H   UNL     1      -0.213   9.245  19.618  0.00  0.00    +0.000 HD
ENDROOT
BRANCH   1   7
ATOM      5  N   UNL     1      -1.397  12.095  21.194  0.00  0.00    +0.000 NA
ATOM      6  C   UNL     1      -0.647  11.969  19.920  0.00  0.00    +0.000 C 
ATOM      7  C   UNL     1       0.392  11.070  20.629  0.00  0.00    +0.000 C 
ATOM      8  C   UNL     1      -0.173  11.675  21.931  0.00  0.00    +0.000 C 
BRANCH   5  12
ATOM      9  C   UNL     1      -4.289  13.382  23.170  0.00  0.00    +0.000 C 
ATOM     10  C   UNL     1      -2.920  13.004  23.775  0.00  0.00    +0.000 C 
ATOM     11  C   UNL     1      -1.725  13.669  23.083  0.00  0.00    +0.000 C 
ATOM     12  C   UNL     1      -1.707  13.496  21.550  0.00  0.00    +0.000 C 
ATOM     13  C   UNL     1      -3.059  13.982  21.003  0.00  0.00    +0.000 C 
ATOM     14  C   UNL     1      -4.265  13.294  21.634  0.00  0.00    +0.000 C 
BRANCH   9  15
ATOM     15  C   UNL     1      -5.410  12.496  23.795  0.00  0.00    +0.000 C 
BRANCH  15  17
ATOM     16  C   UNL     1      -6.672  14.704  23.878  0.00  0.00    +0.000 C 
ATOM     17  C   UNL     1      -6.778  13.182  24.056  0.00  0.00    +0.000 C 
ATOM     18  C   UNL     1      -7.912  12.665  23.168  0.00  0.00    +0.000 C 
ENDBRANCH  15  17
BRANCH  15  19
ATOM     19  O   UNL     1      -4.926  11.914  25.008  0.00  0.00    +0.000 OA
ATOM     20  H   UNL     1      -5.571  12.100  25.710  0.00  0.00    +0.000 HD
ENDBRANCH  15  19
ENDBRANCH   9  15
ENDBRANCH   5  12
ENDBRANCH   1   7
BRANCH   2  21
ATOM     21  C   UNL     1       0.788   7.238  20.854  0.00  0.00    +0.000 C 
BRANCH  21  22
ATOM     22  N   UNL     1       2.112   6.717  20.510  0.00  0.00    +0.000 N 
ATOM     23  H   UNL     1       2.748   6.845  21.298  0.00  0.00    +0.000 HD
BRANCH  22  24
ATOM     24  C   UNL     1       2.136   5.376  20.095  0.00  0.00    +0.000 A 
ATOM     25  N   UNL     1       1.330   4.498  20.713  0.00  0.00    +0.000 NA
ATOM     26  C   UNL     1       1.361   3.239  20.269  0.00  0.00    +0.000 A 
ATOM     27  N   UNL     1       2.097   2.777  19.253  0.00  0.00    +0.000 NA
ATOM     28  C   UNL     1       2.875   3.664  18.627  0.00  0.00    +0.000 A 
ATOM     29  C   UNL     1       3.626   3.239  17.538  0.00  0.00    +0.000 A 
ATOM     30  C   UNL     1       4.448   4.112  16.816  0.00  0.00    +0.000 A 
ATOM     31  C   UNL     1       4.549   5.456  17.183  0.00  0.00    +0.000 A 
ATOM     32  C   UNL     1       3.804   5.896  18.289  0.00  0.00    +0.000 A 
ATOM     33  C   UNL     1       2.955   5.008  19.011  0.00  0.00    +0.000 A 
BRANCH  31  34
ATOM     34  C   UNL     1       5.401   6.432  16.415  0.00  0.00    +0.000 C 
ATOM     35  F   UNL     1       4.724   7.077  15.425  0.00  0.00    +0.000 F 
ATOM     36  F   UNL     1       5.922   7.407  17.209  0.00  0.00    +0.000 F 
ATOM     37  F   UNL     1       6.463   5.831  15.813  0.00  0.00    +0.000 F 
ENDBRANCH  31  34
ENDBRANCH  22  24
ENDBRANCH  21  22
ENDBRANCH   2  21
TORSDOF 9
ENDMDL
MODEL 3
REMARK VINA RESULT:      -7.8      5.122      7.126
REMARK  Name = 
REMARK  11 active torsions:
REMARK  status: ('A' for Active; 'I' for Inactive)
REMARK    1  A    between atoms: C_1  and  C_2
REMARK    2  A    between atoms: C_2  and  C_3
REMARK    3  A    between atoms: C_2  and  C_4
REMARK    4  A    between atoms: C_4  and  O_5
REMARK    5  A    between atoms: C_4  and  C_6
REMARK    6  A    between atoms: C_9  and  N_10
REMARK    7  A    between atoms: C_12  and  N_13
REMARK    8  A    between atoms: C_14  and  C_16
REMARK    9  A    between atoms: C_16  and  N_17
REMARK   10  A    between atoms: N_17  and  C_18
REMARK   11  A    between atoms: C_25  and  C_26
REMARK                            x       y       z     vdW  Elec       q    Type
REMARK                         _______ _______ _______ _____ _____    ______ ____
ROOT
ATOM      1  N   UNL     1       0.236  10.086  20.958  0.00  0.00    +0.000 N 
ATOM      2  C   UNL     1       1.054   9.001  21.210  0.00  0.00    +0.000 C 
ATOM      3  O   UNL     1       1.692   8.860  22.254  0.00  0.00    +0.000 OA
ATOM      4  H   UNL     1      -0.025  10.251  19.992  0.00  0.00    +0.000 HD
ENDROOT
BRANCH   1   7
ATOM      5  N   UNL     1      -1.825  12.127  21.938  0.00  0.00    +0.000 NA
ATOM      6  C   UNL     1      -0.490  12.517  21.424  0.00  0.00    +0.000 C 
ATOM      7  C   UNL     1       0.094  11.185  21.949  0.00  0.00    +0.000 C 
ATOM      8  C   UNL     1      -1.167  11.140  22.837  0.00  0.00    +0.000 C 
BRANCH   5  12
ATOM      9  C   UNL     1      -5.040  13.919  21.321  0.00  0.00    +0.000 C 
ATOM     10  C   UNL     1      -4.908  12.631  22.160  0.00  0.00    +0.000 C 
ATOM     11  C   UNL     1      -3.843  12.706  23.260  0.00  0.00    +0.000 C 
ATOM     12  C   UNL     1      -2.459  13.175  22.766  0.00  0.00    +0.000 C 
ATOM     13  C   UNL     1      -2.647  14.509  22.026  0.00  0.00    +0.000 C 
ATOM     14  C   UNL     1      -3.661  14.447  20.889  0.00  0.00    +0.000 C 
BRANCH   9  15
ATOM     15  C   UNL     1      -5.985  13.670  20.105  0.00  0.00    +0.000 C 
BRANCH  15  17
ATOM     16  C   UNL     1      -7.372  11.920  18.886  0.00  0.00    +0.000 C 
ATOM     17  C   UNL     1      -6.009  12.231  19.522  0.00  0.00    +0.000 C 
ATOM     18  C   UNL     1      -4.915  11.962  18.486  0.00  0.00    +0.000 C 
ENDBRANCH  15  17
BRANCH  15  19
ATOM     19  O   UNL     1      -5.671  14.603  19.068  0.00  0.00    +0.000 OA
ATOM     20  H   UNL     1      -6.211  14.383  18.292  0.00  0.00    +0.000 HD
ENDBRANCH  15  19
ENDBRANCH   9  15
ENDBRANCH   5  12
ENDBRANCH   1   7
BRANCH   2  21
ATOM     21  C   UNL     1       1.208   8.008  20.063  0.00  0.00    +0.000 C 
BRANCH  21  22
ATOM     22  N   UNL     1       2.348   7.150  20.391  0.00  0.00    +0.000 N 
ATOM     23  H   UNL     1       2.563   7.229  21.386  0.00  0.00    +0.000 HD
BRANCH  22  24
ATOM     24  C   UNL     1       2.196   5.798  20.044  0.00  0.00    +0.000 A 
ATOM     25  N   UNL     1       1.302   5.058  20.720  0.00  0.00    +0.000 NA
ATOM     26  C   UNL     1       1.167   3.785  20.339  0.00  0.00    +0.000 A 
ATOM     27  N   UNL     1       1.816   3.187  19.335  0.00  0.00    +0.000 NA
ATOM     28  C   UNL     1       2.683   3.939  18.652  0.00  0.00    +0.000 A 
ATOM     29  C   UNL     1       3.350   3.372  17.573  0.00  0.00    +0.000 A 
ATOM     30  C   UNL     1       4.256   4.100  16.794  0.00  0.00    +0.000 A 
ATOM     31  C   UNL     1       4.532   5.437  17.090  0.00  0.00    +0.000 A 
ATOM     32  C   UNL     1       3.873   6.019  18.186  0.00  0.00    +0.000 A 
ATOM     33  C   UNL     1       2.938   5.280  18.966  0.00  0.00    +0.000 A 
BRANCH  31  34
ATOM     34  C   UNL     1       5.480   6.261  16.260  0.00  0.00    +0.000 C 
ATOM     35  F   UNL     1       6.208   7.148  16.994  0.00  0.00    +0.000 F 
ATOM     36  F   UNL     1       6.384   5.498  15.588  0.00  0.00    +0.000 F 
ATOM     37  F   UNL     1       4.834   6.997  15.315  0.00  0.00    +0.000 F 
ENDBRANCH  31  34
ENDBRANCH  22  24
ENDBRANCH  21  22
ENDBRANCH   2  21
TORSDOF 9
ENDMDL
MODEL 4
REMARK VINA RESULT:      -7.8      1.494      1.991
REMARK  Name = 
REMARK  11 active torsions:
REMARK  status: ('A' for Active; 'I' for Inactive)
REMARK    1  A    between atoms: C_1  and  C_2
REMARK    2  A    between atoms: C_2  and  C_3
REMARK    3  A    between atoms: C_2  and  C_4
REMARK    4  A    between atoms: C_4  and  O_5
REMARK    5  A    between atoms: C_4  and  C_6
REMARK    6  A    between atoms: C_9  and  N_10
REMARK    7  A    between atoms: C_12  and  N_13
REMARK    8  A    between atoms: C_14  and  C_16
REMARK    9  A    between atoms: C_16  and  N_17
REMARK   10  A    between atoms: N_17  and  C_18
REMARK   11  A    between atoms: C_25  and  C_26
REMARK                            x       y       z     vdW  Elec       q    Type
REMARK                         _______ _______ _______ _____ _____    ______ ____
ROOT
ATOM      1  N   UNL     1       0.938   9.934  18.443  0.00  0.00    +0.000 N 
ATOM      2  C   UNL     1       1.666   8.789  18.703  0.00  0.00    +0.000 C 
ATOM      3  O   UNL     1       1.663   8.215  19.792  0.00  0.00    +0.000 OA
ATOM      4  H   UNL     1       1.208  10.476  17.630  0.00  0.00    +0.000 HD
ENDROOT
BRANCH   1   7
ATOM      5  N   UNL     1       0.486  12.656  19.771  0.00  0.00    +0.000 NA
ATOM      6  C   UNL     1       0.855  11.440  20.536  0.00  0.00    +0.000 C 
ATOM      7  C   UNL     1       0.107  10.569  19.500  0.00  0.00    +0.000 C 
ATOM      8  C   UNL     1      -0.601  11.883  19.109  0.00  0.00    +0.000 C 
BRANCH   5  12
ATOM      9  C   UNL     1       1.419  16.262  19.979  0.00  0.00    +0.000 C 
ATOM     10  C   UNL     1       0.343  15.695  19.030  0.00  0.00    +0.000 C 
ATOM     11  C   UNL     1      -0.712  14.827  19.726  0.00  0.00    +0.000 C 
ATOM     12  C   UNL     1      -0.124  13.708  20.610  0.00  0.00    +0.000 C 
ATOM     13  C   UNL     1       0.862  14.353  21.596  0.00  0.00    +0.000 C 
ATOM     14  C   UNL     1       1.958  15.176  20.926  0.00  0.00    +0.000 C 
BRANCH   9  15
ATOM     15  C   UNL     1       2.554  16.942  19.153  0.00  0.00    +0.000 C 
BRANCH  15  17
ATOM     16  C   UNL     1       3.867  15.418  17.597  0.00  0.00    +0.000 C 
ATOM     17  C   UNL     1       3.861  16.128  18.959  0.00  0.00    +0.000 C 
ATOM     18  C   UNL     1       5.138  16.963  19.079  0.00  0.00    +0.000 C 
ENDBRANCH  15  17
BRANCH  15  19
ATOM     19  O   UNL     1       2.862  18.212  19.736  0.00  0.00    +0.000 OA
ATOM     20  H   UNL     1       3.536  18.640  19.184  0.00  0.00    +0.000 HD
ENDBRANCH  15  19
ENDBRANCH   9  15
ENDBRANCH   5  12
ENDBRANCH   1   7
BRANCH   2  21
ATOM     21  C   UNL     1       2.572   8.311  17.574  0.00  0.00    +0.000 C 
BRANCH  21  22
ATOM     22  N   UNL     1       3.633   7.509  18.187  0.00  0.00    +0.000 N 
ATOM     23  H   UNL     1       3.333   7.189  19.109  0.00  0.00    +0.000 HD
BRANCH  22  24
ATOM     24  C   UNL     1       4.069   6.414  17.424  0.00  0.00    +0.000 A 
ATOM     25  N   UNL     1       5.026   6.613  16.504  0.00  0.00    +0.000 NA
ATOM     26  C   UNL     1       5.435   5.540  15.821  0.00  0.00    +0.000 A 
ATOM     27  N   UNL     1       5.000   4.286  15.984  0.00  0.00    +0.000 NA
ATOM     28  C   UNL     1       4.068   4.094  16.922  0.00  0.00    +0.000 A 
ATOM     29  C   UNL     1       3.618   2.802  17.158  0.00  0.00    +0.000 A 
ATOM     30  C   UNL     1       2.660   2.515  18.137  0.00  0.00    +0.000 A 
ATOM     31  C   UNL     1       2.109   3.540  18.911  0.00  0.00    +0.000 A 
ATOM     32  C   UNL     1       2.548   4.853  18.675  0.00  0.00    +0.000 A 
ATOM     33  C   UNL     1       3.536   5.138  17.689  0.00  0.00    +0.000 A 
BRANCH  31  34
ATOM     34  C   UNL     1       1.097   3.269  19.993  0.00  0.00    +0.000 C 
ATOM     35  F   UNL     1       0.560   4.403  20.524  0.00  0.00    +0.000 F 
ATOM     36  F   UNL     1       0.046   2.528  19.550  0.00  0.00    +0.000 F 
ATOM     37  F   UNL     1       1.628   2.580  21.038  0.00  0.00    +0.000 F 
ENDBRANCH  31  34
ENDBRANCH  22  24
ENDBRANCH  21  22
ENDBRANCH   2  21
TORSDOF 9
ENDMDL
MODEL 5
REMARK VINA RESULT:      -7.8      5.031      7.390
REMARK  Name = 
REMARK  11 active torsions:
REMARK  status: ('A' for Active; 'I' for Inactive)
REMARK    1  A    between atoms: C_1  and  C_2
REMARK    2  A    between atoms: C_2  and  C_3
REMARK    3  A    between atoms: C_2  and  C_4
REMARK    4  A    between atoms: C_4  and  O_5
REMARK    5  A    between atoms: C_4  and  C_6
REMARK    6  A    between atoms: C_9  and  N_10
REMARK    7  A    between atoms: C_12  and  N_13
REMARK    8  A    between atoms: C_14  and  C_16
REMARK    9  A    between atoms: C_16  and  N_17
REMARK   10  A    between atoms: N_17  and  C_18
REMARK   11  A    between atoms: C_25  and  C_26
REMARK                            x       y       z     vdW  Elec       q    Type
REMARK                         _______ _______ _______ _____ _____    ______ ____
ROOT
ATOM      1  N   UNL     1       0.737  10.698  20.848  0.00  0.00    +0.000 N 
ATOM      2  C   UNL     1       1.015   9.705  19.928  0.00  0.00    +0.000 C 
ATOM      3  O   UNL     1       0.966   9.875  18.710  0.00  0.00    +0.000 OA
ATOM      4  H   UNL     1       0.539  10.402  21.798  0.00  0.00    +0.000 HD
ENDROOT
BRANCH   1   7
ATOM      5  N   UNL     1      -1.158  12.965  21.648  0.00  0.00    +0.000 NA
ATOM      6  C   UNL     1      -1.193  12.323  20.312  0.00  0.00    +0.000 C 
ATOM      7  C   UNL     1       0.327  12.057  20.407  0.00  0.00    +0.000 C 
ATOM      8  C   UNL     1       0.312  13.149  21.497  0.00  0.00    +0.000 C 
BRANCH   5  12
ATOM      9  C   UNL     1      -4.568  13.851  22.876  0.00  0.00    +0.000 C 
ATOM     10  C   UNL     1      -3.291  13.900  23.741  0.00  0.00    +0.000 C 
ATOM     11  C   UNL     1      -2.143  14.703  23.119  0.00  0.00    +0.000 C 
ATOM     12  C   UNL     1      -1.802  14.296  21.670  0.00  0.00    +0.000 C 
ATOM     13  C   UNL     1      -3.095  14.364  20.842  0.00  0.00    +0.000 C 
ATOM     14  C   UNL     1      -4.237  13.527  21.409  0.00  0.00    +0.000 C 
BRANCH   9  15
ATOM     15  C   UNL     1      -5.589  12.843  23.488  0.00  0.00    +0.000 C 
BRANCH  15  17
ATOM     16  C   UNL     1      -7.860  11.902  22.835  0.00  0.00    +0.000 C 
ATOM     17  C   UNL     1      -7.094  13.158  23.278  0.00  0.00    +0.000 C 
ATOM     18  C   UNL     1      -7.787  13.740  24.512  0.00  0.00    +0.000 C 
ENDBRANCH  15  17
BRANCH  15  19
ATOM     19  O   UNL     1      -5.321  12.695  24.885  0.00  0.00    +0.000 OA
ATOM     20  H   UNL     1      -5.382  11.751  25.105  0.00  0.00    +0.000 HD
ENDBRANCH  15  19
ENDBRANCH   9  15
ENDBRANCH   5  12
ENDBRANCH   1   7
BRANCH   2  21
ATOM     21  C   UNL     1       1.302   8.325  20.511  0.00  0.00    +0.000 C 
BRANCH  21  22
ATOM     22  N   UNL     1       2.178   7.635  19.563  0.00  0.00    +0.000 N 
ATOM     23  H   UNL     1       3.104   8.064  19.575  0.00  0.00    +0.000 HD
BRANCH  22  24
ATOM     24  C   UNL     1       2.296   6.249  19.759  0.00  0.00    +0.000 A 
ATOM     25  N   UNL     1       1.586   5.678  20.745  0.00  0.00    +0.000 NA
ATOM     26  C   UNL     1       1.703   4.354  20.879  0.00  0.00    +0.000 A 
ATOM     27  N   UNL     1       2.437   3.543  20.110  0.00  0.00    +0.000 NA
ATOM     28  C   UNL     1       3.118   4.118  19.115  0.00  0.00    +0.000 A 
ATOM     29  C   UNL     1       3.860   3.310  18.264  0.00  0.00    +0.000 A 
ATOM     30  C   UNL     1       4.582   3.833  17.185  0.00  0.00    +0.000 A 
ATOM     31  C   UNL     1       4.588   5.208  16.936  0.00  0.00    +0.000 A 
ATOM     32  C   UNL     1       3.850   6.037  17.796  0.00  0.00    +0.000 A 
ATOM     33  C   UNL     1       3.102   5.499  18.882  0.00  0.00    +0.000 A 
BRANCH  31  34
ATOM     34  C   UNL     1       5.330   5.806  15.770  0.00  0.00    +0.000 C 
ATOM     35  F   UNL     1       4.871   7.038  15.413  0.00  0.00    +0.000 F 
ATOM     36  F   UNL     1       6.659   5.959  16.019  0.00  0.00    +0.000 F 
ATOM     37  F   UNL     1       5.245   5.035  14.652  0.00  0.00    +0.000 F 
ENDBRANCH  31  34
ENDBRANCH  22  24
ENDBRANCH  21  22
ENDBRANCH   2  21
TORSDOF 9
ENDMDL
MODEL 6
REMARK VINA RESULT:      -7.7      4.986      7.196
REMARK  Name = 
REMARK  11 active torsions:
REMARK  status: ('A' for Active; 'I' for Inactive)
REMARK    1  A    between atoms: C_1  and  C_2
REMARK    2  A    between atoms: C_2  and  C_3
REMARK    3  A    between atoms: C_2  and  C_4
REMARK    4  A    between atoms: C_4  and  O_5
REMARK    5  A    between atoms: C_4  and  C_6
REMARK    6  A    between atoms: C_9  and  N_10
REMARK    7  A    between atoms: C_12  and  N_13
REMARK    8  A    between atoms: C_14  and  C_16
REMARK    9  A    between atoms: C_16  and  N_17
REMARK   10  A    between atoms: N_17  and  C_18
REMARK   11  A    between atoms: C_25  and  C_26
REMARK                            x       y       z     vdW  Elec       q    Type
REMARK                         _______ _______ _______ _____ _____    ______ ____
ROOT
ATOM      1  N   UNL     1       0.679   9.153  20.944  0.00  0.00    +0.000 N 
ATOM      2  C   UNL     1       1.325   8.139  20.264  0.00  0.00    +0.000 C 
ATOM      3  O   UNL     1       1.938   8.311  19.210  0.00  0.00    +0.000 OA
ATOM      4  H   UNL     1      -0.011   8.878  21.635  0.00  0.00    +0.000 HD
ENDROOT
BRANCH   1   7
ATOM      5  N   UNL     1      -0.966  11.730  21.122  0.00  0.00    +0.000 NA
ATOM      6  C   UNL     1      -0.675  11.049  19.837  0.00  0.00    +0.000 C 
ATOM      7  C   UNL     1       0.666  10.543  20.415  0.00  0.00    +0.000 C 
ATOM      8  C   UNL     1       0.483  11.665  21.459  0.00  0.00    +0.000 C 
BRANCH   5  12
ATOM      9  C   UNL     1      -3.973  13.473  22.479  0.00  0.00    +0.000 C 
ATOM     10  C   UNL     1      -2.607  13.407  23.195  0.00  0.00    +0.000 C 
ATOM     11  C   UNL     1      -1.423  13.849  22.327  0.00  0.00    +0.000 C 
ATOM     12  C   UNL     1      -1.351  13.147  20.955  0.00  0.00    +0.000 C 
ATOM     13  C   UNL     1      -2.706  13.335  20.255  0.00  0.00    +0.000 C 
ATOM     14  C   UNL     1      -3.898  12.850  21.074  0.00  0.00    +0.000 C 
BRANCH   9  15
ATOM     15  C   UNL     1      -5.071  12.806  23.363  0.00  0.00    +0.000 C 
BRANCH  15  17
ATOM     16  C   UNL     1      -6.259  15.045  23.144  0.00  0.00    +0.000 C 
ATOM     17  C   UNL     1      -6.158  13.743  23.954  0.00  0.00    +0.000 C 
ATOM     18  C   UNL     1      -7.549  13.110  24.033  0.00  0.00    +0.000 C 
ENDBRANCH  15  17
BRANCH  15  19
ATOM     19  O   UNL     1      -4.442  12.075  24.420  0.00  0.00    +0.000 OA
ATOM     20  H   UNL     1      -4.090  11.251  24.047  0.00  0.00    +0.000 HD
ENDBRANCH  15  19
ENDBRANCH   9  15
ENDBRANCH   5  12
ENDBRANCH   1   7
BRANCH   2  21
ATOM     21  C   UNL     1       1.157   6.740  20.847  0.00  0.00    +0.000 C 
BRANCH  21  22
ATOM     22  N   UNL     1       2.459   6.077  20.747  0.00  0.00    +0.000 N 
ATOM     23  H   UNL     1       2.883   6.011  21.673  0.00  0.00    +0.000 HD
BRANCH  22  24
ATOM     24  C   UNL     1       2.437   4.809  20.144  0.00  0.00    +0.000 A 
ATOM     25  N   UNL     1       1.656   3.857  20.679  0.00  0.00    +0.000 NA
ATOM     26  C   UNL     1       1.641   2.674  20.057  0.00  0.00    +0.000 A 
ATOM     27  N   UNL     1       2.307   2.358  18.942  0.00  0.00    +0.000 NA
ATOM     28  C   UNL     1       3.060   3.321  18.403  0.00  0.00    +0.000 A 
ATOM     29  C   UNL     1       3.736   3.053  17.220  0.00  0.00    +0.000 A 
ATOM     30  C   UNL     1       4.526   4.015  16.581  0.00  0.00    +0.000 A 
ATOM     31  C   UNL     1       4.671   5.291  17.129  0.00  0.00    +0.000 A 
ATOM     32  C   UNL     1       4.000   5.573  18.331  0.00  0.00    +0.000 A 
ATOM     33  C   UNL     1       3.183   4.596  18.969  0.00  0.00    +0.000 A 
BRANCH  31  34
ATOM     34  C   UNL     1       5.489   6.362  16.457  0.00  0.00    +0.000 C 
ATOM     35  F   UNL     1       5.779   7.412  17.276  0.00  0.00    +0.000 F 
ATOM     36  F   UNL     1       6.685   5.898  16.005  0.00  0.00    +0.000 F 
ATOM     37  F   UNL     1       4.859   6.893  15.375  0.00  0.00    +0.000 F 
ENDBRANCH  31  34
ENDBRANCH  22  24
ENDBRANCH  21  22
ENDBRANCH   2  21
TORSDOF 9
ENDMDL
MODEL 7
REMARK VINA RESULT:      -7.7      4.994      7.437
REMARK  Name = 
REMARK  11 active torsions:
REMARK  status: ('A' for Active; 'I' for Inactive)
REMARK    1  A    between atoms: C_1  and  C_2
REMARK    2  A    between atoms: C_2  and  C_3
REMARK    3  A    between atoms: C_2  and  C_4
REMARK    4  A    between atoms: C_4  and  O_5
REMARK    5  A    between atoms: C_4  and  C_6
REMARK    6  A    between atoms: C_9  and  N_10
REMARK    7  A    between atoms: C_12  and  N_13
REMARK    8  A    between atoms: C_14  and  C_16
REMARK    9  A    between atoms: C_16  and  N_17
REMARK   10  A    between atoms: N_17  and  C_18
REMARK   11  A    between atoms: C_25  and  C_26
REMARK                            x       y       z     vdW  Elec       q    Type
REMARK                         _______ _______ _______ _____ _____    ______ ____
ROOT
ATOM      1  N   UNL     1       0.412   9.537  20.463  0.00  0.00    +0.000 N 
ATOM      2  C   UNL     1       1.170   8.887  21.418  0.00  0.00    +0.000 C 
ATOM      3  O   UNL     1       1.890   9.473  22.227  0.00  0.00    +0.000 OA
ATOM      4  H   UNL     1       0.075   8.979  19.686  0.00  0.00    +0.000 HD
ENDROOT
BRANCH   1   7
ATOM      5  N   UNL     1      -1.237  12.001  21.226  0.00  0.00    +0.000 NA
ATOM      6  C   UNL     1      -0.852  11.693  19.827  0.00  0.00    +0.000 C 
ATOM      7  C   UNL     1       0.441  11.018  20.339  0.00  0.00    +0.000 C 
ATOM      8  C   UNL     1       0.182  11.813  21.635  0.00  0.00    +0.000 C 
BRANCH   5  12
ATOM      9  C   UNL     1      -4.332  13.371  22.797  0.00  0.00    +0.000 C 
ATOM     10  C   UNL     1      -3.022  13.082  23.561  0.00  0.00    +0.000 C 
ATOM     11  C   UNL     1      -1.777  13.718  22.933  0.00  0.00    +0.000 C 
ATOM     12  C   UNL     1      -1.606  13.418  21.429  0.00  0.00    +0.000 C 
ATOM     13  C   UNL     1      -2.906  13.821  20.715  0.00  0.00    +0.000 C 
ATOM     14  C   UNL     1      -4.155  13.156  21.284  0.00  0.00    +0.000 C 
BRANCH   9  15
ATOM     15  C   UNL     1      -5.493  12.512  23.385  0.00  0.00    +0.000 C 
BRANCH  15  17
ATOM     16  C   UNL     1      -7.915  11.909  22.893  0.00  0.00    +0.000 C 
ATOM     17  C   UNL     1      -6.934  13.054  23.186  0.00  0.00    +0.000 C 
ATOM     18  C   UNL     1      -7.465  13.859  24.374  0.00  0.00    +0.000 C 
ENDBRANCH  15  17
BRANCH  15  19
ATOM     19  O   UNL     1      -5.252  12.288  24.777  0.00  0.00    +0.000 OA
ATOM     20  H   UNL     1      -6.071  12.489  25.260  0.00  0.00    +0.000 HD
ENDBRANCH  15  19
ENDBRANCH   9  15
ENDBRANCH   5  12
ENDBRANCH   1   7
BRANCH   2  21
ATOM     21  C   UNL     1       1.146   7.364  21.359  0.00  0.00    +0.000 C 
BRANCH  21  22
ATOM     22  N   UNL     1       2.112   6.960  20.335  0.00  0.00    +0.000 N 
ATOM     23  H   UNL     1       3.042   7.294  20.590  0.00  0.00    +0.000 HD
BRANCH  22  24
ATOM     24  C   UNL     1       2.159   5.582  20.070  0.00  0.00    +0.000 A 
ATOM     25  N   UNL     1       1.429   4.756  20.836  0.00  0.00    +0.000 NA
ATOM     26  C   UNL     1       1.478   3.455  20.531  0.00  0.00    +0.000 A 
ATOM     27  N   UNL     1       2.162   2.905  19.523  0.00  0.00    +0.000 NA
ATOM     28  C   UNL     1       2.863   3.739  18.750  0.00  0.00    +0.000 A 
ATOM     29  C   UNL     1       3.554   3.218  17.664  0.00  0.00    +0.000 A 
ATOM     30  C   UNL     1       4.293   4.029  16.795  0.00  0.00    +0.000 A 
ATOM     31  C   UNL     1       4.368   5.408  17.003  0.00  0.00    +0.000 A 
ATOM     32  C   UNL     1       3.682   5.947  18.104  0.00  0.00    +0.000 A 
ATOM     33  C   UNL     1       2.917   5.120  18.977  0.00  0.00    +0.000 A 
BRANCH  31  34
ATOM     34  C   UNL     1       5.129   6.317  16.075  0.00  0.00    +0.000 C 
ATOM     35  F   UNL     1       6.299   6.772  16.605  0.00  0.00    +0.000 F 
ATOM     36  F   UNL     1       5.459   5.709  14.904  0.00  0.00    +0.000 F 
ATOM     37  F   UNL     1       4.416   7.424  15.735  0.00  0.00    +0.000 F 
ENDBRANCH  31  34
ENDBRANCH  22  24
ENDBRANCH  21  22
ENDBRANCH   2  21
TORSDOF 9
ENDMDL
MODEL 8
REMARK VINA RESULT:      -7.7      5.056      7.139
REMARK  Name = 
REMARK  11 active torsions:
REMARK  status: ('A' for Active; 'I' for Inactive)
REMARK    1  A    between atoms: C_1  and  C_2
REMARK    2  A    between atoms: C_2  and  C_3
REMARK    3  A    between atoms: C_2  and  C_4
REMARK    4  A    between atoms: C_4  and  O_5
REMARK    5  A    between atoms: C_4  and  C_6
REMARK    6  A    between atoms: C_9  and  N_10
REMARK    7  A    between atoms: C_12  and  N_13
REMARK    8  A    between atoms: C_14  and  C_16
REMARK    9  A    between atoms: C_16  and  N_17
REMARK   10  A    between atoms: N_17  and  C_18
REMARK   11  A    between atoms: C_25  and  C_26
REMARK                            x       y       z     vdW  Elec       q    Type
REMARK                         _______ _______ _______ _____ _____    ______ ____
ROOT
ATOM      1  N   UNL     1       1.036   8.478  21.414  0.00  0.00    +0.000 N 
ATOM      2  C   UNL     1       1.661   7.551  20.603  0.00  0.00    +0.000 C 
ATOM      3  O   UNL     1       2.390   7.857  19.659  0.00  0.00    +0.000 OA
ATOM      4  H   UNL     1       0.259   8.148  21.977  0.00  0.00    +0.000 HD
ENDROOT
BRANCH   1   7
ATOM      5  N   UNL     1      -0.516  10.860  20.277  0.00  0.00    +0.000 NA
ATOM      6  C   UNL     1       0.813  10.447  19.763  0.00  0.00    +0.000 C 
ATOM      7  C   UNL     1       1.192   9.937  21.172  0.00  0.00    +0.000 C 
ATOM      8  C   UNL     1       0.035  10.834  21.660  0.00  0.00    +0.000 C 
BRANCH   5  12
ATOM      9  C   UNL     1      -3.529  12.095  18.455  0.00  0.00    +0.000 C 
ATOM     10  C   UNL     1      -3.430  11.970  19.990  0.00  0.00    +0.000 C 
ATOM     11  C   UNL     1      -2.199  12.654  20.596  0.00  0.00    +0.000 C 
ATOM     12  C   UNL     1      -0.865  12.255  19.932  0.00  0.00    +0.000 C 
ATOM     13  C   UNL     1      -0.997  12.496  18.421  0.00  0.00    +0.000 C 
ATOM     14  C   UNL     1      -2.182  11.780  17.781  0.00  0.00    +0.000 C 
BRANCH   9  15
ATOM     15  C   UNL     1      -4.683  11.193  17.920  0.00  0.00    +0.000 C 
BRANCH  15  17
ATOM     16  C   UNL     1      -7.034  12.163  17.852  0.00  0.00    +0.000 C 
ATOM     17  C   UNL     1      -6.048  11.297  18.651  0.00  0.00    +0.000 C 
ATOM     18  C   UNL     1      -6.707   9.945  18.935  0.00  0.00    +0.000 C 
ENDBRANCH  15  17
BRANCH  15  19
ATOM     19  O   UNL     1      -4.247   9.831  17.909  0.00  0.00    +0.000 OA
ATOM     20  H   UNL     1      -4.963   9.289  17.538  0.00  0.00    +0.000 HD
ENDBRANCH  15  19
ENDBRANCH   9  15
ENDBRANCH   5  12
ENDBRANCH   1   7
BRANCH   2  21
ATOM     21  C   UNL     1       1.319   6.091  20.881  0.00  0.00    +0.000 C 
BRANCH  21  22
ATOM     22  N   UNL     1       2.544   5.318  20.669  0.00  0.00    +0.000 N 
ATOM     23  H   UNL     1       2.780   4.806  21.521  0.00  0.00    +0.000 HD
BRANCH  22  24
ATOM     24  C   UNL     1       2.511   4.434  19.579  0.00  0.00    +0.000 A 
ATOM     25  N   UNL     1       1.483   3.575  19.480  0.00  0.00    +0.000 NA
ATOM     26  C   UNL     1       1.473   2.772  18.412  0.00  0.00    +0.000 A 
ATOM     27  N   UNL     1       2.372   2.761  17.423  0.00  0.00    +0.000 NA
ATOM     28  C   UNL     1       3.376   3.638  17.517  0.00  0.00    +0.000 A 
ATOM     29  C   UNL     1       4.310   3.693  16.492  0.00  0.00    +0.000 A 
ATOM     30  C   UNL     1       5.377   4.598  16.505  0.00  0.00    +0.000 A 
ATOM     31  C   UNL     1       5.544   5.481  17.575  0.00  0.00    +0.000 A 
ATOM     32  C   UNL     1       4.612   5.429  18.624  0.00  0.00    +0.000 A 
ATOM     33  C   UNL     1       3.517   4.517  18.598  0.00  0.00    +0.000 A 
BRANCH  31  34
ATOM     34  C   UNL     1       6.662   6.489  17.614  0.00  0.00    +0.000 C 
ATOM     35  F   UNL     1       6.231   7.777  17.514  0.00  0.00    +0.000 F 
ATOM     36  F   UNL     1       7.384   6.423  18.765  0.00  0.00    +0.000 F 
ATOM     37  F   UNL     1       7.553   6.312  16.601  0.00  0.00    +0.000 F 
ENDBRANCH  31  34
ENDBRANCH  22  24
ENDBRANCH  21  22
ENDBRANCH   2  21
TORSDOF 9
ENDMDL
MODEL 9
REMARK VINA RESULT:      -7.6      4.503      6.527
REMARK  Name = 
REMARK  11 active torsions:
REMARK  status: ('A' for Active; 'I' for Inactive)
REMARK    1  A    between atoms: C_1  and  C_2
REMARK    2  A    between atoms: C_2  and  C_3
REMARK    3  A    between atoms: C_2  and  C_4
REMARK    4  A    between atoms: C_4  and  O_5
REMARK    5  A    between atoms: C_4  and  C_6
REMARK    6  A    between atoms: C_9  and  N_10
REMARK    7  A    between atoms: C_12  and  N_13
REMARK    8  A    between atoms: C_14  and  C_16
REMARK    9  A    between atoms: C_16  and  N_17
REMARK   10  A    between atoms: N_17  and  C_18
REMARK   11  A    between atoms: C_25  and  C_26
REMARK                            x       y       z     vdW  Elec       q    Type
REMARK                         _______ _______ _______ _____ _____    ______ ____
ROOT
ATOM      1  N   UNL     1       1.228  10.538  20.602  0.00  0.00    +0.000 N 
ATOM      2  C   UNL     1       1.128   9.396  19.832  0.00  0.00    +0.000 C 
ATOM      3  O   UNL     1       0.876   9.409  18.627  0.00  0.00    +0.000 OA
ATOM      4  H   UNL     1       1.167  10.423  21.608  0.00  0.00    +0.000 HD
ENDROOT
BRANCH   1   7
ATOM      5  N   UNL     1      -0.047  13.237  21.284  0.00  0.00    +0.000 NA
ATOM      6  C   UNL     1      -0.431  12.446  20.090  0.00  0.00    +0.000 C 
ATOM      7  C   UNL     1       1.007  11.884  20.008  0.00  0.00    +0.000 C 
ATOM      8  C   UNL     1       1.383  13.088  20.896  0.00  0.00    +0.000 C 
BRANCH   5  12
ATOM      9  C   UNL     1      -2.644  15.083  23.227  0.00  0.00    +0.000 C 
ATOM     10  C   UNL     1      -1.158  14.984  23.634  0.00  0.00    +0.000 C 
ATOM     11  C   UNL     1      -0.177  15.381  22.525  0.00  0.00    +0.000 C 
ATOM     12  C   UNL     1      -0.421  14.664  21.181  0.00  0.00    +0.000 C 
ATOM     13  C   UNL     1      -1.889  14.885  20.785  0.00  0.00    +0.000 C 
ATOM     14  C   UNL     1      -2.889  14.445  21.849  0.00  0.00    +0.000 C 
BRANCH   9  15
ATOM     15  C   UNL     1      -3.544  14.458  24.337  0.00  0.00    +0.000 C 
BRANCH  15  17
ATOM     16  C   UNL     1      -4.734  12.256  24.787  0.00  0.00    +0.000 C 
ATOM     17  C   UNL     1      -4.657  13.484  23.868  0.00  0.00    +0.000 C 
ATOM     18  C   UNL     1      -6.047  14.121  23.789  0.00  0.00    +0.000 C 
ENDBRANCH  15  17
BRANCH  15  19
ATOM     19  O   UNL     1      -4.121  15.508  25.118  0.00  0.00    +0.000 OA
ATOM     20  H   UNL     1      -4.091  16.325  24.594  0.00  0.00    +0.000 HD
ENDBRANCH  15  19
ENDBRANCH   9  15
ENDBRANCH   5  12
ENDBRANCH   1   7
BRANCH   2  21
ATOM     21  C   UNL     1       1.255   8.076  20.587  0.00  0.00    +0.000 C 
BRANCH  21  22
ATOM     22  N   UNL     1       2.420   7.380  20.038  0.00  0.00    +0.000 N 
ATOM     23  H   UNL     1       3.244   7.592  20.600  0.00  0.00    +0.000 HD
BRANCH  22  24
ATOM     24  C   UNL     1       2.278   5.989  19.911  0.00  0.00    +0.000 A 
ATOM     25  N   UNL     1       1.451   5.348  20.753  0.00  0.00    +0.000 NA
ATOM     26  C   UNL     1       1.321   4.030  20.579  0.00  0.00    +0.000 A 
ATOM     27  N   UNL     1       1.914   3.295  19.633  0.00  0.00    +0.000 NA
ATOM     28  C   UNL     1       2.713   3.947  18.783  0.00  0.00    +0.000 A 
ATOM     29  C   UNL     1       3.317   3.232  17.757  0.00  0.00    +0.000 A 
ATOM     30  C   UNL     1       4.149   3.845  16.813  0.00  0.00    +0.000 A 
ATOM     31  C   UNL     1       4.411   5.215  16.884  0.00  0.00    +0.000 A 
ATOM     32  C   UNL     1       3.815   5.948  17.923  0.00  0.00    +0.000 A 
ATOM     33  C   UNL     1       2.955   5.323  18.872  0.00  0.00    +0.000 A 
BRANCH  31  34
ATOM     34  C   UNL     1       5.278   5.917  15.872  0.00  0.00    +0.000 C 
ATOM     35  F   UNL     1       4.775   7.117  15.471  0.00  0.00    +0.000 F 
ATOM     36  F   UNL     1       6.528   6.173  16.344  0.00  0.00    +0.000 F 
ATOM     37  F   UNL     1       5.448   5.184  14.739  0.00  0.00    +0.000 F 
ENDBRANCH  31  34
ENDBRANCH  22  24
ENDBRANCH  21  22
ENDBRANCH   2  21
TORSDOF 9
ENDMDL
