MODEL 1
REMARK VINA RESULT:      -8.9      0.000      0.000
REMARK  Name = 
REMARK  8 active torsions:
REMARK  status: ('A' for Active; 'I' for Inactive)
REMARK    1  A    between atoms: C_1  and  C_2
REMARK    2  A    between atoms: C_5  and  C_6
REMARK    3  A    between atoms: N_7  and  O_8
REMARK    4  A    between atoms: N_9  and  C_10
REMARK    5  A    between atoms: C_10  and  C_11
REMARK    6  A    between atoms: C_17  and  O_18
REMARK    7  A    between atoms: O_18  and  C_19
REMARK    8  A    between atoms: C_19  and  C_20
REMARK                            x       y       z     vdW  Elec       q    Type
REMARK                         _______ _______ _______ _____ _____    ______ ____
ROOT
ATOM      1  C   UNL     1       8.281   9.329  17.763  0.00  0.00    +0.000 C 
ATOM      2  C   UNL     1       7.609   8.004  17.914  0.00  0.00    +0.000 A 
ATOM      3  C   UNL     1       8.199   6.937  18.555  0.00  0.00    +0.000 A 
ATOM      4  C   UNL     1       7.482   5.749  18.634  0.00  0.00    +0.000 A 
ATOM      5  C   UNL     1       6.223   5.609  18.022  0.00  0.00    +0.000 A 
ATOM      6  C   UNL     1       5.684   6.741  17.419  0.00  0.00    +0.000 A 
ATOM      7  N   UNL     1       6.378   7.913  17.380  0.00  0.00    +0.000 NA
ENDROOT
BRANCH   5   8
ATOM      8  C   UNL     1       5.611   4.250  18.055  0.00  0.00    +0.000 C 
ATOM      9  N   UNL     1       5.475   3.666  19.215  0.00  0.00    +0.000 NA
ATOM     10  N   UNL     1       5.272   3.599  16.874  0.00  0.00    +0.000 N 
ATOM     11  H   UNL     1       4.845   2.702  17.093  0.00  0.00    +0.000 HD
BRANCH   9  12
ATOM     12  O   UNL     1       4.953   2.368  19.071  0.00  0.00    +0.000 OA
ATOM     13  H   UNL     1       5.463   2.035  18.309  0.00  0.00    +0.000 HD
ENDBRANCH   9  12
BRANCH  10  14
ATOM     14  C   UNL     1       4.693   4.232  15.693  0.00  0.00    +0.000 C 
BRANCH  14  15
ATOM     15  C   UNL     1       5.652   4.239  14.513  0.00  0.00    +0.000 A 
ATOM     16  C   UNL     1       6.857   4.957  14.541  0.00  0.00    +0.000 A 
ATOM     17  C   UNL     1       7.718   4.956  13.440  0.00  0.00    +0.000 A 
ATOM     18  C   UNL     1       7.396   4.226  12.294  0.00  0.00    +0.000 A 
ATOM     19  C   UNL     1       6.214   3.489  12.258  0.00  0.00    +0.000 A 
ATOM     20  C   UNL     1       5.352   3.490  13.358  0.00  0.00    +0.000 A 
ENDBRANCH  14  15
ENDBRANCH  10  14
ENDBRANCH   5   8
BRANCH   6  21
ATOM     21  O   UNL     1       4.437   6.761  16.800  0.00  0.00    +0.000 OA
BRANCH  21  22
ATOM     22  C   UNL     1       3.444   7.173  17.760  0.00  0.00    +0.000 C 
BRANCH  22  23
ATOM     23  C   UNL     1       2.785   6.141  18.648  0.00  0.00    +0.000 A 
ATOM     24  C   UNL     1       2.694   6.223  20.037  0.00  0.00    +0.000 A 
ATOM     25  C   UNL     1       1.970   5.253  20.748  0.00  0.00    +0.000 A 
ATOM     26  C   UNL     1       1.328   4.208  20.079  0.00  0.00    +0.000 A 
ATOM     27  C   UNL     1       1.416   4.128  18.698  0.00  0.00    +0.000 A 
ATOM     28  F   UNL     1       0.789   3.144  18.042  0.00  0.00    +0.000 F 
ATOM     29  C   UNL     1       2.134   5.079  17.986  0.00  0.00    +0.000 A 
ENDBRANCH  22  23
ENDBRANCH  21  22
ENDBRANCH   6  21
TORSDOF 7
ENDMDL
MODEL 2
REMARK VINA RESULT:      -8.6      2.068      5.353
REMARK  Name = 
REMARK  8 active torsions:
REMARK  status: ('A' for Active; 'I' for Inactive)
REMARK    1  A    between atoms: C_1  and  C_2
REMARK    2  A    between atoms: C_5  and  C_6
REMARK    3  A    between atoms: N_7  and  O_8
REMARK    4  A    between atoms: N_9  and  C_10
REMARK    5  A    between atoms: C_10  and  C_11
REMARK    6  A    between atoms: C_17  and  O_18
REMARK    7  A    between atoms: O_18  and  C_19
REMARK    8  A    between atoms: C_19  and  C_20
REMARK                            x       y       z     vdW  Elec       q    Type
REMARK                         _______ _______ _______ _____ _____    ______ ____
ROOT
ATOM      1  C   UNL     1       6.148   3.361  12.470  0.00  0.00    +0.000 C 
ATOM      2  C   UNL     1       6.086   3.937  13.847  0.00  0.00    +0.000 A 
ATOM      3  C   UNL     1       7.121   4.660  14.400  0.00  0.00    +0.000 A 
ATOM      4  C   UNL     1       6.955   5.146  15.691  0.00  0.00    +0.000 A 
ATOM      5  C   UNL     1       5.802   4.857  16.443  0.00  0.00    +0.000 A 
ATOM      6  C   UNL     1       4.792   4.146  15.802  0.00  0.00    +0.000 A 
ATOM      7  N   UNL     1       4.947   3.706  14.522  0.00  0.00    +0.000 NA
ENDROOT
BRANCH   5   8
ATOM      8  C   UNL     1       5.795   5.315  17.862  0.00  0.00    +0.000 C 
ATOM      9  N   UNL     1       6.806   4.980  18.619  0.00  0.00    +0.000 NA
ATOM     10  N   UNL     1       4.705   6.008  18.375  0.00  0.00    +0.000 N 
ATOM     11  H   UNL     1       4.891   6.260  19.344  0.00  0.00    +0.000 HD
BRANCH   9  12
ATOM     12  O   UNL     1       6.616   5.421  19.941  0.00  0.00    +0.000 OA
ATOM     13  H   UNL     1       7.061   6.289  19.924  0.00  0.00    +0.000 HD
ENDBRANCH   9  12
BRANCH  10  14
ATOM     14  C   UNL     1       3.931   7.020  17.662  0.00  0.00    +0.000 C 
BRANCH  14  15
ATOM     15  C   UNL     1       2.865   7.655  18.541  0.00  0.00    +0.000 A 
ATOM     16  C   UNL     1       2.516   7.118  19.789  0.00  0.00    +0.000 A 
ATOM     17  C   UNL     1       1.526   7.713  20.575  0.00  0.00    +0.000 A 
ATOM     18  C   UNL     1       0.872   8.865  20.131  0.00  0.00    +0.000 A 
ATOM     19  C   UNL     1       1.221   9.424  18.904  0.00  0.00    +0.000 A 
ATOM     20  C   UNL     1       2.212   8.828  18.118  0.00  0.00    +0.000 A 
ENDBRANCH  14  15
ENDBRANCH  10  14
ENDBRANCH   5   8
BRANCH   6  21
ATOM     21  O   UNL     1       3.584   3.812  16.409  0.00  0.00    +0.000 OA
BRANCH  21  22
ATOM     22  C   UNL     1       3.802   2.712  17.314  0.00  0.00    +0.000 C 
BRANCH  22  23
ATOM     23  C   UNL     1       3.261   2.782  18.725  0.00  0.00    +0.000 A 
ATOM     24  C   UNL     1       3.928   2.324  19.860  0.00  0.00    +0.000 A 
ATOM     25  C   UNL     1       3.369   2.532  21.131  0.00  0.00    +0.000 A 
ATOM     26  C   UNL     1       2.153   3.205  21.275  0.00  0.00    +0.000 A 
ATOM     27  C   UNL     1       1.491   3.662  20.146  0.00  0.00    +0.000 A 
ATOM     28  F   UNL     1       0.335   4.327  20.269  0.00  0.00    +0.000 F 
ATOM     29  C   UNL     1       2.032   3.456  18.885  0.00  0.00    +0.000 A 
ENDBRANCH  22  23
ENDBRANCH  21  22
ENDBRANCH   6  21
TORSDOF 7
ENDMDL
MODEL 3
REMARK VINA RESULT:      -8.5      2.169      5.351
REMARK  Name = 
REMARK  8 active torsions:
REMARK  status: ('A' for Active; 'I' for Inactive)
REMARK    1  A    between atoms: C_1  and  C_2
REMARK    2  A    between atoms: C_5  and  C_6
REMARK    3  A    between atoms: N_7  and  O_8
REMARK    4  A    between atoms: N_9  and  C_10
REMARK    5  A    between atoms: C_10  and  C_11
REMARK    6  A    between atoms: C_17  and  O_18
REMARK    7  A    between atoms: O_18  and  C_19
REMARK    8  A    between atoms: C_19  and  C_20
REMARK                            x       y       z     vdW  Elec       q    Type
REMARK                         _______ _______ _______ _____ _____    ______ ____
ROOT
ATOM      1  C   UNL     1       6.309   3.432  12.397  0.00  0.00    +0.000 C 
ATOM      2  C   UNL     1       6.220   3.994  13.778  0.00  0.00    +0.000 A 
ATOM      3  C   UNL     1       7.273   4.635  14.392  0.00  0.00    +0.000 A 
ATOM      4  C   UNL     1       7.078   5.116  15.682  0.00  0.00    +0.000 A 
ATOM      5  C   UNL     1       5.872   4.900  16.372  0.00  0.00    +0.000 A 
ATOM      6  C   UNL     1       4.847   4.270  15.672  0.00  0.00    +0.000 A 
ATOM      7  N   UNL     1       5.034   3.836  14.394  0.00  0.00    +0.000 NA
ENDROOT
BRANCH   5   8
ATOM      8  C   UNL     1       5.827   5.340  17.796  0.00  0.00    +0.000 C 
ATOM      9  N   UNL     1       6.812   4.986  18.578  0.00  0.00    +0.000 NA
ATOM     10  N   UNL     1       4.728   6.035  18.286  0.00  0.00    +0.000 N 
ATOM     11  H   UNL     1       4.887   6.273  19.263  0.00  0.00    +0.000 HD
BRANCH   9  12
ATOM     12  O   UNL     1       6.586   5.413  19.900  0.00  0.00    +0.000 OA
ATOM     13  H   UNL     1       6.193   4.614  20.299  0.00  0.00    +0.000 HD
ENDBRANCH   9  12
BRANCH  10  14
ATOM     14  C   UNL     1       3.983   7.062  17.564  0.00  0.00    +0.000 C 
BRANCH  14  15
ATOM     15  C   UNL     1       2.899   7.698  18.421  0.00  0.00    +0.000 A 
ATOM     16  C   UNL     1       2.252   8.882  18.040  0.00  0.00    +0.000 A 
ATOM     17  C   UNL     1       1.266   9.454  18.848  0.00  0.00    +0.000 A 
ATOM     18  C   UNL     1       0.900   8.844  20.051  0.00  0.00    +0.000 A 
ATOM     19  C   UNL     1       1.517   7.655  20.434  0.00  0.00    +0.000 A 
ATOM     20  C   UNL     1       2.504   7.083  19.625  0.00  0.00    +0.000 A 
ENDBRANCH  14  15
ENDBRANCH  10  14
ENDBRANCH   5   8
BRANCH   6  21
ATOM     21  O   UNL     1       3.590   4.016  16.214  0.00  0.00    +0.000 OA
BRANCH  21  22
ATOM     22  C   UNL     1       3.725   3.053  17.277  0.00  0.00    +0.000 C 
BRANCH  22  23
ATOM     23  C   UNL     1       2.852   3.167  18.508  0.00  0.00    +0.000 A 
ATOM     24  C   UNL     1       1.524   3.593  18.509  0.00  0.00    +0.000 A 
ATOM     25  C   UNL     1       0.782   3.562  19.700  0.00  0.00    +0.000 A 
ATOM     26  C   UNL     1       1.356   3.099  20.887  0.00  0.00    +0.000 A 
ATOM     27  C   UNL     1       2.675   2.673  20.885  0.00  0.00    +0.000 A 
ATOM     28  F   UNL     1       3.231   2.208  22.010  0.00  0.00    +0.000 F 
ATOM     29  C   UNL     1       3.418   2.704  19.714  0.00  0.00    +0.000 A 
ENDBRANCH  22  23
ENDBRANCH  21  22
ENDBRANCH   6  21
TORSDOF 7
ENDMDL
MODEL 4
REMARK VINA RESULT:      -8.5      2.125      5.316
REMARK  Name = 
REMARK  8 active torsions:
REMARK  status: ('A' for Active; 'I' for Inactive)
REMARK    1  A    between atoms: C_1  and  C_2
REMARK    2  A    between atoms: C_5  and  C_6
REMARK    3  A    between atoms: N_7  and  O_8
REMARK    4  A    between atoms: N_9  and  C_10
REMARK    5  A    between atoms: C_10  and  C_11
REMARK    6  A    between atoms: C_17  and  O_18
REMARK    7  A    between atoms: O_18  and  C_19
REMARK    8  A    between atoms: C_19  and  C_20
REMARK                            x       y       z     vdW  Elec       q    Type
REMARK                         _______ _______ _______ _____ _____    ______ ____
ROOT
ATOM      1  C   UNL     1       6.373   3.374  12.440  0.00  0.00    +0.000 C 
ATOM      2  C   UNL     1       6.280   3.942  13.818  0.00  0.00    +0.000 A 
ATOM      3  C   UNL     1       6.940   5.090  14.197  0.00  0.00    +0.000 A 
ATOM      4  C   UNL     1       6.783   5.527  15.508  0.00  0.00    +0.000 A 
ATOM      5  C   UNL     1       6.033   4.791  16.443  0.00  0.00    +0.000 A 
ATOM      6  C   UNL     1       5.374   3.659  15.973  0.00  0.00    +0.000 A 
ATOM      7  N   UNL     1       5.502   3.259  14.677  0.00  0.00    +0.000 NA
ENDROOT
BRANCH   5   8
ATOM      8  C   UNL     1       6.049   5.282  17.850  0.00  0.00    +0.000 C 
ATOM      9  N   UNL     1       7.059   4.945  18.606  0.00  0.00    +0.000 NA
ATOM     10  N   UNL     1       4.977   6.009  18.356  0.00  0.00    +0.000 N 
ATOM     11  H   UNL     1       5.177   6.280  19.317  0.00  0.00    +0.000 HD
BRANCH   9  12
ATOM     12  O   UNL     1       6.890   5.422  19.919  0.00  0.00    +0.000 OA
ATOM     13  H   UNL     1       5.967   5.165  20.104  0.00  0.00    +0.000 HD
ENDBRANCH   9  12
BRANCH  10  14
ATOM     14  C   UNL     1       4.216   7.018  17.626  0.00  0.00    +0.000 C 
BRANCH  14  15
ATOM     15  C   UNL     1       3.075   7.590  18.454  0.00  0.00    +0.000 A 
ATOM     16  C   UNL     1       2.672   7.007  19.664  0.00  0.00    +0.000 A 
ATOM     17  C   UNL     1       1.614   7.544  20.402  0.00  0.00    +0.000 A 
ATOM     18  C   UNL     1       0.945   8.683  19.948  0.00  0.00    +0.000 A 
ATOM     19  C   UNL     1       1.346   9.287  18.759  0.00  0.00    +0.000 A 
ATOM     20  C   UNL     1       2.405   8.750  18.020  0.00  0.00    +0.000 A 
ENDBRANCH  14  15
ENDBRANCH  10  14
ENDBRANCH   5   8
BRANCH   6  21
ATOM     21  O   UNL     1       4.572   2.850  16.773  0.00  0.00    +0.000 OA
BRANCH  21  22
ATOM     22  C   UNL     1       3.292   3.488  16.952  0.00  0.00    +0.000 C 
BRANCH  22  23
ATOM     23  C   UNL     1       2.622   3.459  18.308  0.00  0.00    +0.000 A 
ATOM     24  C   UNL     1       1.294   3.809  18.550  0.00  0.00    +0.000 A 
ATOM     25  C   UNL     1       0.753   3.647  19.835  0.00  0.00    +0.000 A 
ATOM     26  C   UNL     1       1.526   3.127  20.876  0.00  0.00    +0.000 A 
ATOM     27  C   UNL     1       2.845   2.776  20.635  0.00  0.00    +0.000 A 
ATOM     28  F   UNL     1       3.592   2.257  21.617  0.00  0.00    +0.000 F 
ATOM     29  C   UNL     1       3.392   2.938  19.369  0.00  0.00    +0.000 A 
ENDBRANCH  22  23
ENDBRANCH  21  22
ENDBRANCH   6  21
TORSDOF 7
ENDMDL
MODEL 5
REMARK VINA RESULT:      -8.5      2.560      4.228
REMARK  Name = 
REMARK  8 active torsions:
REMARK  status: ('A' for Active; 'I' for Inactive)
REMARK    1  A    between atoms: C_1  and  C_2
REMARK    2  A    between atoms: C_5  and  C_6
REMARK    3  A    between atoms: N_7  and  O_8
REMARK    4  A    between atoms: N_9  and  C_10
REMARK    5  A    between atoms: C_10  and  C_11
REMARK    6  A    between atoms: C_17  and  O_18
REMARK    7  A    between atoms: O_18  and  C_19
REMARK    8  A    between atoms: C_19  and  C_20
REMARK                            x       y       z     vdW  Elec       q    Type
REMARK                         _______ _______ _______ _____ _____    ______ ____
ROOT
ATOM      1  C   UNL     1       0.888   3.144  20.815  0.00  0.00    +0.000 C 
ATOM      2  C   UNL     1       2.156   3.438  20.083  0.00  0.00    +0.000 A 
ATOM      3  C   UNL     1       2.970   2.450  19.573  0.00  0.00    +0.000 A 
ATOM      4  C   UNL     1       4.128   2.840  18.911  0.00  0.00    +0.000 A 
ATOM      5  C   UNL     1       4.503   4.192  18.820  0.00  0.00    +0.000 A 
ATOM      6  C   UNL     1       3.613   5.130  19.334  0.00  0.00    +0.000 A 
ATOM      7  N   UNL     1       2.460   4.741  19.947  0.00  0.00    +0.000 NA
ENDROOT
BRANCH   5   8
ATOM      8  C   UNL     1       5.832   4.479  18.209  0.00  0.00    +0.000 C 
ATOM      9  N   UNL     1       6.877   4.488  18.992  0.00  0.00    +0.000 NA
ATOM     10  N   UNL     1       5.935   4.806  16.862  0.00  0.00    +0.000 N 
ATOM     11  H   UNL     1       6.914   4.940  16.621  0.00  0.00    +0.000 HD
BRANCH   9  12
ATOM     12  O   UNL     1       8.038   4.846  18.283  0.00  0.00    +0.000 OA
ATOM     13  H   UNL     1       8.352   5.616  18.794  0.00  0.00    +0.000 HD
ENDBRANCH   9  12
BRANCH  10  14
ATOM     14  C   UNL     1       5.160   4.203  15.782  0.00  0.00    +0.000 C 
BRANCH  14  15
ATOM     15  C   UNL     1       5.897   4.243  14.452  0.00  0.00    +0.000 A 
ATOM     16  C   UNL     1       7.073   4.987  14.278  0.00  0.00    +0.000 A 
ATOM     17  C   UNL     1       7.728   5.018  13.044  0.00  0.00    +0.000 A 
ATOM     18  C   UNL     1       7.223   4.293  11.961  0.00  0.00    +0.000 A 
ATOM     19  C   UNL     1       6.068   3.532  12.122  0.00  0.00    +0.000 A 
ATOM     20  C   UNL     1       5.413   3.501  13.357  0.00  0.00    +0.000 A 
ENDBRANCH  14  15
ENDBRANCH  10  14
ENDBRANCH   5   8
BRANCH   6  21
ATOM     21  O   UNL     1       3.834   6.504  19.289  0.00  0.00    +0.000 OA
BRANCH  21  22
ATOM     22  C   UNL     1       2.940   7.091  18.323  0.00  0.00    +0.000 C 
BRANCH  22  23
ATOM     23  C   UNL     1       1.993   8.192  18.749  0.00  0.00    +0.000 A 
ATOM     24  C   UNL     1       1.376   9.094  17.883  0.00  0.00    +0.000 A 
ATOM     25  C   UNL     1       0.437  10.010  18.383  0.00  0.00    +0.000 A 
ATOM     26  C   UNL     1       0.104  10.024  19.739  0.00  0.00    +0.000 A 
ATOM     27  C   UNL     1       0.715   9.125  20.600  0.00  0.00    +0.000 A 
ATOM     28  F   UNL     1       0.390   9.111  21.898  0.00  0.00    +0.000 F 
ATOM     29  C   UNL     1       1.648   8.218  20.117  0.00  0.00    +0.000 A 
ENDBRANCH  22  23
ENDBRANCH  21  22
ENDBRANCH   6  21
TORSDOF 7
ENDMDL
MODEL 6
REMARK VINA RESULT:      -8.2      1.906      5.236
REMARK  Name = 
REMARK  8 active torsions:
REMARK  status: ('A' for Active; 'I' for Inactive)
REMARK    1  A    between atoms: C_1  and  C_2
REMARK    2  A    between atoms: C_5  and  C_6
REMARK    3  A    between atoms: N_7  and  O_8
REMARK    4  A    between atoms: N_9  and  C_10
REMARK    5  A    between atoms: C_10  and  C_11
REMARK    6  A    between atoms: C_17  and  O_18
REMARK    7  A    between atoms: O_18  and  C_19
REMARK    8  A    between atoms: C_19  and  C_20
REMARK                            x       y       z     vdW  Elec       q    Type
REMARK                         _______ _______ _______ _____ _____    ______ ____
ROOT
ATOM      1  C   UNL     1       4.930   4.322  13.739  0.00  0.00    +0.000 C 
ATOM      2  C   UNL     1       5.669   4.803  14.944  0.00  0.00    +0.000 A 
ATOM      3  C   UNL     1       7.035   4.685  15.077  0.00  0.00    +0.000 A 
ATOM      4  C   UNL     1       7.618   5.166  16.245  0.00  0.00    +0.000 A 
ATOM      5  C   UNL     1       6.840   5.694  17.291  0.00  0.00    +0.000 A 
ATOM      6  C   UNL     1       5.471   5.805  17.066  0.00  0.00    +0.000 A 
ATOM      7  N   UNL     1       4.913   5.367  15.903  0.00  0.00    +0.000 NA
ENDROOT
BRANCH   5   8
ATOM      8  C   UNL     1       7.560   6.050  18.547  0.00  0.00    +0.000 C 
ATOM      9  N   UNL     1       7.767   5.104  19.423  0.00  0.00    +0.000 NA
ATOM     10  N   UNL     1       7.924   7.367  18.803  0.00  0.00    +0.000 N 
ATOM     11  H   UNL     1       8.426   7.412  19.687  0.00  0.00    +0.000 HD
BRANCH   9  12
ATOM     12  O   UNL     1       8.388   5.613  20.579  0.00  0.00    +0.000 OA
ATOM     13  H   UNL     1       7.795   6.351  20.812  0.00  0.00    +0.000 HD
ENDBRANCH   9  12
BRANCH  10  14
ATOM     14  C   UNL     1       8.425   8.316  17.814  0.00  0.00    +0.000 C 
BRANCH  14  15
ATOM     15  C   UNL     1       8.722   9.678  18.422  0.00  0.00    +0.000 A 
ATOM     16  C   UNL     1       9.250   9.814  19.714  0.00  0.00    +0.000 A 
ATOM     17  C   UNL     1       9.505  11.077  20.256  0.00  0.00    +0.000 A 
ATOM     18  C   UNL     1       9.248  12.229  19.509  0.00  0.00    +0.000 A 
ATOM     19  C   UNL     1       8.744  12.112  18.216  0.00  0.00    +0.000 A 
ATOM     20  C   UNL     1       8.488  10.848  17.674  0.00  0.00    +0.000 A 
ENDBRANCH  14  15
ENDBRANCH  10  14
ENDBRANCH   5   8
BRANCH   6  21
ATOM     21  O   UNL     1       4.581   6.335  17.996  0.00  0.00    +0.000 OA
BRANCH  21  22
ATOM     22  C   UNL     1       3.260   5.829  17.722  0.00  0.00    +0.000 C 
BRANCH  22  23
ATOM     23  C   UNL     1       2.565   4.952  18.741  0.00  0.00    +0.000 A 
ATOM     24  C   UNL     1       2.588   5.158  20.120  0.00  0.00    +0.000 A 
ATOM     25  C   UNL     1       1.822   4.336  20.961  0.00  0.00    +0.000 A 
ATOM     26  C   UNL     1       1.026   3.317  20.433  0.00  0.00    +0.000 A 
ATOM     27  C   UNL     1       1.001   3.114  19.062  0.00  0.00    +0.000 A 
ATOM     28  F   UNL     1       0.227   2.155  18.539  0.00  0.00    +0.000 F 
ATOM     29  C   UNL     1       1.759   3.918  18.221  0.00  0.00    +0.000 A 
ENDBRANCH  22  23
ENDBRANCH  21  22
ENDBRANCH   6  21
TORSDOF 7
ENDMDL
MODEL 7
REMARK VINA RESULT:      -8.1      2.838      4.450
REMARK  Name = 
REMARK  8 active torsions:
REMARK  status: ('A' for Active; 'I' for Inactive)
REMARK    1  A    between atoms: C_1  and  C_2
REMARK    2  A    between atoms: C_5  and  C_6
REMARK    3  A    between atoms: N_7  and  O_8
REMARK    4  A    between atoms: N_9  and  C_10
REMARK    5  A    between atoms: C_10  and  C_11
REMARK    6  A    between atoms: C_17  and  O_18
REMARK    7  A    between atoms: O_18  and  C_19
REMARK    8  A    between atoms: C_19  and  C_20
REMARK                            x       y       z     vdW  Elec       q    Type
REMARK                         _______ _______ _______ _____ _____    ______ ____
ROOT
ATOM      1  C   UNL     1       1.303   2.911  21.395  0.00  0.00    +0.000 C 
ATOM      2  C   UNL     1       2.497   3.329  20.599  0.00  0.00    +0.000 A 
ATOM      3  C   UNL     1       3.476   2.445  20.204  0.00  0.00    +0.000 A 
ATOM      4  C   UNL     1       4.545   2.945  19.469  0.00  0.00    +0.000 A 
ATOM      5  C   UNL     1       4.667   4.319  19.191  0.00  0.00    +0.000 A 
ATOM      6  C   UNL     1       3.621   5.141  19.600  0.00  0.00    +0.000 A 
ATOM      7  N   UNL     1       2.558   4.636  20.287  0.00  0.00    +0.000 NA
ENDROOT
BRANCH   5   8
ATOM      8  C   UNL     1       5.921   4.757  18.516  0.00  0.00    +0.000 C 
ATOM      9  N   UNL     1       6.950   5.053  19.265  0.00  0.00    +0.000 NA
ATOM     10  N   UNL     1       5.961   4.919  17.136  0.00  0.00    +0.000 N 
ATOM     11  H   UNL     1       6.900   5.194  16.856  0.00  0.00    +0.000 HD
BRANCH   9  12
ATOM     12  O   UNL     1       8.025   5.517  18.487  0.00  0.00    +0.000 OA
ATOM     13  H   UNL     1       8.758   4.960  18.811  0.00  0.00    +0.000 HD
ENDBRANCH   9  12
BRANCH  10  14
ATOM     14  C   UNL     1       5.305   4.054  16.161  0.00  0.00    +0.000 C 
BRANCH  14  15
ATOM     15  C   UNL     1       5.942   4.152  14.783  0.00  0.00    +0.000 A 
ATOM     16  C   UNL     1       5.405   3.489  13.669  0.00  0.00    +0.000 A 
ATOM     17  C   UNL     1       6.014   3.585  12.415  0.00  0.00    +0.000 A 
ATOM     18  C   UNL     1       7.167   4.357  12.248  0.00  0.00    +0.000 A 
ATOM     19  C   UNL     1       7.701   5.039  13.339  0.00  0.00    +0.000 A 
ATOM     20  C   UNL     1       7.092   4.942  14.594  0.00  0.00    +0.000 A 
ENDBRANCH  14  15
ENDBRANCH  10  14
ENDBRANCH   5   8
BRANCH   6  21
ATOM     21  O   UNL     1       3.588   6.513  19.369  0.00  0.00    +0.000 OA
BRANCH  21  22
ATOM     22  C   UNL     1       2.239   6.902  19.045  0.00  0.00    +0.000 C 
BRANCH  22  23
ATOM     23  C   UNL     1       1.613   8.092  19.741  0.00  0.00    +0.000 A 
ATOM     24  C   UNL     1       1.330   8.162  21.104  0.00  0.00    +0.000 A 
ATOM     25  C   UNL     1       0.840   9.356  21.655  0.00  0.00    +0.000 A 
ATOM     26  C   UNL     1       0.641  10.484  20.854  0.00  0.00    +0.000 A 
ATOM     27  C   UNL     1       0.926  10.415  19.499  0.00  0.00    +0.000 A 
ATOM     28  F   UNL     1       0.761  11.493  18.723  0.00  0.00    +0.000 F 
ATOM     29  C   UNL     1       1.406   9.237  18.944  0.00  0.00    +0.000 A 
ENDBRANCH  22  23
ENDBRANCH  21  22
ENDBRANCH   6  21
TORSDOF 7
ENDMDL
MODEL 8
REMARK VINA RESULT:      -8.1      1.975      5.300
REMARK  Name = 
REMARK  8 active torsions:
REMARK  status: ('A' for Active; 'I' for Inactive)
REMARK    1  A    between atoms: C_1  and  C_2
REMARK    2  A    between atoms: C_5  and  C_6
REMARK    3  A    between atoms: N_7  and  O_8
REMARK    4  A    between atoms: N_9  and  C_10
REMARK    5  A    between atoms: C_10  and  C_11
REMARK    6  A    between atoms: C_17  and  O_18
REMARK    7  A    between atoms: O_18  and  C_19
REMARK    8  A    between atoms: C_19  and  C_20
REMARK                            x       y       z     vdW  Elec       q    Type
REMARK                         _______ _______ _______ _____ _____    ______ ____
ROOT
ATOM      1  C   UNL     1       5.622   3.542  12.827  0.00  0.00    +0.000 C 
ATOM      2  C   UNL     1       6.122   4.146  14.098  0.00  0.00    +0.000 A 
ATOM      3  C   UNL     1       7.209   4.992  14.145  0.00  0.00    +0.000 A 
ATOM      4  C   UNL     1       7.588   5.494  15.384  0.00  0.00    +0.000 A 
ATOM      5  C   UNL     1       6.935   5.103  16.567  0.00  0.00    +0.000 A 
ATOM      6  C   UNL     1       5.829   4.269  16.431  0.00  0.00    +0.000 A 
ATOM      7  N   UNL     1       5.440   3.812  15.208  0.00  0.00    +0.000 NA
ENDROOT
BRANCH   5   8
ATOM      8  C   UNL     1       7.515   5.598  17.848  0.00  0.00    +0.000 C 
ATOM      9  N   UNL     1       8.047   4.722  18.658  0.00  0.00    +0.000 NA
ATOM     10  N   UNL     1       7.418   6.940  18.196  0.00  0.00    +0.000 N 
ATOM     11  H   UNL     1       7.892   7.093  19.083  0.00  0.00    +0.000 HD
BRANCH   9  12
ATOM     12  O   UNL     1       8.481   5.333  19.849  0.00  0.00    +0.000 OA
ATOM     13  H   UNL     1       7.632   5.563  20.272  0.00  0.00    +0.000 HD
ENDBRANCH   9  12
BRANCH  10  14
ATOM     14  C   UNL     1       7.550   8.066  17.277  0.00  0.00    +0.000 C 
BRANCH  14  15
ATOM     15  C   UNL     1       8.213   9.269  17.931  0.00  0.00    +0.000 A 
ATOM     16  C   UNL     1       8.151  10.550  17.362  0.00  0.00    +0.000 A 
ATOM     17  C   UNL     1       8.776  11.638  17.976  0.00  0.00    +0.000 A 
ATOM     18  C   UNL     1       9.467  11.468  19.179  0.00  0.00    +0.000 A 
ATOM     19  C   UNL     1       9.520  10.207  19.768  0.00  0.00    +0.000 A 
ATOM     20  C   UNL     1       8.894   9.118  19.154  0.00  0.00    +0.000 A 
ENDBRANCH  14  15
ENDBRANCH  10  14
ENDBRANCH   5   8
BRANCH   6  21
ATOM     21  O   UNL     1       5.067   3.824  17.508  0.00  0.00    +0.000 OA
BRANCH  21  22
ATOM     22  C   UNL     1       3.886   4.644  17.616  0.00  0.00    +0.000 C 
BRANCH  22  23
ATOM     23  C   UNL     1       2.780   4.244  18.568  0.00  0.00    +0.000 A 
ATOM     24  C   UNL     1       1.509   3.817  18.182  0.00  0.00    +0.000 A 
ATOM     25  C   UNL     1       0.596   3.376  19.152  0.00  0.00    +0.000 A 
ATOM     26  C   UNL     1       0.948   3.349  20.504  0.00  0.00    +0.000 A 
ATOM     27  C   UNL     1       2.212   3.770  20.888  0.00  0.00    +0.000 A 
ATOM     28  F   UNL     1       2.570   3.729  22.177  0.00  0.00    +0.000 F 
ATOM     29  C   UNL     1       3.120   4.213  19.937  0.00  0.00    +0.000 A 
ENDBRANCH  22  23
ENDBRANCH  21  22
ENDBRANCH   6  21
TORSDOF 7
ENDMDL
MODEL 9
REMARK VINA RESULT:      -8.1      2.388      4.573
REMARK  Name = 
REMARK  8 active torsions:
REMARK  status: ('A' for Active; 'I' for Inactive)
REMARK    1  A    between atoms: C_1  and  C_2
REMARK    2  A    between atoms: C_5  and  C_6
REMARK    3  A    between atoms: N_7  and  O_8
REMARK    4  A    between atoms: N_9  and  C_10
REMARK    5  A    between atoms: C_10  and  C_11
REMARK    6  A    between atoms: C_17  and  O_18
REMARK    7  A    between atoms: O_18  and  C_19
REMARK    8  A    between atoms: C_19  and  C_20
REMARK                            x       y       z     vdW  Elec       q    Type
REMARK                         _______ _______ _______ _____ _____    ______ ____
ROOT
ATOM      1  C   UNL     1       8.204   9.443  18.223  0.00  0.00    +0.000 C 
ATOM      2  C   UNL     1       7.638   8.090  17.938  0.00  0.00    +0.000 A 
ATOM      3  C   UNL     1       8.295   6.924  18.262  0.00  0.00    +0.000 A 
ATOM      4  C   UNL     1       7.674   5.720  17.948  0.00  0.00    +0.000 A 
ATOM      5  C   UNL     1       6.448   5.683  17.260  0.00  0.00    +0.000 A 
ATOM      6  C   UNL     1       5.835   6.905  16.995  0.00  0.00    +0.000 A 
ATOM      7  N   UNL     1       6.433   8.079  17.342  0.00  0.00    +0.000 NA
ENDROOT
BRANCH   5   8
ATOM      8  C   UNL     1       5.946   4.339  16.856  0.00  0.00    +0.000 C 
ATOM      9  N   UNL     1       6.422   3.811  15.760  0.00  0.00    +0.000 NA
ATOM     10  N   UNL     1       4.945   3.710  17.586  0.00  0.00    +0.000 N 
ATOM     11  H   UNL     1       4.754   2.797  17.180  0.00  0.00    +0.000 HD
BRANCH   9  12
ATOM     12  O   UNL     1       5.799   2.582  15.478  0.00  0.00    +0.000 OA
ATOM     13  H   UNL     1       6.567   1.987  15.390  0.00  0.00    +0.000 HD
ENDBRANCH   9  12
BRANCH  10  14
ATOM     14  C   UNL     1       4.818   3.724  19.040  0.00  0.00    +0.000 C 
BRANCH  14  15
ATOM     15  C   UNL     1       3.375   3.577  19.495  0.00  0.00    +0.000 A 
ATOM     16  C   UNL     1       2.963   3.943  20.785  0.00  0.00    +0.000 A 
ATOM     17  C   UNL     1       1.632   3.790  21.184  0.00  0.00    +0.000 A 
ATOM     18  C   UNL     1       0.685   3.276  20.295  0.00  0.00    +0.000 A 
ATOM     19  C   UNL     1       1.072   2.927  19.003  0.00  0.00    +0.000 A 
ATOM     20  C   UNL     1       2.404   3.081  18.604  0.00  0.00    +0.000 A 
ENDBRANCH  14  15
ENDBRANCH  10  14
ENDBRANCH   5   8
BRANCH   6  21
ATOM     21  O   UNL     1       4.608   7.024  16.349  0.00  0.00    +0.000 OA
BRANCH  21  22
ATOM     22  C   UNL     1       3.566   6.570  17.236  0.00  0.00    +0.000 C 
BRANCH  22  23
ATOM     23  C   UNL     1       2.795   7.575  18.064  0.00  0.00    +0.000 A 
ATOM     24  C   UNL     1       2.324   8.802  17.597  0.00  0.00    +0.000 A 
ATOM     25  C   UNL     1       1.533   9.608  18.430  0.00  0.00    +0.000 A 
ATOM     26  C   UNL     1       1.201   9.193  19.722  0.00  0.00    +0.000 A 
ATOM     27  C   UNL     1       1.667   7.972  20.185  0.00  0.00    +0.000 A 
ATOM     28  F   UNL     1       1.340   7.551  21.413  0.00  0.00    +0.000 F 
ATOM     29  C   UNL     1       2.454   7.169  19.371  0.00  0.00    +0.000 A 
ENDBRANCH  22  23
ENDBRANCH  21  22
ENDBRANCH   6  21
TORSDOF 7
ENDMDL
