MODEL 1
REMARK VINA RESULT:      -9.0      0.000      0.000
REMARK  Name = 
REMARK  9 active torsions:
REMARK  status: ('A' for Active; 'I' for Inactive)
REMARK    1  A    between atoms: C_1  and  C_2
REMARK    2  A    between atoms: C_2  and  C_3
REMARK    3  A    between atoms: C_3  and  N_4
REMARK    4  A    between atoms: C_7  and  C_8
REMARK    5  A    between atoms: N_10  and  C_11
REMARK    6  A    between atoms: C_11  and  C_12
REMARK    7  A    between atoms: C_19  and  O_20
REMARK    8  A    between atoms: C_24  and  C_25
REMARK    9  A    between atoms: C_25  and  C_26
REMARK                            x       y       z     vdW  Elec       q    Type
REMARK                         _______ _______ _______ _____ _____    ______ ____
ROOT
ATOM      1  N   UNL     1       2.965   5.355  19.395  0.00  0.00    +0.000 N 
ATOM      2  C   UNL     1       2.172   6.328  19.994  0.00  0.00    +0.000 A 
ATOM      3  O   UNL     1       1.512   6.097  21.010  0.00  0.00    +0.000 OA
ATOM      4  C   UNL     1       2.112   7.684  19.372  0.00  0.00    +0.000 A 
ATOM      5  C   UNL     1       2.827   7.942  18.255  0.00  0.00    +0.000 A 
ATOM      6  C   UNL     1       3.676   6.901  17.646  0.00  0.00    +0.000 A 
ATOM      7  N   UNL     1       4.362   7.229  16.519  0.00  0.00    +0.000 NA
ATOM      8  C   UNL     1       5.165   6.289  15.975  0.00  0.00    +0.000 A 
ATOM      9  C   UNL     1       5.335   5.019  16.504  0.00  0.00    +0.000 A 
ATOM     10  C   UNL     1       4.608   4.704  17.657  0.00  0.00    +0.000 A 
ATOM     11  C   UNL     1       3.751   5.640  18.243  0.00  0.00    +0.000 A 
ENDROOT
BRANCH   4  12
ATOM     12  C   UNL     1       1.262   8.777  19.950  0.00  0.00    +0.000 C 
ATOM     13  O   UNL     1       1.252   8.987  21.162  0.00  0.00    +0.000 OA
ATOM     14  N   UNL     1       0.547   9.531  19.057  0.00  0.00    +0.000 N 
ATOM     15  H   UNL     1       0.569   9.271  18.072  0.00  0.00    +0.000 HD
BRANCH  14  16
ATOM     16  C   UNL     1      -0.304  10.637  19.441  0.00  0.00    +0.000 C 
BRANCH  16  17
ATOM     17  C   UNL     1      -1.504  10.774  18.539  0.00  0.00    +0.000 A 
ATOM     18  C   UNL     1      -1.591   9.995  17.371  0.00  0.00    +0.000 A 
ATOM     19  C   UNL     1      -2.725  10.065  16.552  0.00  0.00    +0.000 A 
ATOM     20  C   UNL     1      -3.768  10.912  16.894  0.00  0.00    +0.000 A 
ATOM     21  F   UNL     1      -4.855  10.970  16.113  0.00  0.00    +0.000 F 
ATOM     22  C   UNL     1      -3.705  11.696  18.040  0.00  0.00    +0.000 A 
ATOM     23  C   UNL     1      -2.577  11.625  18.863  0.00  0.00    +0.000 A 
ENDBRANCH  16  17
ENDBRANCH  14  16
ENDBRANCH   4  12
BRANCH   5  24
ATOM     24  O   UNL     1       2.830   9.165  17.594  0.00  0.00    +0.000 OA
ATOM     25  H   UNL     1       3.727   9.336  17.236  0.00  0.00    +0.000 HD
ENDBRANCH   5  24
BRANCH   1  26
ATOM     26  C   UNL     1       3.009   4.035  20.025  0.00  0.00    +0.000 C 
BRANCH  26  28
ATOM     27  C   UNL     1       0.788   2.850  20.044  0.00  0.00    +0.000 C 
ATOM     28  C   UNL     1       2.103   3.036  19.306  0.00  0.00    +0.000 C 
ENDBRANCH  26  28
ENDBRANCH   1  26
BRANCH   9  29
ATOM     29  C   UNL     1       6.238   4.004  15.862  0.00  0.00    +0.000 C 
BRANCH  29  30
ATOM     30  C   UNL     1       6.480   4.191  14.382  0.00  0.00    +0.000 A 
ATOM     31  C   UNL     1       7.464   5.078  13.919  0.00  0.00    +0.000 A 
ATOM     32  C   UNL     1       7.794   5.125  12.563  0.00  0.00    +0.000 A 
ATOM     33  C   UNL     1       7.132   4.301  11.655  0.00  0.00    +0.000 A 
ATOM     34  C   UNL     1       6.113   3.461  12.094  0.00  0.00    +0.000 A 
ATOM     35  C   UNL     1       5.779   3.414  13.449  0.00  0.00    +0.000 A 
ENDBRANCH  29  30
ENDBRANCH   9  29
TORSDOF 8
ENDMDL
MODEL 2
REMARK VINA RESULT:      -8.8      0.666      1.067
REMARK  Name = 
REMARK  9 active torsions:
REMARK  status: ('A' for Active; 'I' for Inactive)
REMARK    1  A    between atoms: C_1  and  C_2
REMARK    2  A    between atoms: C_2  and  C_3
REMARK    3  A    between atoms: C_3  and  N_4
REMARK    4  A    between atoms: C_7  and  C_8
REMARK    5  A    between atoms: N_10  and  C_11
REMARK    6  A    between atoms: C_11  and  C_12
REMARK    7  A    between atoms: C_19  and  O_20
REMARK    8  A    between atoms: C_24  and  C_25
REMARK    9  A    between atoms: C_25  and  C_26
REMARK                            x       y       z     vdW  Elec       q    Type
REMARK                         _______ _______ _______ _____ _____    ______ ____
ROOT
ATOM      1  N   UNL     1       2.783   5.904  19.491  0.00  0.00    +0.000 N 
ATOM      2  C   UNL     1       2.015   6.942  20.009  0.00  0.00    +0.000 A 
ATOM      3  O   UNL     1       1.377   6.820  21.057  0.00  0.00    +0.000 OA
ATOM      4  C   UNL     1       1.956   8.231  19.258  0.00  0.00    +0.000 A 
ATOM      5  C   UNL     1       2.648   8.369  18.105  0.00  0.00    +0.000 A 
ATOM      6  C   UNL     1       3.471   7.262  17.584  0.00  0.00    +0.000 A 
ATOM      7  N   UNL     1       4.134   7.468  16.415  0.00  0.00    +0.000 NA
ATOM      8  C   UNL     1       4.914   6.469  15.948  0.00  0.00    +0.000 A 
ATOM      9  C   UNL     1       5.081   5.254  16.595  0.00  0.00    +0.000 A 
ATOM     10  C   UNL     1       4.378   5.064  17.790  0.00  0.00    +0.000 A 
ATOM     11  C   UNL     1       3.546   6.065  18.299  0.00  0.00    +0.000 A 
ENDROOT
BRANCH   4  12
ATOM     12  C   UNL     1       1.133   9.387  19.745  0.00  0.00    +0.000 C 
ATOM     13  O   UNL     1       1.084   9.660  20.943  0.00  0.00    +0.000 OA
ATOM     14  N   UNL     1       0.487  10.122  18.785  0.00  0.00    +0.000 N 
ATOM     15  H   UNL     1       0.537   9.811  17.816  0.00  0.00    +0.000 HD
BRANCH  14  16
ATOM     16  C   UNL     1      -0.330  11.282  19.078  0.00  0.00    +0.000 C 
BRANCH  16  17
ATOM     17  C   UNL     1      -1.767  11.086  18.663  0.00  0.00    +0.000 A 
ATOM     18  C   UNL     1      -2.754  11.970  19.133  0.00  0.00    +0.000 A 
ATOM     19  C   UNL     1      -4.084  11.840  18.711  0.00  0.00    +0.000 A 
ATOM     20  C   UNL     1      -4.429  10.828  17.828  0.00  0.00    +0.000 A 
ATOM     21  F   UNL     1      -5.699  10.711  17.420  0.00  0.00    +0.000 F 
ATOM     22  C   UNL     1      -3.472   9.938  17.354  0.00  0.00    +0.000 A 
ATOM     23  C   UNL     1      -2.143  10.068  17.768  0.00  0.00    +0.000 A 
ENDBRANCH  16  17
ENDBRANCH  14  16
ENDBRANCH   4  12
BRANCH   5  24
ATOM     24  O   UNL     1       2.649   9.521  17.328  0.00  0.00    +0.000 OA
ATOM     25  H   UNL     1       3.573   9.747  17.088  0.00  0.00    +0.000 HD
ENDBRANCH   5  24
BRANCH   1  26
ATOM     26  C   UNL     1       2.828   4.652  20.247  0.00  0.00    +0.000 C 
BRANCH  26  28
ATOM     27  C   UNL     1       1.209   2.900  21.052  0.00  0.00    +0.000 C 
ATOM     28  C   UNL     1       1.679   3.719  19.862  0.00  0.00    +0.000 C 
ENDBRANCH  26  28
ENDBRANCH   1  26
BRANCH   9  29
ATOM     29  C   UNL     1       5.957   4.169  16.037  0.00  0.00    +0.000 C 
BRANCH  29  30
ATOM     30  C   UNL     1       6.289   4.291  14.567  0.00  0.00    +0.000 A 
ATOM     31  C   UNL     1       7.377   5.064  14.135  0.00  0.00    +0.000 A 
ATOM     32  C   UNL     1       7.775   5.042  12.796  0.00  0.00    +0.000 A 
ATOM     33  C   UNL     1       7.080   4.263  11.875  0.00  0.00    +0.000 A 
ATOM     34  C   UNL     1       5.962   3.539  12.281  0.00  0.00    +0.000 A 
ATOM     35  C   UNL     1       5.560   3.561  13.618  0.00  0.00    +0.000 A 
ENDBRANCH  29  30
ENDBRANCH   9  29
TORSDOF 8
ENDMDL
MODEL 3
REMARK VINA RESULT:      -8.7      4.095     11.062
REMARK  Name = 
REMARK  9 active torsions:
REMARK  status: ('A' for Active; 'I' for Inactive)
REMARK    1  A    between atoms: C_1  and  C_2
REMARK    2  A    between atoms: C_2  and  C_3
REMARK    3  A    between atoms: C_3  and  N_4
REMARK    4  A    between atoms: C_7  and  C_8
REMARK    5  A    between atoms: N_10  and  C_11
REMARK    6  A    between atoms: C_11  and  C_12
REMARK    7  A    between atoms: C_19  and  O_20
REMARK    8  A    between atoms: C_24  and  C_25
REMARK    9  A    between atoms: C_25  and  C_26
REMARK                            x       y       z     vdW  Elec       q    Type
REMARK                         _______ _______ _______ _____ _____    ______ ____
ROOT
ATOM      1  N   UNL     1      -0.734  11.681  21.035  0.00  0.00    +0.000 N 
ATOM      2  C   UNL     1       0.312  10.869  20.610  0.00  0.00    +0.000 A 
ATOM      3  O   UNL     1       1.318  10.689  21.300  0.00  0.00    +0.000 OA
ATOM      4  C   UNL     1       0.211  10.214  19.272  0.00  0.00    +0.000 A 
ATOM      5  C   UNL     1      -0.886  10.412  18.509  0.00  0.00    +0.000 A 
ATOM      6  C   UNL     1      -1.992  11.262  18.986  0.00  0.00    +0.000 A 
ATOM      7  N   UNL     1      -3.061  11.423  18.162  0.00  0.00    +0.000 NA
ATOM      8  C   UNL     1      -4.092  12.176  18.607  0.00  0.00    +0.000 A 
ATOM      9  C   UNL     1      -4.122  12.783  19.854  0.00  0.00    +0.000 A 
ATOM     10  C   UNL     1      -3.004  12.611  20.676  0.00  0.00    +0.000 A 
ATOM     11  C   UNL     1      -1.909  11.855  20.248  0.00  0.00    +0.000 A 
ENDROOT
BRANCH   4  12
ATOM     12  C   UNL     1       1.309   9.341  18.740  0.00  0.00    +0.000 C 
ATOM     13  O   UNL     1       1.890   9.633  17.695  0.00  0.00    +0.000 OA
ATOM     14  N   UNL     1       1.639   8.247  19.495  0.00  0.00    +0.000 N 
ATOM     15  H   UNL     1       1.085   8.043  20.326  0.00  0.00    +0.000 HD
BRANCH  14  16
ATOM     16  C   UNL     1       2.688   7.314  19.141  0.00  0.00    +0.000 C 
BRANCH  16  17
ATOM     17  C   UNL     1       2.201   5.887  19.126  0.00  0.00    +0.000 A 
ATOM     18  C   UNL     1       2.207   5.160  17.922  0.00  0.00    +0.000 A 
ATOM     19  C   UNL     1       1.814   3.816  17.900  0.00  0.00    +0.000 A 
ATOM     20  C   UNL     1       1.411   3.199  19.075  0.00  0.00    +0.000 A 
ATOM     21  F   UNL     1       1.044   1.911  19.052  0.00  0.00    +0.000 F 
ATOM     22  C   UNL     1       1.391   3.897  20.277  0.00  0.00    +0.000 A 
ATOM     23  C   UNL     1       1.788   5.237  20.304  0.00  0.00    +0.000 A 
ENDBRANCH  16  17
ENDBRANCH  14  16
ENDBRANCH   4  12
BRANCH   5  24
ATOM     24  O   UNL     1      -1.070   9.859  17.247  0.00  0.00    +0.000 OA
ATOM     25  H   UNL     1      -0.212   9.519  16.916  0.00  0.00    +0.000 HD
ENDBRANCH   5  24
BRANCH   1  26
ATOM     26  C   UNL     1      -0.613  12.310  22.351  0.00  0.00    +0.000 C 
BRANCH  26  28
ATOM     27  C   UNL     1      -0.912  14.634  23.271  0.00  0.00    +0.000 C 
ATOM     28  C   UNL     1      -0.199  13.777  22.239  0.00  0.00    +0.000 C 
ENDBRANCH  26  28
ENDBRANCH   1  26
BRANCH   9  29
ATOM     29  C   UNL     1      -5.289  13.614  20.305  0.00  0.00    +0.000 C 
BRANCH  29  30
ATOM     30  C   UNL     1      -6.095  13.041  21.448  0.00  0.00    +0.000 A 
ATOM     31  C   UNL     1      -5.969  13.555  22.748  0.00  0.00    +0.000 A 
ATOM     32  C   UNL     1      -6.831  13.132  23.763  0.00  0.00    +0.000 A 
ATOM     33  C   UNL     1      -7.812  12.180  23.494  0.00  0.00    +0.000 A 
ATOM     34  C   UNL     1      -7.906  11.619  22.223  0.00  0.00    +0.000 A 
ATOM     35  C   UNL     1      -7.044  12.038  21.207  0.00  0.00    +0.000 A 
ENDBRANCH  29  30
ENDBRANCH   9  29
TORSDOF 8
ENDMDL
MODEL 4
REMARK VINA RESULT:      -8.6      4.149     10.972
REMARK  Name = 
REMARK  9 active torsions:
REMARK  status: ('A' for Active; 'I' for Inactive)
REMARK    1  A    between atoms: C_1  and  C_2
REMARK    2  A    between atoms: C_2  and  C_3
REMARK    3  A    between atoms: C_3  and  N_4
REMARK    4  A    between atoms: C_7  and  C_8
REMARK    5  A    between atoms: N_10  and  C_11
REMARK    6  A    between atoms: C_11  and  C_12
REMARK    7  A    between atoms: C_19  and  O_20
REMARK    8  A    between atoms: C_24  and  C_25
REMARK    9  A    between atoms: C_25  and  C_26
REMARK                            x       y       z     vdW  Elec       q    Type
REMARK                         _______ _______ _______ _____ _____    ______ ____
ROOT
ATOM      1  N   UNL     1      -1.556  11.221  19.128  0.00  0.00    +0.000 N 
ATOM      2  C   UNL     1      -0.575  10.331  18.703  0.00  0.00    +0.000 A 
ATOM      3  O   UNL     1      -0.543   9.899  17.548  0.00  0.00    +0.000 OA
ATOM      4  C   UNL     1       0.455   9.880  19.685  0.00  0.00    +0.000 A 
ATOM      5  C   UNL     1       0.422  10.344  20.954  0.00  0.00    +0.000 A 
ATOM      6  C   UNL     1      -0.616  11.301  21.379  0.00  0.00    +0.000 A 
ATOM      7  N   UNL     1      -0.592  11.720  22.672  0.00  0.00    +0.000 NA
ATOM      8  C   UNL     1      -1.522  12.621  23.059  0.00  0.00    +0.000 A 
ATOM      9  C   UNL     1      -2.488  13.145  22.213  0.00  0.00    +0.000 A 
ATOM     10  C   UNL     1      -2.497  12.687  20.892  0.00  0.00    +0.000 A 
ATOM     11  C   UNL     1      -1.565  11.743  20.453  0.00  0.00    +0.000 A 
ENDROOT
BRANCH   4  12
ATOM     12  C   UNL     1       1.531   8.906  19.304  0.00  0.00    +0.000 C 
ATOM     13  O   UNL     1       2.264   9.128  18.341  0.00  0.00    +0.000 OA
ATOM     14  N   UNL     1       1.664   7.800  20.102  0.00  0.00    +0.000 N 
ATOM     15  H   UNL     1       0.992   7.659  20.856  0.00  0.00    +0.000 HD
BRANCH  14  16
ATOM     16  C   UNL     1       2.663   6.774  19.891  0.00  0.00    +0.000 C 
BRANCH  16  17
ATOM     17  C   UNL     1       2.047   5.442  19.541  0.00  0.00    +0.000 A 
ATOM     18  C   UNL     1       2.144   4.953  18.227  0.00  0.00    +0.000 A 
ATOM     19  C   UNL     1       1.630   3.692  17.897  0.00  0.00    +0.000 A 
ATOM     20  C   UNL     1       1.017   2.923  18.875  0.00  0.00    +0.000 A 
ATOM     21  F   UNL     1       0.535   1.714  18.559  0.00  0.00    +0.000 F 
ATOM     22  C   UNL     1       0.905   3.386  20.181  0.00  0.00    +0.000 A 
ATOM     23  C   UNL     1       1.420   4.642  20.515  0.00  0.00    +0.000 A 
ENDBRANCH  16  17
ENDBRANCH  14  16
ENDBRANCH   4  12
BRANCH   5  24
ATOM     24  O   UNL     1       1.326   9.977  21.944  0.00  0.00    +0.000 OA
ATOM     25  H   UNL     1       2.232  10.227  21.662  0.00  0.00    +0.000 HD
ENDBRANCH   5  24
BRANCH   1  26
ATOM     26  C   UNL     1      -2.553  11.651  18.147  0.00  0.00    +0.000 C 
BRANCH  26  28
ATOM     27  C   UNL     1      -5.061  11.491  18.004  0.00  0.00    +0.000 C 
ATOM     28  C   UNL     1      -3.761  10.714  18.123  0.00  0.00    +0.000 C 
ENDBRANCH  26  28
ENDBRANCH   1  26
BRANCH   9  29
ATOM     29  C   UNL     1      -3.505  14.143  22.689  0.00  0.00    +0.000 C 
BRANCH  29  30
ATOM     30  C   UNL     1      -4.935  13.655  22.718  0.00  0.00    +0.000 A 
ATOM     31  C   UNL     1      -5.494  12.998  21.611  0.00  0.00    +0.000 A 
ATOM     32  C   UNL     1      -6.757  12.407  21.702  0.00  0.00    +0.000 A 
ATOM     33  C   UNL     1      -7.479  12.483  22.892  0.00  0.00    +0.000 A 
ATOM     34  C   UNL     1      -6.959  13.183  23.976  0.00  0.00    +0.000 A 
ATOM     35  C   UNL     1      -5.698  13.778  23.887  0.00  0.00    +0.000 A 
ENDBRANCH  29  30
ENDBRANCH   9  29
TORSDOF 8
ENDMDL
MODEL 5
REMARK VINA RESULT:      -8.5      4.245     10.838
REMARK  Name = 
REMARK  9 active torsions:
REMARK  status: ('A' for Active; 'I' for Inactive)
REMARK    1  A    between atoms: C_1  and  C_2
REMARK    2  A    between atoms: C_2  and  C_3
REMARK    3  A    between atoms: C_3  and  N_4
REMARK    4  A    between atoms: C_7  and  C_8
REMARK    5  A    between atoms: N_10  and  C_11
REMARK    6  A    between atoms: C_11  and  C_12
REMARK    7  A    between atoms: C_19  and  O_20
REMARK    8  A    between atoms: C_24  and  C_25
REMARK    9  A    between atoms: C_25  and  C_26
REMARK                            x       y       z     vdW  Elec       q    Type
REMARK                         _______ _______ _______ _____ _____    ______ ____
ROOT
ATOM      1  N   UNL     1       0.714  10.923  19.210  0.00  0.00    +0.000 N 
ATOM      2  C   UNL     1       1.429   9.920  18.564  0.00  0.00    +0.000 A 
ATOM      3  O   UNL     1       1.851  10.058  17.414  0.00  0.00    +0.000 OA
ATOM      4  C   UNL     1       1.673   8.637  19.287  0.00  0.00    +0.000 A 
ATOM      5  C   UNL     1       1.207   8.477  20.546  0.00  0.00    +0.000 A 
ATOM      6  C   UNL     1       0.468   9.560  21.219  0.00  0.00    +0.000 A 
ATOM      7  N   UNL     1       0.023   9.326  22.482  0.00  0.00    +0.000 NA
ATOM      8  C   UNL     1      -0.629  10.326  23.116  0.00  0.00    +0.000 A 
ATOM      9  C   UNL     1      -0.860  11.573  22.555  0.00  0.00    +0.000 A 
ATOM     10  C   UNL     1      -0.402  11.782  21.250  0.00  0.00    +0.000 A 
ATOM     11  C   UNL     1       0.261  10.769  20.552  0.00  0.00    +0.000 A 
ENDROOT
BRANCH   4  12
ATOM     12  C   UNL     1       2.418   7.503  18.647  0.00  0.00    +0.000 C 
ATOM     13  O   UNL     1       2.127   6.336  18.906  0.00  0.00    +0.000 OA
ATOM     14  N   UNL     1       3.394   7.845  17.748  0.00  0.00    +0.000 N 
ATOM     15  H   UNL     1       3.611   8.832  17.616  0.00  0.00    +0.000 HD
BRANCH  14  16
ATOM     16  C   UNL     1       4.192   6.879  17.023  0.00  0.00    +0.000 C 
BRANCH  16  17
ATOM     17  C   UNL     1       5.445   6.499  17.772  0.00  0.00    +0.000 A 
ATOM     18  C   UNL     1       5.407   5.451  18.709  0.00  0.00    +0.000 A 
ATOM     19  C   UNL     1       6.573   5.045  19.370  0.00  0.00    +0.000 A 
ATOM     20  C   UNL     1       7.773   5.685  19.101  0.00  0.00    +0.000 A 
ATOM     21  F   UNL     1       8.888   5.288  19.728  0.00  0.00    +0.000 F 
ATOM     22  C   UNL     1       7.836   6.726  18.182  0.00  0.00    +0.000 A 
ATOM     23  C   UNL     1       6.676   7.131  17.517  0.00  0.00    +0.000 A 
ENDBRANCH  16  17
ENDBRANCH  14  16
ENDBRANCH   4  12
BRANCH   5  24
ATOM     24  O   UNL     1       1.372   7.319  21.298  0.00  0.00    +0.000 OA
ATOM     25  H   UNL     1       2.097   6.784  20.911  0.00  0.00    +0.000 HD
ENDBRANCH   5  24
BRANCH   1  26
ATOM     26  C   UNL     1       0.490  12.172  18.482  0.00  0.00    +0.000 C 
BRANCH  26  28
ATOM     27  C   UNL     1       1.216  14.492  19.136  0.00  0.00    +0.000 C 
ATOM     28  C   UNL     1       1.669  13.133  18.632  0.00  0.00    +0.000 C 
ENDBRANCH  26  28
ENDBRANCH   1  26
BRANCH   9  29
ATOM     29  C   UNL     1      -1.592  12.655  23.297  0.00  0.00    +0.000 C 
BRANCH  29  30
ATOM     30  C   UNL     1      -3.099  12.613  23.190  0.00  0.00    +0.000 A 
ATOM     31  C   UNL     1      -3.901  12.507  24.337  0.00  0.00    +0.000 A 
ATOM     32  C   UNL     1      -5.289  12.632  24.246  0.00  0.00    +0.000 A 
ATOM     33  C   UNL     1      -5.890  12.846  23.007  0.00  0.00    +0.000 A 
ATOM     34  C   UNL     1      -5.110  12.892  21.855  0.00  0.00    +0.000 A 
ATOM     35  C   UNL     1      -3.722  12.765  21.943  0.00  0.00    +0.000 A 
ENDBRANCH  29  30
ENDBRANCH   9  29
TORSDOF 8
ENDMDL
MODEL 6
REMARK VINA RESULT:      -8.5      4.148     10.845
REMARK  Name = 
REMARK  9 active torsions:
REMARK  status: ('A' for Active; 'I' for Inactive)
REMARK    1  A    between atoms: C_1  and  C_2
REMARK    2  A    between atoms: C_2  and  C_3
REMARK    3  A    between atoms: C_3  and  N_4
REMARK    4  A    between atoms: C_7  and  C_8
REMARK    5  A    between atoms: N_10  and  C_11
REMARK    6  A    between atoms: C_11  and  C_12
REMARK    7  A    between atoms: C_19  and  O_20
REMARK    8  A    between atoms: C_24  and  C_25
REMARK    9  A    between atoms: C_25  and  C_26
REMARK                            x       y       z     vdW  Elec       q    Type
REMARK                         _______ _______ _______ _____ _____    ______ ____
ROOT
ATOM      1  N   UNL     1      -0.980  11.944  20.328  0.00  0.00    +0.000 N 
ATOM      2  C   UNL     1       0.150  11.198  20.008  0.00  0.00    +0.000 A 
ATOM      3  O   UNL     1       1.182  11.257  20.681  0.00  0.00    +0.000 OA
ATOM      4  C   UNL     1       0.106  10.314  18.806  0.00  0.00    +0.000 A 
ATOM      5  C   UNL     1      -1.020  10.249  18.061  0.00  0.00    +0.000 A 
ATOM      6  C   UNL     1      -2.212  11.036  18.428  0.00  0.00    +0.000 A 
ATOM      7  N   UNL     1      -3.307  10.927  17.629  0.00  0.00    +0.000 NA
ATOM      8  C   UNL     1      -4.412  11.621  17.977  0.00  0.00    +0.000 A 
ATOM      9  C   UNL     1      -4.495  12.427  19.103  0.00  0.00    +0.000 A 
ATOM     10  C   UNL     1      -3.350  12.530  19.900  0.00  0.00    +0.000 A 
ATOM     11  C   UNL     1      -2.179  11.843  19.567  0.00  0.00    +0.000 A 
ENDROOT
BRANCH   4  12
ATOM     12  C   UNL     1       1.292   9.495  18.389  0.00  0.00    +0.000 C 
ATOM     13  O   UNL     1       2.035   9.883  17.489  0.00  0.00    +0.000 OA
ATOM     14  N   UNL     1       1.507   8.334  19.085  0.00  0.00    +0.000 N 
ATOM     15  H   UNL     1       0.824   8.053  19.787  0.00  0.00    +0.000 HD
BRANCH  14  16
ATOM     16  C   UNL     1       2.615   7.439  18.828  0.00  0.00    +0.000 C 
BRANCH  16  17
ATOM     17  C   UNL     1       2.228   5.991  18.994  0.00  0.00    +0.000 A 
ATOM     18  C   UNL     1       2.031   5.465  20.283  0.00  0.00    +0.000 A 
ATOM     19  C   UNL     1       1.614   4.138  20.454  0.00  0.00    +0.000 A 
ATOM     20  C   UNL     1       1.398   3.337  19.343  0.00  0.00    +0.000 A 
ATOM     21  F   UNL     1       0.991   2.072  19.510  0.00  0.00    +0.000 F 
ATOM     22  C   UNL     1       1.590   3.833  18.058  0.00  0.00    +0.000 A 
ATOM     23  C   UNL     1       2.001   5.157  17.883  0.00  0.00    +0.000 A 
ENDBRANCH  16  17
ENDBRANCH  14  16
ENDBRANCH   4  12
BRANCH   5  24
ATOM     24  O   UNL     1      -1.158   9.468  16.920  0.00  0.00    +0.000 OA
ATOM     25  H   UNL     1      -2.007   8.979  16.965  0.00  0.00    +0.000 HD
ENDBRANCH   5  24
BRANCH   1  26
ATOM     26  C   UNL     1      -0.913  12.801  21.512  0.00  0.00    +0.000 C 
BRANCH  26  28
ATOM     27  C   UNL     1      -1.273  10.809  23.009  0.00  0.00    +0.000 C 
ATOM     28  C   UNL     1      -1.720  12.222  22.674  0.00  0.00    +0.000 C 
ENDBRANCH  26  28
ENDBRANCH   1  26
BRANCH   9  29
ATOM     29  C   UNL     1      -5.745  13.183  19.450  0.00  0.00    +0.000 C 
BRANCH  29  30
ATOM     30  C   UNL     1      -6.596  12.572  20.540  0.00  0.00    +0.000 A 
ATOM     31  C   UNL     1      -7.262  11.354  20.336  0.00  0.00    +0.000 A 
ATOM     32  C   UNL     1      -7.911  10.716  21.397  0.00  0.00    +0.000 A 
ATOM     33  C   UNL     1      -7.916  11.297  22.663  0.00  0.00    +0.000 A 
ATOM     34  C   UNL     1      -7.309  12.534  22.862  0.00  0.00    +0.000 A 
ATOM     35  C   UNL     1      -6.662  13.176  21.803  0.00  0.00    +0.000 A 
ENDBRANCH  29  30
ENDBRANCH   9  29
TORSDOF 8
ENDMDL
MODEL 7
REMARK VINA RESULT:      -8.5      0.641      1.341
REMARK  Name = 
REMARK  9 active torsions:
REMARK  status: ('A' for Active; 'I' for Inactive)
REMARK    1  A    between atoms: C_1  and  C_2
REMARK    2  A    between atoms: C_2  and  C_3
REMARK    3  A    between atoms: C_3  and  N_4
REMARK    4  A    between atoms: C_7  and  C_8
REMARK    5  A    between atoms: N_10  and  C_11
REMARK    6  A    between atoms: C_11  and  C_12
REMARK    7  A    between atoms: C_19  and  O_20
REMARK    8  A    between atoms: C_24  and  C_25
REMARK    9  A    between atoms: C_25  and  C_26
REMARK                            x       y       z     vdW  Elec       q    Type
REMARK                         _______ _______ _______ _____ _____    ______ ____
ROOT
ATOM      1  N   UNL     1       2.947   4.772  19.286  0.00  0.00    +0.000 N 
ATOM      2  C   UNL     1       2.234   5.741  19.983  0.00  0.00    +0.000 A 
ATOM      3  O   UNL     1       1.578   5.467  20.991  0.00  0.00    +0.000 OA
ATOM      4  C   UNL     1       2.257   7.147  19.480  0.00  0.00    +0.000 A 
ATOM      5  C   UNL     1       2.968   7.452  18.373  0.00  0.00    +0.000 A 
ATOM      6  C   UNL     1       3.732   6.413  17.659  0.00  0.00    +0.000 A 
ATOM      7  N   UNL     1       4.419   6.790  16.548  0.00  0.00    +0.000 NA
ATOM      8  C   UNL     1       5.146   5.849  15.907  0.00  0.00    +0.000 A 
ATOM      9  C   UNL     1       5.237   4.529  16.321  0.00  0.00    +0.000 A 
ATOM     10  C   UNL     1       4.511   4.166  17.460  0.00  0.00    +0.000 A 
ATOM     11  C   UNL     1       3.731   5.103  18.143  0.00  0.00    +0.000 A 
ENDROOT
BRANCH   4  12
ATOM     12  C   UNL     1       1.495   8.240  20.170  0.00  0.00    +0.000 C 
ATOM     13  O   UNL     1       1.488   8.321  21.397  0.00  0.00    +0.000 OA
ATOM     14  N   UNL     1       0.855   9.142  19.360  0.00  0.00    +0.000 N 
ATOM     15  H   UNL     1       0.867   8.987  18.352  0.00  0.00    +0.000 HD
BRANCH  14  16
ATOM     16  C   UNL     1       0.096  10.269  19.857  0.00  0.00    +0.000 C 
BRANCH  16  17
ATOM     17  C   UNL     1      -1.077  10.603  18.969  0.00  0.00    +0.000 A 
ATOM     18  C   UNL     1      -2.013  11.567  19.384  0.00  0.00    +0.000 A 
ATOM     19  C   UNL     1      -3.075  11.933  18.547  0.00  0.00    +0.000 A 
ATOM     20  C   UNL     1      -3.206  11.336  17.302  0.00  0.00    +0.000 A 
ATOM     21  F   UNL     1      -4.217  11.694  16.500  0.00  0.00    +0.000 F 
ATOM     22  C   UNL     1      -2.296  10.377  16.871  0.00  0.00    +0.000 A 
ATOM     23  C   UNL     1      -1.232  10.013  17.701  0.00  0.00    +0.000 A 
ENDBRANCH  16  17
ENDBRANCH  14  16
ENDBRANCH   4  12
BRANCH   5  24
ATOM     24  O   UNL     1       3.044   8.725  17.819  0.00  0.00    +0.000 OA
ATOM     25  H   UNL     1       2.177   8.955  17.421  0.00  0.00    +0.000 HD
ENDBRANCH   5  24
BRANCH   1  26
ATOM     26  C   UNL     1       2.912   3.402  19.799  0.00  0.00    +0.000 C 
BRANCH  26  28
ATOM     27  C   UNL     1       0.638   2.642  19.034  0.00  0.00    +0.000 C 
ATOM     28  C   UNL     1       2.138   2.470  18.868  0.00  0.00    +0.000 C 
ENDBRANCH  26  28
ENDBRANCH   1  26
BRANCH   9  29
ATOM     29  C   UNL     1       6.057   3.515  15.574  0.00  0.00    +0.000 C 
BRANCH  29  30
ATOM     30  C   UNL     1       6.616   3.978  14.249  0.00  0.00    +0.000 A 
ATOM     31  C   UNL     1       6.092   3.499  13.039  0.00  0.00    +0.000 A 
ATOM     32  C   UNL     1       6.501   4.051  11.822  0.00  0.00    +0.000 A 
ATOM     33  C   UNL     1       7.450   5.071  11.802  0.00  0.00    +0.000 A 
ATOM     34  C   UNL     1       8.021   5.512  12.993  0.00  0.00    +0.000 A 
ATOM     35  C   UNL     1       7.616   4.961  14.211  0.00  0.00    +0.000 A 
ENDBRANCH  29  30
ENDBRANCH   9  29
TORSDOF 8
ENDMDL
MODEL 8
REMARK VINA RESULT:      -8.5      4.145     10.837
REMARK  Name = 
REMARK  9 active torsions:
REMARK  status: ('A' for Active; 'I' for Inactive)
REMARK    1  A    between atoms: C_1  and  C_2
REMARK    2  A    between atoms: C_2  and  C_3
REMARK    3  A    between atoms: C_3  and  N_4
REMARK    4  A    between atoms: C_7  and  C_8
REMARK    5  A    between atoms: N_10  and  C_11
REMARK    6  A    between atoms: C_11  and  C_12
REMARK    7  A    between atoms: C_19  and  O_20
REMARK    8  A    between atoms: C_24  and  C_25
REMARK    9  A    between atoms: C_25  and  C_26
REMARK                            x       y       z     vdW  Elec       q    Type
REMARK                         _______ _______ _______ _____ _____    ______ ____
ROOT
ATOM      1  N   UNL     1      -0.977  11.045  19.134  0.00  0.00    +0.000 N 
ATOM      2  C   UNL     1      -0.029  10.092  18.775  0.00  0.00    +0.000 A 
ATOM      3  O   UNL     1       0.101   9.710  17.610  0.00  0.00    +0.000 OA
ATOM      4  C   UNL     1       0.841   9.512  19.841  0.00  0.00    +0.000 A 
ATOM      5  C   UNL     1       0.699   9.922  21.121  0.00  0.00    +0.000 A 
ATOM      6  C   UNL     1      -0.300  10.946  21.477  0.00  0.00    +0.000 A 
ATOM      7  N   UNL     1      -0.392  11.306  22.785  0.00  0.00    +0.000 NA
ATOM      8  C   UNL     1      -1.285  12.266  23.113  0.00  0.00    +0.000 A 
ATOM      9  C   UNL     1      -2.101  12.907  22.193  0.00  0.00    +0.000 A 
ATOM     10  C   UNL     1      -1.993  12.509  20.857  0.00  0.00    +0.000 A 
ATOM     11  C   UNL     1      -1.097  11.507  20.476  0.00  0.00    +0.000 A 
ENDROOT
BRANCH   4  12
ATOM     12  C   UNL     1       1.871   8.466  19.531  0.00  0.00    +0.000 C 
ATOM     13  O   UNL     1       2.641   8.607  18.583  0.00  0.00    +0.000 OA
ATOM     14  N   UNL     1       1.921   7.389  20.378  0.00  0.00    +0.000 N 
ATOM     15  H   UNL     1       1.222   7.317  21.117  0.00  0.00    +0.000 HD
BRANCH  14  16
ATOM     16  C   UNL     1       2.867   6.303  20.238  0.00  0.00    +0.000 C 
BRANCH  16  17
ATOM     17  C   UNL     1       2.212   5.036  19.745  0.00  0.00    +0.000 A 
ATOM     18  C   UNL     1       1.592   4.170  20.662  0.00  0.00    +0.000 A 
ATOM     19  C   UNL     1       0.928   3.019  20.216  0.00  0.00    +0.000 A 
ATOM     20  C   UNL     1       0.886   2.732  18.860  0.00  0.00    +0.000 A 
ATOM     21  F   UNL     1       0.243   1.637  18.436  0.00  0.00    +0.000 F 
ATOM     22  C   UNL     1       1.496   3.571  17.934  0.00  0.00    +0.000 A 
ATOM     23  C   UNL     1       2.155   4.722  18.375  0.00  0.00    +0.000 A 
ENDBRANCH  16  17
ENDBRANCH  14  16
ENDBRANCH   4  12
BRANCH   5  24
ATOM     24  O   UNL     1       1.450   9.436  22.184  0.00  0.00    +0.000 OA
ATOM     25  H   UNL     1       2.202   8.912  21.835  0.00  0.00    +0.000 HD
ENDBRANCH   5  24
BRANCH   1  26
ATOM     26  C   UNL     1      -1.816  11.601  18.072  0.00  0.00    +0.000 C 
BRANCH  26  28
ATOM     27  C   UNL     1      -3.280  10.628  16.270  0.00  0.00    +0.000 C 
ATOM     28  C   UNL     1      -3.009  10.696  17.763  0.00  0.00    +0.000 C 
ENDBRANCH  26  28
ENDBRANCH   1  26
BRANCH   9  29
ATOM     29  C   UNL     1      -3.082  13.968  22.604  0.00  0.00    +0.000 C 
BRANCH  29  30
ATOM     30  C   UNL     1      -4.515  13.510  22.751  0.00  0.00    +0.000 A 
ATOM     31  C   UNL     1      -4.999  13.038  23.980  0.00  0.00    +0.000 A 
ATOM     32  C   UNL     1      -6.359  12.771  24.150  0.00  0.00    +0.000 A 
ATOM     33  C   UNL     1      -7.245  12.955  23.090  0.00  0.00    +0.000 A 
ATOM     34  C   UNL     1      -6.766  13.366  21.849  0.00  0.00    +0.000 A 
ATOM     35  C   UNL     1      -5.406  13.631  21.675  0.00  0.00    +0.000 A 
ENDBRANCH  29  30
ENDBRANCH   9  29
TORSDOF 8
ENDMDL
MODEL 9
REMARK VINA RESULT:      -8.5      3.061      8.839
REMARK  Name = 
REMARK  9 active torsions:
REMARK  status: ('A' for Active; 'I' for Inactive)
REMARK    1  A    between atoms: C_1  and  C_2
REMARK    2  A    between atoms: C_2  and  C_3
REMARK    3  A    between atoms: C_3  and  N_4
REMARK    4  A    between atoms: C_7  and  C_8
REMARK    5  A    between atoms: N_10  and  C_11
REMARK    6  A    between atoms: C_11  and  C_12
REMARK    7  A    between atoms: C_19  and  O_20
REMARK    8  A    between atoms: C_24  and  C_25
REMARK    9  A    between atoms: C_25  and  C_26
REMARK                            x       y       z     vdW  Elec       q    Type
REMARK                         _______ _______ _______ _____ _____    ______ ____
ROOT
ATOM      1  N   UNL     1       2.730   5.946  19.711  0.00  0.00    +0.000 N 
ATOM      2  C   UNL     1       3.680   5.102  19.145  0.00  0.00    +0.000 A 
ATOM      3  O   UNL     1       3.941   3.998  19.628  0.00  0.00    +0.000 OA
ATOM      4  C   UNL     1       4.408   5.561  17.925  0.00  0.00    +0.000 A 
ATOM      5  C   UNL     1       4.131   6.773  17.394  0.00  0.00    +0.000 A 
ATOM      6  C   UNL     1       3.107   7.644  18.000  0.00  0.00    +0.000 A 
ATOM      7  N   UNL     1       2.886   8.852  17.417  0.00  0.00    +0.000 NA
ATOM      8  C   UNL     1       1.928   9.642  17.949  0.00  0.00    +0.000 A 
ATOM      9  C   UNL     1       1.157   9.288  19.046  0.00  0.00    +0.000 A 
ATOM     10  C   UNL     1       1.414   8.045  19.633  0.00  0.00    +0.000 A 
ATOM     11  C   UNL     1       2.408   7.204  19.126  0.00  0.00    +0.000 A 
ENDROOT
BRANCH   4  12
ATOM     12  C   UNL     1       5.459   4.714  17.271  0.00  0.00    +0.000 C 
ATOM     13  O   UNL     1       6.564   4.574  17.793  0.00  0.00    +0.000 OA
ATOM     14  N   UNL     1       5.102   4.091  16.104  0.00  0.00    +0.000 N 
ATOM     15  H   UNL     1       4.184   4.289  15.707  0.00  0.00    +0.000 HD
BRANCH  14  16
ATOM     16  C   UNL     1       5.985   3.221  15.356  0.00  0.00    +0.000 C 
BRANCH  16  17
ATOM     17  C   UNL     1       6.498   3.875  14.097  0.00  0.00    +0.000 A 
ATOM     18  C   UNL     1       6.049   3.422  12.844  0.00  0.00    +0.000 A 
ATOM     19  C   UNL     1       6.469   4.055  11.667  0.00  0.00    +0.000 A 
ATOM     20  C   UNL     1       7.337   5.134  11.739  0.00  0.00    +0.000 A 
ATOM     21  F   UNL     1       7.730   5.743  10.613  0.00  0.00    +0.000 F 
ATOM     22  C   UNL     1       7.798   5.598  12.966  0.00  0.00    +0.000 A 
ATOM     23  C   UNL     1       7.378   4.972  14.143  0.00  0.00    +0.000 A 
ENDBRANCH  16  17
ENDBRANCH  14  16
ENDBRANCH   4  12
BRANCH   5  24
ATOM     24  O   UNL     1       4.760   7.296  16.271  0.00  0.00    +0.000 OA
ATOM     25  H   UNL     1       4.464   6.802  15.476  0.00  0.00    +0.000 HD
ENDBRANCH   5  24
BRANCH   1  26
ATOM     26  C   UNL     1       2.027   5.472  20.904  0.00  0.00    +0.000 C 
BRANCH  26  28
ATOM     27  C   UNL     1       1.311   3.100  21.350  0.00  0.00    +0.000 C 
ATOM     28  C   UNL     1       1.023   4.370  20.567  0.00  0.00    +0.000 C 
ENDBRANCH  26  28
ENDBRANCH   1  26
BRANCH   9  29
ATOM     29  C   UNL     1       0.103  10.201  19.606  0.00  0.00    +0.000 C 
BRANCH  29  30
ATOM     30  C   UNL     1      -1.063  10.491  18.689  0.00  0.00    +0.000 A 
ATOM     31  C   UNL     1      -1.266   9.740  17.521  0.00  0.00    +0.000 A 
ATOM     32  C   UNL     1      -2.430   9.904  16.766  0.00  0.00    +0.000 A 
ATOM     33  C   UNL     1      -3.392  10.831  17.161  0.00  0.00    +0.000 A 
ATOM     34  C   UNL     1      -3.174  11.624  18.285  0.00  0.00    +0.000 A 
ATOM     35  C   UNL     1      -2.009  11.464  19.039  0.00  0.00    +0.000 A 
ENDBRANCH  29  30
ENDBRANCH   9  29
TORSDOF 8
ENDMDL
