MODEL 1
REMARK VINA RESULT:      -7.4      0.000      0.000
REMARK  Name = 
REMARK  2 active torsions:
REMARK  status: ('A' for Active; 'I' for Inactive)
REMARK    1  A    between atoms: C_2  and  C_13
REMARK    2  A    between atoms: N_3  and  C_4
REMARK                            x       y       z     vdW  Elec       q    Type
REMARK                         _______ _______ _______ _____ _____    ______ ____
ROOT
ATOM      1  O   UNL     1       2.245   5.264  20.729  0.00  0.00    +0.000 OA
ATOM      2  C   UNL     1       2.663   6.053  19.883  0.00  0.00    +0.000 C 
ATOM      3  N   UNL     1       3.739   5.733  19.085  0.00  0.00    +0.000 N 
ATOM      4  H   UNL     1       4.144   6.483  18.535  0.00  0.00    +0.000 HD
ENDROOT
BRANCH   2   5
ATOM      5  C   UNL     1       2.071   7.356  19.661  0.00  0.00    +0.000 A 
ATOM      6  C   UNL     1       1.385   8.091  20.602  0.00  0.00    +0.000 A 
ATOM      7  C   UNL     1       1.064   9.403  20.146  0.00  0.00    +0.000 A 
ATOM      8  C   UNL     1       0.446  10.478  20.796  0.00  0.00    +0.000 A 
ATOM      9  F   UNL     1      -0.712  10.307  21.447  0.00  0.00    +0.000 F 
ATOM     10  C   UNL     1       0.887  11.757  20.523  0.00  0.00    +0.000 A 
ATOM     11  C   UNL     1       1.402  12.003  19.263  0.00  0.00    +0.000 A 
ATOM     12  C   UNL     1       1.591  10.955  18.351  0.00  0.00    +0.000 A 
ATOM     13  C   UNL     1       1.584   9.650  18.876  0.00  0.00    +0.000 A 
ATOM     14  S   UNL     1       2.145   8.187  18.165  0.00  0.00    +0.000 S 
ENDBRANCH   2   5
BRANCH   3  15
ATOM     15  C   UNL     1       4.439   4.466  19.240  0.00  0.00    +0.000 C 
ATOM     16  C   UNL     1       3.745   3.350  18.449  0.00  0.00    +0.000 C 
ATOM     17  C   UNL     1       3.827   3.572  16.936  0.00  0.00    +0.000 C 
ATOM     18  C   UNL     1       5.158   4.052  16.530  0.00  0.00    +0.000 A 
ATOM     19  N   UNL     1       5.636   4.124  15.289  0.00  0.00    +0.000 NA
ATOM     20  C   UNL     1       6.877   4.655  15.392  0.00  0.00    +0.000 A 
ATOM     21  C   UNL     1       7.193   4.911  16.703  0.00  0.00    +0.000 A 
ATOM     22  N   UNL     1       6.094   4.532  17.403  0.00  0.00    +0.000 N 
ATOM     23  C   UNL     1       5.921   4.570  18.846  0.00  0.00    +0.000 C 
ENDBRANCH   3  15
TORSDOF 2
ENDMDL
MODEL 2
REMARK VINA RESULT:      -7.3      1.471      1.816
REMARK  Name = 
REMARK  2 active torsions:
REMARK  status: ('A' for Active; 'I' for Inactive)
REMARK    1  A    between atoms: C_2  and  C_13
REMARK    2  A    between atoms: N_3  and  C_4
REMARK                            x       y       z     vdW  Elec       q    Type
REMARK                         _______ _______ _______ _____ _____    ______ ____
ROOT
ATOM      1  O   UNL     1       2.154   4.998  21.034  0.00  0.00    +0.000 OA
ATOM      2  C   UNL     1       2.549   5.816  20.204  0.00  0.00    +0.000 C 
ATOM      3  N   UNL     1       3.528   5.486  19.292  0.00  0.00    +0.000 N 
ATOM      4  H   UNL     1       3.932   6.245  18.755  0.00  0.00    +0.000 HD
ENDROOT
BRANCH   2   5
ATOM      5  C   UNL     1       2.030   7.165  20.119  0.00  0.00    +0.000 A 
ATOM      6  C   UNL     1       2.117   7.985  19.015  0.00  0.00    +0.000 A 
ATOM      7  C   UNL     1       1.372   9.190  19.168  0.00  0.00    +0.000 A 
ATOM      8  C   UNL     1       1.138  10.246  18.280  0.00  0.00    +0.000 A 
ATOM      9  F   UNL     1       2.154  10.832  17.633  0.00  0.00    +0.000 F 
ATOM     10  C   UNL     1      -0.099  10.858  18.291  0.00  0.00    +0.000 A 
ATOM     11  C   UNL     1      -0.790  10.887  19.489  0.00  0.00    +0.000 A 
ATOM     12  C   UNL     1      -0.304  10.200  20.610  0.00  0.00    +0.000 A 
ATOM     13  C   UNL     1       0.677   9.219  20.376  0.00  0.00    +0.000 A 
ATOM     14  S   UNL     1       1.213   7.949  21.405  0.00  0.00    +0.000 S 
ENDBRANCH   2   5
BRANCH   3  15
ATOM     15  C   UNL     1       4.152   4.170  19.304  0.00  0.00    +0.000 C 
ATOM     16  C   UNL     1       3.471   3.226  18.304  0.00  0.00    +0.000 C 
ATOM     17  C   UNL     1       3.683   3.664  16.853  0.00  0.00    +0.000 C 
ATOM     18  C   UNL     1       5.064   4.118  16.620  0.00  0.00    +0.000 A 
ATOM     19  N   UNL     1       5.642   4.345  15.443  0.00  0.00    +0.000 NA
ATOM     20  C   UNL     1       6.895   4.780  15.713  0.00  0.00    +0.000 A 
ATOM     21  C   UNL     1       7.118   4.821  17.068  0.00  0.00    +0.000 A 
ATOM     22  N   UNL     1       5.950   4.408  17.622  0.00  0.00    +0.000 N 
ATOM     23  C   UNL     1       5.664   4.243  19.037  0.00  0.00    +0.000 C 
ENDBRANCH   3  15
TORSDOF 2
ENDMDL
MODEL 3
REMARK VINA RESULT:      -7.3      2.328      3.503
REMARK  Name = 
REMARK  2 active torsions:
REMARK  status: ('A' for Active; 'I' for Inactive)
REMARK    1  A    between atoms: C_2  and  C_13
REMARK    2  A    between atoms: N_3  and  C_4
REMARK                            x       y       z     vdW  Elec       q    Type
REMARK                         _______ _______ _______ _____ _____    ______ ____
ROOT
ATOM      1  O   UNL     1       1.811   8.603  17.372  0.00  0.00    +0.000 OA
ATOM      2  C   UNL     1       2.029   8.193  18.512  0.00  0.00    +0.000 C 
ATOM      3  N   UNL     1       2.743   7.035  18.726  0.00  0.00    +0.000 N 
ATOM      4  H   UNL     1       2.739   6.658  19.667  0.00  0.00    +0.000 HD
ENDROOT
BRANCH   2   5
ATOM      5  C   UNL     1       1.561   8.881  19.698  0.00  0.00    +0.000 A 
ATOM      6  C   UNL     1       1.183  10.204  19.756  0.00  0.00    +0.000 A 
ATOM      7  C   UNL     1       0.611  10.556  21.013  0.00  0.00    +0.000 A 
ATOM      8  C   UNL     1       0.044  11.753  21.463  0.00  0.00    +0.000 A 
ATOM      9  F   UNL     1       0.694  12.915  21.315  0.00  0.00    +0.000 F 
ATOM     10  C   UNL     1      -1.048  11.692  22.306  0.00  0.00    +0.000 A 
ATOM     11  C   UNL     1      -1.148  10.600  23.148  0.00  0.00    +0.000 A 
ATOM     12  C   UNL     1      -0.242   9.535  23.047  0.00  0.00    +0.000 A 
ATOM     13  C   UNL     1       0.511   9.454  21.862  0.00  0.00    +0.000 A 
ATOM     14  S   UNL     1       1.407   8.128  21.230  0.00  0.00    +0.000 S 
ENDBRANCH   2   5
BRANCH   3  15
ATOM     15  C   UNL     1       3.233   6.238  17.610  0.00  0.00    +0.000 C 
ATOM     16  C   UNL     1       4.766   6.236  17.563  0.00  0.00    +0.000 C 
ATOM     17  C   UNL     1       5.384   5.513  18.763  0.00  0.00    +0.000 C 
ATOM     18  C   UNL     1       4.651   4.278  19.089  0.00  0.00    +0.000 A 
ATOM     19  N   UNL     1       5.046   3.309  19.911  0.00  0.00    +0.000 NA
ATOM     20  C   UNL     1       4.044   2.398  19.931  0.00  0.00    +0.000 A 
ATOM     21  C   UNL     1       3.013   2.785  19.111  0.00  0.00    +0.000 A 
ATOM     22  N   UNL     1       3.411   3.976  18.597  0.00  0.00    +0.000 N 
ATOM     23  C   UNL     1       2.689   4.800  17.641  0.00  0.00    +0.000 C 
ENDBRANCH   3  15
TORSDOF 2
ENDMDL
MODEL 4
REMARK VINA RESULT:      -7.2      2.673      3.986
REMARK  Name = 
REMARK  2 active torsions:
REMARK  status: ('A' for Active; 'I' for Inactive)
REMARK    1  A    between atoms: C_2  and  C_13
REMARK    2  A    between atoms: N_3  and  C_4
REMARK                            x       y       z     vdW  Elec       q    Type
REMARK                         _______ _______ _______ _____ _____    ______ ____
ROOT
ATOM      1  O   UNL     1       1.915   8.879  17.641  0.00  0.00    +0.000 OA
ATOM      2  C   UNL     1       1.860   8.439  18.789  0.00  0.00    +0.000 C 
ATOM      3  N   UNL     1       2.294   7.165  19.083  0.00  0.00    +0.000 N 
ATOM      4  H   UNL     1       2.063   6.800  20.000  0.00  0.00    +0.000 HD
ENDROOT
BRANCH   2   5
ATOM      5  C   UNL     1       1.345   9.209  19.903  0.00  0.00    +0.000 A 
ATOM      6  C   UNL     1       0.949  10.526  19.846  0.00  0.00    +0.000 A 
ATOM      7  C   UNL     1       0.331  10.965  21.054  0.00  0.00    +0.000 A 
ATOM      8  C   UNL     1      -0.265  12.185  21.392  0.00  0.00    +0.000 A 
ATOM      9  F   UNL     1       0.375  13.341  21.175  0.00  0.00    +0.000 F 
ATOM     10  C   UNL     1      -1.384  12.173  22.201  0.00  0.00    +0.000 A 
ATOM     11  C   UNL     1      -1.498  11.146  23.121  0.00  0.00    +0.000 A 
ATOM     12  C   UNL     1      -0.577  10.090  23.131  0.00  0.00    +0.000 A 
ATOM     13  C   UNL     1       0.216   9.931  21.981  0.00  0.00    +0.000 A 
ATOM     14  S   UNL     1       1.149   8.573  21.482  0.00  0.00    +0.000 S 
ENDBRANCH   2   5
BRANCH   3  15
ATOM     15  C   UNL     1       2.798   6.284  18.038  0.00  0.00    +0.000 C 
ATOM     16  C   UNL     1       4.240   5.851  18.330  0.00  0.00    +0.000 C 
ATOM     17  C   UNL     1       4.341   4.959  19.571  0.00  0.00    +0.000 C 
ATOM     18  C   UNL     1       3.246   3.976  19.621  0.00  0.00    +0.000 A 
ATOM     19  N   UNL     1       3.161   2.918  20.425  0.00  0.00    +0.000 NA
ATOM     20  C   UNL     1       1.975   2.327  20.148  0.00  0.00    +0.000 A 
ATOM     21  C   UNL     1       1.309   3.005  19.157  0.00  0.00    +0.000 A 
ATOM     22  N   UNL     1       2.122   4.046  18.845  0.00  0.00    +0.000 N 
ATOM     23  C   UNL     1       1.895   5.058  17.828  0.00  0.00    +0.000 C 
ENDBRANCH   3  15
TORSDOF 2
ENDMDL
MODEL 5
REMARK VINA RESULT:      -7.0      1.807      2.392
REMARK  Name = 
REMARK  2 active torsions:
REMARK  status: ('A' for Active; 'I' for Inactive)
REMARK    1  A    between atoms: C_2  and  C_13
REMARK    2  A    between atoms: N_3  and  C_4
REMARK                            x       y       z     vdW  Elec       q    Type
REMARK                         _______ _______ _______ _____ _____    ______ ____
ROOT
ATOM      1  O   UNL     1       2.041   5.508  20.572  0.00  0.00    +0.000 OA
ATOM      2  C   UNL     1       2.302   6.434  19.805  0.00  0.00    +0.000 C 
ATOM      3  N   UNL     1       3.127   6.245  18.719  0.00  0.00    +0.000 N 
ATOM      4  H   UNL     1       3.444   7.075  18.230  0.00  0.00    +0.000 HD
ENDROOT
BRANCH   2   5
ATOM      5  C   UNL     1       1.775   7.772  19.979  0.00  0.00    +0.000 A 
ATOM      6  C   UNL     1       1.788   8.764  19.023  0.00  0.00    +0.000 A 
ATOM      7  C   UNL     1       1.051   9.918  19.420  0.00  0.00    +0.000 A 
ATOM      8  C   UNL     1       0.757  11.103  18.736  0.00  0.00    +0.000 A 
ATOM      9  F   UNL     1       1.727  11.800  18.131  0.00  0.00    +0.000 F 
ATOM     10  C   UNL     1      -0.478  11.688  18.929  0.00  0.00    +0.000 A 
ATOM     11  C   UNL     1      -1.087  11.510  20.158  0.00  0.00    +0.000 A 
ATOM     12  C   UNL     1      -0.527  10.653  21.116  0.00  0.00    +0.000 A 
ATOM     13  C   UNL     1       0.438   9.738  20.659  0.00  0.00    +0.000 A 
ATOM     14  S   UNL     1       1.044   8.322  21.427  0.00  0.00    +0.000 S 
ENDBRANCH   2   5
BRANCH   3  15
ATOM     15  C   UNL     1       3.746   4.952  18.462  0.00  0.00    +0.000 C 
ATOM     16  C   UNL     1       4.074   4.782  16.973  0.00  0.00    +0.000 C 
ATOM     17  C   UNL     1       5.161   5.752  16.501  0.00  0.00    +0.000 C 
ATOM     18  C   UNL     1       6.245   5.872  17.490  0.00  0.00    +0.000 A 
ATOM     19  N   UNL     1       7.435   6.440  17.304  0.00  0.00    +0.000 NA
ATOM     20  C   UNL     1       8.085   6.352  18.488  0.00  0.00    +0.000 A 
ATOM     21  C   UNL     1       7.311   5.716  19.427  0.00  0.00    +0.000 A 
ATOM     22  N   UNL     1       6.152   5.430  18.781  0.00  0.00    +0.000 N 
ATOM     23  C   UNL     1       5.000   4.728  19.322  0.00  0.00    +0.000 C 
ENDBRANCH   3  15
TORSDOF 2
ENDMDL
MODEL 6
REMARK VINA RESULT:      -6.9      1.508      2.084
REMARK  Name = 
REMARK  2 active torsions:
REMARK  status: ('A' for Active; 'I' for Inactive)
REMARK    1  A    between atoms: C_2  and  C_13
REMARK    2  A    between atoms: N_3  and  C_4
REMARK                            x       y       z     vdW  Elec       q    Type
REMARK                         _______ _______ _______ _____ _____    ______ ____
ROOT
ATOM      1  O   UNL     1       3.437   5.217  20.275  0.00  0.00    +0.000 OA
ATOM      2  C   UNL     1       3.033   5.977  19.397  0.00  0.00    +0.000 C 
ATOM      3  N   UNL     1       3.398   5.800  18.081  0.00  0.00    +0.000 N 
ATOM      4  H   UNL     1       3.180   6.552  17.436  0.00  0.00    +0.000 HD
ENDROOT
BRANCH   2   5
ATOM      5  C   UNL     1       2.157   7.100  19.668  0.00  0.00    +0.000 A 
ATOM      6  C   UNL     1       1.438   7.288  20.828  0.00  0.00    +0.000 A 
ATOM      7  C   UNL     1       0.799   8.561  20.876  0.00  0.00    +0.000 A 
ATOM      8  C   UNL     1       0.043   9.174  21.881  0.00  0.00    +0.000 A 
ATOM      9  F   UNL     1      -0.974   8.524  22.462  0.00  0.00    +0.000 F 
ATOM     10  C   UNL     1       0.170  10.536  22.067  0.00  0.00    +0.000 A 
ATOM     11  C   UNL     1       0.480  11.308  20.962  0.00  0.00    +0.000 A 
ATOM     12  C   UNL     1       0.785  10.706  19.733  0.00  0.00    +0.000 A 
ATOM     13  C   UNL     1       1.112   9.339  19.762  0.00  0.00    +0.000 A 
ATOM     14  S   UNL     1       1.889   8.380  18.562  0.00  0.00    +0.000 S 
ENDBRANCH   2   5
BRANCH   3  15
ATOM     15  C   UNL     1       4.303   4.728  17.691  0.00  0.00    +0.000 C 
ATOM     16  C   UNL     1       4.743   4.880  16.229  0.00  0.00    +0.000 C 
ATOM     17  C   UNL     1       5.611   6.123  16.009  0.00  0.00    +0.000 C 
ATOM     18  C   UNL     1       6.584   6.304  17.099  0.00  0.00    +0.000 A 
ATOM     19  N   UNL     1       7.625   7.134  17.109  0.00  0.00    +0.000 NA
ATOM     20  C   UNL     1       8.211   6.990  18.320  0.00  0.00    +0.000 A 
ATOM     21  C   UNL     1       7.547   6.059  19.079  0.00  0.00    +0.000 A 
ATOM     22  N   UNL     1       6.520   5.645  18.295  0.00  0.00    +0.000 N 
ATOM     23  C   UNL     1       5.525   4.635  18.619  0.00  0.00    +0.000 C 
ENDBRANCH   3  15
TORSDOF 2
ENDMDL
MODEL 7
REMARK VINA RESULT:      -6.7      2.142      3.111
REMARK  Name = 
REMARK  2 active torsions:
REMARK  status: ('A' for Active; 'I' for Inactive)
REMARK    1  A    between atoms: C_2  and  C_13
REMARK    2  A    between atoms: N_3  and  C_4
REMARK                            x       y       z     vdW  Elec       q    Type
REMARK                         _______ _______ _______ _____ _____    ______ ____
ROOT
ATOM      1  O   UNL     1       3.348   8.280  16.877  0.00  0.00    +0.000 OA
ATOM      2  C   UNL     1       2.938   7.874  17.963  0.00  0.00    +0.000 C 
ATOM      3  N   UNL     1       3.416   6.705  18.512  0.00  0.00    +0.000 N 
ATOM      4  H   UNL     1       2.919   6.334  19.314  0.00  0.00    +0.000 HD
ENDROOT
BRANCH   2   5
ATOM      5  C   UNL     1       1.936   8.578  18.740  0.00  0.00    +0.000 A 
ATOM      6  C   UNL     1       1.437   8.167  19.956  0.00  0.00    +0.000 A 
ATOM      7  C   UNL     1       0.591   9.143  20.559  0.00  0.00    +0.000 A 
ATOM      8  C   UNL     1      -0.055   9.160  21.800  0.00  0.00    +0.000 A 
ATOM      9  F   UNL     1      -0.796   8.118  22.198  0.00  0.00    +0.000 F 
ATOM     10  C   UNL     1      -0.155  10.359  22.477  0.00  0.00    +0.000 A 
ATOM     11  C   UNL     1      -0.220  11.518  21.723  0.00  0.00    +0.000 A 
ATOM     12  C   UNL     1      -0.054  11.475  20.332  0.00  0.00    +0.000 A 
ATOM     13  C   UNL     1       0.525  10.310  19.799  0.00  0.00    +0.000 A 
ATOM     14  S   UNL     1       1.218  10.052  18.245  0.00  0.00    +0.000 S 
ENDBRANCH   2   5
BRANCH   3  15
ATOM     15  C   UNL     1       4.398   5.892  17.808  0.00  0.00    +0.000 C 
ATOM     16  C   UNL     1       5.448   5.332  18.775  0.00  0.00    +0.000 C 
ATOM     17  C   UNL     1       4.852   4.323  19.761  0.00  0.00    +0.000 C 
ATOM     18  C   UNL     1       3.896   3.419  19.099  0.00  0.00    +0.000 A 
ATOM     19  N   UNL     1       3.378   2.300  19.601  0.00  0.00    +0.000 NA
ATOM     20  C   UNL     1       2.527   1.824  18.662  0.00  0.00    +0.000 A 
ATOM     21  C   UNL     1       2.511   2.637  17.556  0.00  0.00    +0.000 A 
ATOM     22  N   UNL     1       3.373   3.642  17.855  0.00  0.00    +0.000 N 
ATOM     23  C   UNL     1       3.742   4.759  17.003  0.00  0.00    +0.000 C 
ENDBRANCH   3  15
TORSDOF 2
ENDMDL
MODEL 8
REMARK VINA RESULT:      -6.7      3.638      7.699
REMARK  Name = 
REMARK  2 active torsions:
REMARK  status: ('A' for Active; 'I' for Inactive)
REMARK    1  A    between atoms: C_2  and  C_13
REMARK    2  A    between atoms: N_3  and  C_4
REMARK                            x       y       z     vdW  Elec       q    Type
REMARK                         _______ _______ _______ _____ _____    ______ ____
ROOT
ATOM      1  O   UNL     1       1.722   7.392  21.012  0.00  0.00    +0.000 OA
ATOM      2  C   UNL     1       1.895   7.786  19.859  0.00  0.00    +0.000 C 
ATOM      3  N   UNL     1       1.458   9.030  19.461  0.00  0.00    +0.000 N 
ATOM      4  H   UNL     1       1.471   9.227  18.466  0.00  0.00    +0.000 HD
ENDROOT
BRANCH   2   5
ATOM      5  C   UNL     1       2.557   6.990  18.846  0.00  0.00    +0.000 A 
ATOM      6  C   UNL     1       3.391   7.481  17.866  0.00  0.00    +0.000 A 
ATOM      7  C   UNL     1       4.026   6.446  17.118  0.00  0.00    +0.000 A 
ATOM      8  C   UNL     1       4.982   6.503  16.098  0.00  0.00    +0.000 A 
ATOM      9  F   UNL     1       4.804   7.303  15.039  0.00  0.00    +0.000 F 
ATOM     10  C   UNL     1       5.960   5.529  16.053  0.00  0.00    +0.000 A 
ATOM     11  C   UNL     1       5.637   4.274  16.537  0.00  0.00    +0.000 A 
ATOM     12  C   UNL     1       4.408   4.047  17.171  0.00  0.00    +0.000 A 
ATOM     13  C   UNL     1       3.701   5.182  17.606  0.00  0.00    +0.000 A 
ATOM     14  S   UNL     1       2.396   5.289  18.723  0.00  0.00    +0.000 S 
ENDBRANCH   2   5
BRANCH   3  15
ATOM     15  C   UNL     1       0.746   9.906  20.381  0.00  0.00    +0.000 C 
ATOM     16  C   UNL     1       1.213  11.360  20.233  0.00  0.00    +0.000 C 
ATOM     17  C   UNL     1       0.837  11.956  18.874  0.00  0.00    +0.000 C 
ATOM     18  C   UNL     1      -0.526  11.570  18.471  0.00  0.00    +0.000 A 
ATOM     19  N   UNL     1      -1.241  12.091  17.476  0.00  0.00    +0.000 NA
ATOM     20  C   UNL     1      -2.410  11.407  17.453  0.00  0.00    +0.000 A 
ATOM     21  C   UNL     1      -2.442  10.457  18.444  0.00  0.00    +0.000 A 
ATOM     22  N   UNL     1      -1.242  10.570  19.068  0.00  0.00    +0.000 N 
ATOM     23  C   UNL     1      -0.778   9.806  20.214  0.00  0.00    +0.000 C 
ENDBRANCH   3  15
TORSDOF 2
ENDMDL
MODEL 9
REMARK VINA RESULT:      -6.6      2.687      3.709
REMARK  Name = 
REMARK  2 active torsions:
REMARK  status: ('A' for Active; 'I' for Inactive)
REMARK    1  A    between atoms: C_2  and  C_13
REMARK    2  A    between atoms: N_3  and  C_4
REMARK                            x       y       z     vdW  Elec       q    Type
REMARK                         _______ _______ _______ _____ _____    ______ ____
ROOT
ATOM      1  O   UNL     1       2.579   8.861  17.472  0.00  0.00    +0.000 OA
ATOM      2  C   UNL     1       1.974   8.377  18.427  0.00  0.00    +0.000 C 
ATOM      3  N   UNL     1       2.201   7.078  18.827  0.00  0.00    +0.000 N 
ATOM      4  H   UNL     1       1.553   6.684  19.501  0.00  0.00    +0.000 HD
ENDROOT
BRANCH   2   5
ATOM      5  C   UNL     1       0.993   9.117  19.194  0.00  0.00    +0.000 A 
ATOM      6  C   UNL     1       0.855   9.074  20.564  0.00  0.00    +0.000 A 
ATOM      7  C   UNL     1      -0.082  10.032  21.050  0.00  0.00    +0.000 A 
ATOM      8  C   UNL     1      -0.465  10.365  22.355  0.00  0.00    +0.000 A 
ATOM      9  F   UNL     1      -0.827   9.413  23.224  0.00  0.00    +0.000 F 
ATOM     10  C   UNL     1      -0.735  11.687  22.647  0.00  0.00    +0.000 A 
ATOM     11  C   UNL     1      -1.234  12.479  21.629  0.00  0.00    +0.000 A 
ATOM     12  C   UNL     1      -1.329  11.986  20.321  0.00  0.00    +0.000 A 
ATOM     13  C   UNL     1      -0.585  10.830  20.024  0.00  0.00    +0.000 A 
ATOM     14  S   UNL     1      -0.157  10.175  18.492  0.00  0.00    +0.000 S 
ENDBRANCH   2   5
BRANCH   3  15
ATOM     15  C   UNL     1       3.138   6.224  18.111  0.00  0.00    +0.000 C 
ATOM     16  C   UNL     1       4.304   5.803  19.014  0.00  0.00    +0.000 C 
ATOM     17  C   UNL     1       3.854   4.889  20.157  0.00  0.00    +0.000 C 
ATOM     18  C   UNL     1       2.872   3.891  19.698  0.00  0.00    +0.000 A 
ATOM     19  N   UNL     1       2.456   2.817  20.365  0.00  0.00    +0.000 NA
ATOM     20  C   UNL     1       1.533   2.217  19.578  0.00  0.00    +0.000 A 
ATOM     21  C   UNL     1       1.370   2.906  18.401  0.00  0.00    +0.000 A 
ATOM     22  N   UNL     1       2.216   3.962  18.501  0.00  0.00    +0.000 N 
ATOM     23  C   UNL     1       2.449   4.992  17.502  0.00  0.00    +0.000 C 
ENDBRANCH   3  15
TORSDOF 2
ENDMDL
