MODEL 1
REMARK VINA RESULT:      -8.7      0.000      0.000
REMARK  Name = 
REMARK  6 active torsions:
REMARK  status: ('A' for Active; 'I' for Inactive)
REMARK    1  A    between atoms: C_1  and  C_2
REMARK    2  A    between atoms: C_2  and  C_3
REMARK    3  A    between atoms: C_7  and  N_8
REMARK    4  A    between atoms: N_8  and  C_9
REMARK    5  A    between atoms: C_13  and  C_14
REMARK    6  A    between atoms: C_14  and  O_16
REMARK                            x       y       z     vdW  Elec       q    Type
REMARK                         _______ _______ _______ _____ _____    ______ ____
ROOT
ATOM      1  C   UNL     1       2.571   5.869  19.935  0.00  0.00    +0.000 A 
ATOM      2  N   UNL     1       3.671   6.232  19.237  0.00  0.00    +0.000 NA
ATOM      3  C   UNL     1       4.210   5.467  18.298  0.00  0.00    +0.000 A 
ATOM      4  C   UNL     1       5.327   5.950  17.645  0.00  0.00    +0.000 A 
ATOM      5  C   UNL     1       5.926   5.236  16.604  0.00  0.00    +0.000 A 
ATOM      6  C   UNL     1       5.427   3.983  16.235  0.00  0.00    +0.000 A 
ATOM      7  C   UNL     1       4.310   3.467  16.897  0.00  0.00    +0.000 A 
ATOM      8  C   UNL     1       3.696   4.220  17.930  0.00  0.00    +0.000 A 
ATOM      9  C   UNL     1       2.553   3.791  18.660  0.00  0.00    +0.000 A 
ATOM     10  S   UNL     1       1.675   2.308  18.461  0.00  0.00    +0.000 S 
ATOM     11  C   UNL     1       0.564   2.703  19.682  0.00  0.00    +0.000 A 
ATOM     12  C   UNL     1       0.838   3.924  20.249  0.00  0.00    +0.000 A 
ATOM     13  C   UNL     1       1.990   4.592  19.668  0.00  0.00    +0.000 A 
ENDROOT
BRANCH   1  14
ATOM     14  N   UNL     1       2.063   6.757  20.898  0.00  0.00    +0.000 N 
ATOM     15  H   UNL     1       2.210   6.454  21.850  0.00  0.00    +0.000 HD
BRANCH  14  20
ATOM     16  C   UNL     1       0.089   9.903  21.644  0.00  0.00    +0.000 A 
ATOM     17  C   UNL     1       0.127  10.490  20.371  0.00  0.00    +0.000 A 
ATOM     18  C   UNL     1       0.764   9.852  19.312  0.00  0.00    +0.000 A 
ATOM     19  C   UNL     1       1.381   8.615  19.513  0.00  0.00    +0.000 A 
ATOM     20  C   UNL     1       1.388   7.993  20.773  0.00  0.00    +0.000 A 
ATOM     21  C   UNL     1       0.719   8.653  21.826  0.00  0.00    +0.000 A 
BRANCH  16  23
ATOM     22  C   UNL     1      -1.048  12.116  22.437  0.00  0.00    +0.000 C 
ATOM     23  C   UNL     1      -0.633  10.681  22.725  0.00  0.00    +0.000 C 
ENDBRANCH  16  23
ENDBRANCH  14  20
ENDBRANCH   1  14
BRANCH   5  24
ATOM     24  C   UNL     1       7.101   5.852  15.945  0.00  0.00    +0.000 C 
ATOM     25  O   UNL     1       7.584   5.421  14.914  0.00  0.00    +0.000 OA
BRANCH  24  26
ATOM     26  O   UNL     1       7.615   6.895  16.627  0.00  0.00    +0.000 OA
ATOM     27  H   UNL     1       6.963   7.433  17.111  0.00  0.00    +0.000 HD
ENDBRANCH  24  26
ENDBRANCH   5  24
TORSDOF 5
ENDMDL
MODEL 2
REMARK VINA RESULT:      -8.6      0.695      1.692
REMARK  Name = 
REMARK  6 active torsions:
REMARK  status: ('A' for Active; 'I' for Inactive)
REMARK    1  A    between atoms: C_1  and  C_2
REMARK    2  A    between atoms: C_2  and  C_3
REMARK    3  A    between atoms: C_7  and  N_8
REMARK    4  A    between atoms: N_8  and  C_9
REMARK    5  A    between atoms: C_13  and  C_14
REMARK    6  A    between atoms: C_14  and  O_16
REMARK                            x       y       z     vdW  Elec       q    Type
REMARK                         _______ _______ _______ _____ _____    ______ ____
ROOT
ATOM      1  C   UNL     1       2.606   5.994  19.942  0.00  0.00    +0.000 A 
ATOM      2  N   UNL     1       3.696   6.329  19.215  0.00  0.00    +0.000 NA
ATOM      3  C   UNL     1       4.205   5.542  18.279  0.00  0.00    +0.000 A 
ATOM      4  C   UNL     1       5.315   5.998  17.595  0.00  0.00    +0.000 A 
ATOM      5  C   UNL     1       5.883   5.258  16.555  0.00  0.00    +0.000 A 
ATOM      6  C   UNL     1       5.360   4.006  16.218  0.00  0.00    +0.000 A 
ATOM      7  C   UNL     1       4.250   3.516  16.911  0.00  0.00    +0.000 A 
ATOM      8  C   UNL     1       3.668   4.295  17.943  0.00  0.00    +0.000 A 
ATOM      9  C   UNL     1       2.534   3.894  18.703  0.00  0.00    +0.000 A 
ATOM     10  S   UNL     1       1.632   2.421  18.548  0.00  0.00    +0.000 S 
ATOM     11  C   UNL     1       0.552   2.851  19.784  0.00  0.00    +0.000 A 
ATOM     12  C   UNL     1       0.854   4.078  20.324  0.00  0.00    +0.000 A 
ATOM     13  C   UNL     1       2.002   4.720  19.709  0.00  0.00    +0.000 A 
ENDROOT
BRANCH   1  14
ATOM     14  N   UNL     1       2.129   6.905  20.899  0.00  0.00    +0.000 N 
ATOM     15  H   UNL     1       2.349   6.649  21.850  0.00  0.00    +0.000 HD
BRANCH  14  20
ATOM     16  C   UNL     1       0.261   9.876  19.472  0.00  0.00    +0.000 A 
ATOM     17  C   UNL     1      -0.099  10.503  20.674  0.00  0.00    +0.000 A 
ATOM     18  C   UNL     1       0.284   9.968  21.899  0.00  0.00    +0.000 A 
ATOM     19  C   UNL     1       1.031   8.788  21.941  0.00  0.00    +0.000 A 
ATOM     20  C   UNL     1       1.401   8.111  20.767  0.00  0.00    +0.000 A 
ATOM     21  C   UNL     1       1.015   8.684  19.537  0.00  0.00    +0.000 A 
BRANCH  16  23
ATOM     22  C   UNL     1      -1.554  10.144  17.614  0.00  0.00    +0.000 C 
ATOM     23  C   UNL     1      -0.207  10.544  18.195  0.00  0.00    +0.000 C 
ENDBRANCH  16  23
ENDBRANCH  14  20
ENDBRANCH   1  14
BRANCH   5  24
ATOM     24  C   UNL     1       7.052   5.847  15.862  0.00  0.00    +0.000 C 
ATOM     25  O   UNL     1       7.486   5.414  14.809  0.00  0.00    +0.000 OA
BRANCH  24  26
ATOM     26  O   UNL     1       7.621   6.866  16.536  0.00  0.00    +0.000 OA
ATOM     27  H   UNL     1       7.067   7.664  16.621  0.00  0.00    +0.000 HD
ENDBRANCH  24  26
ENDBRANCH   5  24
TORSDOF 5
ENDMDL
MODEL 3
REMARK VINA RESULT:      -8.4      1.943      2.834
REMARK  Name = 
REMARK  6 active torsions:
REMARK  status: ('A' for Active; 'I' for Inactive)
REMARK    1  A    between atoms: C_1  and  C_2
REMARK    2  A    between atoms: C_2  and  C_3
REMARK    3  A    between atoms: C_7  and  N_8
REMARK    4  A    between atoms: N_8  and  C_9
REMARK    5  A    between atoms: C_13  and  C_14
REMARK    6  A    between atoms: C_14  and  O_16
REMARK                            x       y       z     vdW  Elec       q    Type
REMARK                         _______ _______ _______ _____ _____    ______ ____
ROOT
ATOM      1  C   UNL     1       3.067   7.519  18.262  0.00  0.00    +0.000 A 
ATOM      2  N   UNL     1       3.943   7.305  17.254  0.00  0.00    +0.000 NA
ATOM      3  C   UNL     1       4.411   6.102  16.952  0.00  0.00    +0.000 A 
ATOM      4  C   UNL     1       5.292   6.006  15.893  0.00  0.00    +0.000 A 
ATOM      5  C   UNL     1       5.791   4.772  15.471  0.00  0.00    +0.000 A 
ATOM      6  C   UNL     1       5.440   3.604  16.154  0.00  0.00    +0.000 A 
ATOM      7  C   UNL     1       4.565   3.680  17.241  0.00  0.00    +0.000 A 
ATOM      8  C   UNL     1       4.045   4.938  17.635  0.00  0.00    +0.000 A 
ATOM      9  C   UNL     1       3.143   5.125  18.720  0.00  0.00    +0.000 A 
ATOM     10  S   UNL     1       2.494   3.906  19.769  0.00  0.00    +0.000 S 
ATOM     11  C   UNL     1       1.585   5.031  20.655  0.00  0.00    +0.000 A 
ATOM     12  C   UNL     1       1.760   6.312  20.190  0.00  0.00    +0.000 A 
ATOM     13  C   UNL     1       2.659   6.402  19.053  0.00  0.00    +0.000 A 
ENDROOT
BRANCH   1  14
ATOM     14  N   UNL     1       2.613   8.829  18.491  0.00  0.00    +0.000 N 
ATOM     15  H   UNL     1       3.353   9.513  18.542  0.00  0.00    +0.000 HD
BRANCH  14  20
ATOM     16  C   UNL     1      -0.963   9.924  17.889  0.00  0.00    +0.000 A 
ATOM     17  C   UNL     1      -1.266  10.391  19.176  0.00  0.00    +0.000 A 
ATOM     18  C   UNL     1      -0.312  10.361  20.188  0.00  0.00    +0.000 A 
ATOM     19  C   UNL     1       0.963   9.853  19.929  0.00  0.00    +0.000 A 
ATOM     20  C   UNL     1       1.312   9.355  18.662  0.00  0.00    +0.000 A 
ATOM     21  C   UNL     1       0.331   9.414  17.648  0.00  0.00    +0.000 A 
BRANCH  16  23
ATOM     22  C   UNL     1      -3.516  10.002  17.346  0.00  0.00    +0.000 C 
ATOM     23  C   UNL     1      -2.074  10.006  16.862  0.00  0.00    +0.000 C 
ENDBRANCH  16  23
ENDBRANCH  14  20
ENDBRANCH   1  14
BRANCH   5  24
ATOM     24  C   UNL     1       6.706   4.771  14.307  0.00  0.00    +0.000 C 
ATOM     25  O   UNL     1       7.680   5.497  14.227  0.00  0.00    +0.000 OA
BRANCH  24  26
ATOM     26  O   UNL     1       6.323   3.933  13.322  0.00  0.00    +0.000 OA
ATOM     27  H   UNL     1       5.866   3.126  13.622  0.00  0.00    +0.000 HD
ENDBRANCH  24  26
ENDBRANCH   5  24
TORSDOF 5
ENDMDL
MODEL 4
REMARK VINA RESULT:      -8.4      3.003      7.422
REMARK  Name = 
REMARK  6 active torsions:
REMARK  status: ('A' for Active; 'I' for Inactive)
REMARK    1  A    between atoms: C_1  and  C_2
REMARK    2  A    between atoms: C_2  and  C_3
REMARK    3  A    between atoms: C_7  and  N_8
REMARK    4  A    between atoms: N_8  and  C_9
REMARK    5  A    between atoms: C_13  and  C_14
REMARK    6  A    between atoms: C_14  and  O_16
REMARK                            x       y       z     vdW  Elec       q    Type
REMARK                         _______ _______ _______ _____ _____    ______ ____
ROOT
ATOM      1  C   UNL     1       4.052   4.340  17.977  0.00  0.00    +0.000 A 
ATOM      2  N   UNL     1       3.709   5.590  17.592  0.00  0.00    +0.000 NA
ATOM      3  C   UNL     1       2.962   6.392  18.339  0.00  0.00    +0.000 A 
ATOM      4  C   UNL     1       2.687   7.651  17.845  0.00  0.00    +0.000 A 
ATOM      5  C   UNL     1       1.956   8.580  18.589  0.00  0.00    +0.000 A 
ATOM      6  C   UNL     1       1.443   8.228  19.841  0.00  0.00    +0.000 A 
ATOM      7  C   UNL     1       1.692   6.951  20.350  0.00  0.00    +0.000 A 
ATOM      8  C   UNL     1       2.463   6.032  19.595  0.00  0.00    +0.000 A 
ATOM      9  C   UNL     1       2.781   4.714  20.024  0.00  0.00    +0.000 A 
ATOM     10  S   UNL     1       2.323   3.954  21.514  0.00  0.00    +0.000 S 
ATOM     11  C   UNL     1       3.130   2.513  21.127  0.00  0.00    +0.000 A 
ATOM     12  C   UNL     1       3.735   2.579  19.896  0.00  0.00    +0.000 A 
ATOM     13  C   UNL     1       3.558   3.855  19.226  0.00  0.00    +0.000 A 
ENDROOT
BRANCH   1  14
ATOM     14  N   UNL     1       4.864   3.573  17.124  0.00  0.00    +0.000 N 
ATOM     15  H   UNL     1       4.909   2.596  17.374  0.00  0.00    +0.000 HD
BRANCH  14  20
ATOM     16  C   UNL     1       6.147   3.865  13.571  0.00  0.00    +0.000 A 
ATOM     17  C   UNL     1       7.201   4.762  13.795  0.00  0.00    +0.000 A 
ATOM     18  C   UNL     1       7.481   5.228  15.075  0.00  0.00    +0.000 A 
ATOM     19  C   UNL     1       6.702   4.807  16.155  0.00  0.00    +0.000 A 
ATOM     20  C   UNL     1       5.622   3.924  15.983  0.00  0.00    +0.000 A 
ATOM     21  C   UNL     1       5.371   3.452  14.676  0.00  0.00    +0.000 A 
BRANCH  16  23
ATOM     22  C   UNL     1       4.507   3.226  11.643  0.00  0.00    +0.000 C 
ATOM     23  C   UNL     1       5.931   3.419  12.139  0.00  0.00    +0.000 C 
ENDBRANCH  16  23
ENDBRANCH  14  20
ENDBRANCH   1  14
BRANCH   5  24
ATOM     24  C   UNL     1       1.740   9.915  17.986  0.00  0.00    +0.000 C 
ATOM     25  O   UNL     1       2.654  10.649  17.654  0.00  0.00    +0.000 OA
BRANCH  24  26
ATOM     26  O   UNL     1       0.440  10.262  17.895  0.00  0.00    +0.000 OA
ATOM     27  H   UNL     1       0.221  11.138  18.261  0.00  0.00    +0.000 HD
ENDBRANCH  24  26
ENDBRANCH   5  24
TORSDOF 5
ENDMDL
MODEL 5
REMARK VINA RESULT:      -8.2      1.639      2.085
REMARK  Name = 
REMARK  6 active torsions:
REMARK  status: ('A' for Active; 'I' for Inactive)
REMARK    1  A    between atoms: C_1  and  C_2
REMARK    2  A    between atoms: C_2  and  C_3
REMARK    3  A    between atoms: C_7  and  N_8
REMARK    4  A    between atoms: N_8  and  C_9
REMARK    5  A    between atoms: C_13  and  C_14
REMARK    6  A    between atoms: C_14  and  O_16
REMARK                            x       y       z     vdW  Elec       q    Type
REMARK                         _______ _______ _______ _____ _____    ______ ____
ROOT
ATOM      1  C   UNL     1       3.103   7.566  18.167  0.00  0.00    +0.000 A 
ATOM      2  N   UNL     1       3.954   7.323  17.145  0.00  0.00    +0.000 NA
ATOM      3  C   UNL     1       4.430   6.115  16.878  0.00  0.00    +0.000 A 
ATOM      4  C   UNL     1       5.284   5.988  15.801  0.00  0.00    +0.000 A 
ATOM      5  C   UNL     1       5.788   4.744  15.414  0.00  0.00    +0.000 A 
ATOM      6  C   UNL     1       5.470   3.600  16.152  0.00  0.00    +0.000 A 
ATOM      7  C   UNL     1       4.624   3.708  17.258  0.00  0.00    +0.000 A 
ATOM      8  C   UNL     1       4.097   4.974  17.617  0.00  0.00    +0.000 A 
ATOM      9  C   UNL     1       3.223   5.193  18.718  0.00  0.00    +0.000 A 
ATOM     10  S   UNL     1       2.618   4.009  19.830  0.00  0.00    +0.000 S 
ATOM     11  C   UNL     1       1.717   5.157  20.696  0.00  0.00    +0.000 A 
ATOM     12  C   UNL     1       1.863   6.421  20.177  0.00  0.00    +0.000 A 
ATOM     13  C   UNL     1       2.730   6.476  19.013  0.00  0.00    +0.000 A 
ENDROOT
BRANCH   1  14
ATOM     14  N   UNL     1       2.637   8.878  18.357  0.00  0.00    +0.000 N 
ATOM     15  H   UNL     1       3.325   9.588  18.152  0.00  0.00    +0.000 HD
BRANCH  14  20
ATOM     16  C   UNL     1      -0.207  10.210  20.476  0.00  0.00    +0.000 A 
ATOM     17  C   UNL     1      -1.151  10.423  19.461  0.00  0.00    +0.000 A 
ATOM     18  C   UNL     1      -0.856  10.115  18.137  0.00  0.00    +0.000 A 
ATOM     19  C   UNL     1       0.396   9.593  17.806  0.00  0.00    +0.000 A 
ATOM     20  C   UNL     1       1.384   9.379  18.781  0.00  0.00    +0.000 A 
ATOM     21  C   UNL     1       1.053   9.683  20.119  0.00  0.00    +0.000 A 
BRANCH  16  23
ATOM     22  C   UNL     1      -0.221   9.668  23.030  0.00  0.00    +0.000 C 
ATOM     23  C   UNL     1      -0.632  10.578  21.882  0.00  0.00    +0.000 C 
ENDBRANCH  16  23
ENDBRANCH  14  20
ENDBRANCH   1  14
BRANCH   5  24
ATOM     24  C   UNL     1       6.671   4.708  14.226  0.00  0.00    +0.000 C 
ATOM     25  O   UNL     1       6.472   3.976  13.274  0.00  0.00    +0.000 OA
BRANCH  24  26
ATOM     26  O   UNL     1       7.744   5.518  14.328  0.00  0.00    +0.000 OA
ATOM     27  H   UNL     1       8.388   5.264  15.014  0.00  0.00    +0.000 HD
ENDBRANCH  24  26
ENDBRANCH   5  24
TORSDOF 5
ENDMDL
MODEL 6
REMARK VINA RESULT:      -7.8      4.971      8.272
REMARK  Name = 
REMARK  6 active torsions:
REMARK  status: ('A' for Active; 'I' for Inactive)
REMARK    1  A    between atoms: C_1  and  C_2
REMARK    2  A    between atoms: C_2  and  C_3
REMARK    3  A    between atoms: C_7  and  N_8
REMARK    4  A    between atoms: N_8  and  C_9
REMARK    5  A    between atoms: C_13  and  C_14
REMARK    6  A    between atoms: C_14  and  O_16
REMARK                            x       y       z     vdW  Elec       q    Type
REMARK                         _______ _______ _______ _____ _____    ______ ____
ROOT
ATOM      1  C   UNL     1       0.074  10.038  19.492  0.00  0.00    +0.000 A 
ATOM      2  N   UNL     1      -0.419   9.748  18.267  0.00  0.00    +0.000 NA
ATOM      3  C   UNL     1      -1.532  10.290  17.793  0.00  0.00    +0.000 A 
ATOM      4  C   UNL     1      -1.930   9.924  16.522  0.00  0.00    +0.000 A 
ATOM      5  C   UNL     1      -3.059  10.488  15.923  0.00  0.00    +0.000 A 
ATOM      6  C   UNL     1      -3.841  11.407  16.628  0.00  0.00    +0.000 A 
ATOM      7  C   UNL     1      -3.468  11.776  17.924  0.00  0.00    +0.000 A 
ATOM      8  C   UNL     1      -2.302  11.217  18.503  0.00  0.00    +0.000 A 
ATOM      9  C   UNL     1      -1.830  11.530  19.809  0.00  0.00    +0.000 A 
ATOM     10  S   UNL     1      -2.539  12.628  20.947  0.00  0.00    +0.000 S 
ATOM     11  C   UNL     1      -1.331  12.344  22.104  0.00  0.00    +0.000 A 
ATOM     12  C   UNL     1      -0.403  11.433  21.663  0.00  0.00    +0.000 A 
ATOM     13  C   UNL     1      -0.659  10.943  20.320  0.00  0.00    +0.000 A 
ENDROOT
BRANCH   1  14
ATOM     14  N   UNL     1       1.272   9.426  19.897  0.00  0.00    +0.000 N 
ATOM     15  H   UNL     1       1.845  10.006  20.492  0.00  0.00    +0.000 HD
BRANCH  14  20
ATOM     16  C   UNL     1       2.218   5.765  20.120  0.00  0.00    +0.000 A 
ATOM     17  C   UNL     1       2.912   5.646  18.908  0.00  0.00    +0.000 A 
ATOM     18  C   UNL     1       3.074   6.744  18.069  0.00  0.00    +0.000 A 
ATOM     19  C   UNL     1       2.534   7.981  18.429  0.00  0.00    +0.000 A 
ATOM     20  C   UNL     1       1.814   8.149  19.623  0.00  0.00    +0.000 A 
ATOM     21  C   UNL     1       1.680   7.023  20.465  0.00  0.00    +0.000 A 
BRANCH  16  23
ATOM     22  C   UNL     1       1.072   3.461  20.566  0.00  0.00    +0.000 C 
ATOM     23  C   UNL     1       2.103   4.508  20.959  0.00  0.00    +0.000 C 
ENDBRANCH  16  23
ENDBRANCH  14  20
ENDBRANCH   1  14
BRANCH   5  24
ATOM     24  C   UNL     1      -3.386  10.054  14.546  0.00  0.00    +0.000 C 
ATOM     25  O   UNL     1      -2.542   9.896  13.682  0.00  0.00    +0.000 OA
BRANCH  24  26
ATOM     26  O   UNL     1      -4.708   9.907  14.327  0.00  0.00    +0.000 OA
ATOM     27  H   UNL     1      -5.285  10.301  15.006  0.00  0.00    +0.000 HD
ENDBRANCH  24  26
ENDBRANCH   5  24
TORSDOF 5
ENDMDL
MODEL 7
REMARK VINA RESULT:      -7.5      3.288      7.887
REMARK  Name = 
REMARK  6 active torsions:
REMARK  status: ('A' for Active; 'I' for Inactive)
REMARK    1  A    between atoms: C_1  and  C_2
REMARK    2  A    between atoms: C_2  and  C_3
REMARK    3  A    between atoms: C_7  and  N_8
REMARK    4  A    between atoms: N_8  and  C_9
REMARK    5  A    between atoms: C_13  and  C_14
REMARK    6  A    between atoms: C_14  and  O_16
REMARK                            x       y       z     vdW  Elec       q    Type
REMARK                         _______ _______ _______ _____ _____    ______ ____
ROOT
ATOM      1  C   UNL     1       5.134   5.402  16.726  0.00  0.00    +0.000 A 
ATOM      2  N   UNL     1       4.735   6.692  16.799  0.00  0.00    +0.000 NA
ATOM      3  C   UNL     1       3.654   7.073  17.466  0.00  0.00    +0.000 A 
ATOM      4  C   UNL     1       3.354   8.420  17.478  0.00  0.00    +0.000 A 
ATOM      5  C   UNL     1       2.267   8.916  18.201  0.00  0.00    +0.000 A 
ATOM      6  C   UNL     1       1.426   8.039  18.893  0.00  0.00    +0.000 A 
ATOM      7  C   UNL     1       1.701   6.669  18.877  0.00  0.00    +0.000 A 
ATOM      8  C   UNL     1       2.826   6.187  18.164  0.00  0.00    +0.000 A 
ATOM      9  C   UNL     1       3.199   4.816  18.090  0.00  0.00    +0.000 A 
ATOM     10  S   UNL     1       2.397   3.468  18.830  0.00  0.00    +0.000 S 
ATOM     11  C   UNL     1       3.520   2.354  18.217  0.00  0.00    +0.000 A 
ATOM     12  C   UNL     1       4.487   2.966  17.457  0.00  0.00    +0.000 A 
ATOM     13  C   UNL     1       4.334   4.407  17.369  0.00  0.00    +0.000 A 
ENDROOT
BRANCH   1  14
ATOM     14  N   UNL     1       6.305   5.099  16.011  0.00  0.00    +0.000 N 
ATOM     15  H   UNL     1       7.143   5.125  16.573  0.00  0.00    +0.000 HD
BRANCH  14  20
ATOM     16  C   UNL     1       5.975   3.584  12.555  0.00  0.00    +0.000 A 
ATOM     17  C   UNL     1       7.037   4.248  11.925  0.00  0.00    +0.000 A 
ATOM     18  C   UNL     1       7.837   5.142  12.629  0.00  0.00    +0.000 A 
ATOM     19  C   UNL     1       7.580   5.391  13.979  0.00  0.00    +0.000 A 
ATOM     20  C   UNL     1       6.517   4.767  14.653  0.00  0.00    +0.000 A 
ATOM     21  C   UNL     1       5.732   3.850  13.920  0.00  0.00    +0.000 A 
BRANCH  16  23
ATOM     22  C   UNL     1       3.878   3.129  11.067  0.00  0.00    +0.000 C 
ATOM     23  C   UNL     1       5.170   2.630  11.696  0.00  0.00    +0.000 C 
ENDBRANCH  16  23
ENDBRANCH  14  20
ENDBRANCH   1  14
BRANCH   5  24
ATOM     24  C   UNL     1       2.045  10.380  18.178  0.00  0.00    +0.000 C 
ATOM     25  O   UNL     1       1.362  10.961  19.001  0.00  0.00    +0.000 OA
BRANCH  24  26
ATOM     26  O   UNL     1       2.623  10.995  17.127  0.00  0.00    +0.000 OA
ATOM     27  H   UNL     1       2.735  11.959  17.224  0.00  0.00    +0.000 HD
ENDBRANCH  24  26
ENDBRANCH   5  24
TORSDOF 5
ENDMDL
MODEL 8
REMARK VINA RESULT:      -7.4      1.246      1.943
REMARK  Name = 
REMARK  6 active torsions:
REMARK  status: ('A' for Active; 'I' for Inactive)
REMARK    1  A    between atoms: C_1  and  C_2
REMARK    2  A    between atoms: C_2  and  C_3
REMARK    3  A    between atoms: C_7  and  N_8
REMARK    4  A    between atoms: N_8  and  C_9
REMARK    5  A    between atoms: C_13  and  C_14
REMARK    6  A    between atoms: C_14  and  O_16
REMARK                            x       y       z     vdW  Elec       q    Type
REMARK                         _______ _______ _______ _____ _____    ______ ____
ROOT
ATOM      1  C   UNL     1       2.348   6.050  20.316  0.00  0.00    +0.000 A 
ATOM      2  N   UNL     1       3.086   6.472  19.264  0.00  0.00    +0.000 NA
ATOM      3  C   UNL     1       3.576   5.644  18.353  0.00  0.00    +0.000 A 
ATOM      4  C   UNL     1       4.306   6.193  17.317  0.00  0.00    +0.000 A 
ATOM      5  C   UNL     1       4.812   5.402  16.284  0.00  0.00    +0.000 A 
ATOM      6  C   UNL     1       4.626   4.016  16.307  0.00  0.00    +0.000 A 
ATOM      7  C   UNL     1       3.908   3.437  17.357  0.00  0.00    +0.000 A 
ATOM      8  C   UNL     1       3.376   4.260  18.380  0.00  0.00    +0.000 A 
ATOM      9  C   UNL     1       2.625   3.773  19.487  0.00  0.00    +0.000 A 
ATOM     10  S   UNL     1       2.199   2.127  19.825  0.00  0.00    +0.000 S 
ATOM     11  C   UNL     1       1.359   2.545  21.239  0.00  0.00    +0.000 A 
ATOM     12  C   UNL     1       1.394   3.898  21.475  0.00  0.00    +0.000 A 
ATOM     13  C   UNL     1       2.119   4.648  20.464  0.00  0.00    +0.000 A 
ENDROOT
BRANCH   1  14
ATOM     14  N   UNL     1       1.856   7.007  21.219  0.00  0.00    +0.000 N 
ATOM     15  H   UNL     1       2.080   6.810  22.184  0.00  0.00    +0.000 HD
BRANCH  14  20
ATOM     16  C   UNL     1       0.094   9.957  19.623  0.00  0.00    +0.000 A 
ATOM     17  C   UNL     1      -0.453  10.533  20.778  0.00  0.00    +0.000 A 
ATOM     18  C   UNL     1      -0.224   9.974  22.031  0.00  0.00    +0.000 A 
ATOM     19  C   UNL     1       0.553   8.819  22.146  0.00  0.00    +0.000 A 
ATOM     20  C   UNL     1       1.109   8.191  21.019  0.00  0.00    +0.000 A 
ATOM     21  C   UNL     1       0.877   8.789  19.761  0.00  0.00    +0.000 A 
BRANCH  16  23
ATOM     22  C   UNL     1      -1.458  11.520  18.221  0.00  0.00    +0.000 C 
ATOM     23  C   UNL     1      -0.215  10.648  18.311  0.00  0.00    +0.000 C 
ENDBRANCH  16  23
ENDBRANCH  14  20
ENDBRANCH   1  14
BRANCH   5  24
ATOM     24  C   UNL     1       5.554   6.089  15.202  0.00  0.00    +0.000 C 
ATOM     25  O   UNL     1       5.126   7.072  14.624  0.00  0.00    +0.000 OA
BRANCH  24  26
ATOM     26  O   UNL     1       6.717   5.487  14.881  0.00  0.00    +0.000 OA
ATOM     27  H   UNL     1       6.630   4.698  14.316  0.00  0.00    +0.000 HD
ENDBRANCH  24  26
ENDBRANCH   5  24
TORSDOF 5
ENDMDL
MODEL 9
REMARK VINA RESULT:      -7.4      0.755      1.041
REMARK  Name = 
REMARK  6 active torsions:
REMARK  status: ('A' for Active; 'I' for Inactive)
REMARK    1  A    between atoms: C_1  and  C_2
REMARK    2  A    between atoms: C_2  and  C_3
REMARK    3  A    between atoms: C_7  and  N_8
REMARK    4  A    between atoms: N_8  and  C_9
REMARK    5  A    between atoms: C_13  and  C_14
REMARK    6  A    between atoms: C_14  and  O_16
REMARK                            x       y       z     vdW  Elec       q    Type
REMARK                         _______ _______ _______ _____ _____    ______ ____
ROOT
ATOM      1  C   UNL     1       2.221   5.865  20.237  0.00  0.00    +0.000 A 
ATOM      2  N   UNL     1       3.398   6.385  19.819  0.00  0.00    +0.000 NA
ATOM      3  C   UNL     1       4.200   5.756  18.972  0.00  0.00    +0.000 A 
ATOM      4  C   UNL     1       5.371   6.392  18.609  0.00  0.00    +0.000 A 
ATOM      5  C   UNL     1       6.248   5.829  17.680  0.00  0.00    +0.000 A 
ATOM      6  C   UNL     1       5.974   4.573  17.130  0.00  0.00    +0.000 A 
ATOM      7  C   UNL     1       4.804   3.902  17.499  0.00  0.00    +0.000 A 
ATOM      8  C   UNL     1       3.912   4.504  18.420  0.00  0.00    +0.000 A 
ATOM      9  C   UNL     1       2.693   3.911  18.855  0.00  0.00    +0.000 A 
ATOM     10  S   UNL     1       2.040   2.379  18.375  0.00  0.00    +0.000 S 
ATOM     11  C   UNL     1       0.663   2.564  19.349  0.00  0.00    +0.000 A 
ATOM     12  C   UNL     1       0.679   3.751  20.040  0.00  0.00    +0.000 A 
ATOM     13  C   UNL     1       1.849   4.568  19.768  0.00  0.00    +0.000 A 
ENDROOT
BRANCH   1  14
ATOM     14  N   UNL     1       1.431   6.617  21.123  0.00  0.00    +0.000 N 
ATOM     15  H   UNL     1       1.132   6.103  21.938  0.00  0.00    +0.000 HD
BRANCH  14  20
ATOM     16  C   UNL     1      -0.129   9.953  22.012  0.00  0.00    +0.000 A 
ATOM     17  C   UNL     1       0.206  10.665  20.851  0.00  0.00    +0.000 A 
ATOM     18  C   UNL     1       0.900  10.050  19.813  0.00  0.00    +0.000 A 
ATOM     19  C   UNL     1       1.277   8.710  19.926  0.00  0.00    +0.000 A 
ATOM     20  C   UNL     1       0.984   7.958  21.075  0.00  0.00    +0.000 A 
ATOM     21  C   UNL     1       0.263   8.600  22.106  0.00  0.00    +0.000 A 
BRANCH  16  23
ATOM     22  C   UNL     1      -1.755  11.892  22.654  0.00  0.00    +0.000 C 
ATOM     23  C   UNL     1      -0.887  10.717  23.078  0.00  0.00    +0.000 C 
ENDBRANCH  16  23
ENDBRANCH  14  20
ENDBRANCH   1  14
BRANCH   5  24
ATOM     24  C   UNL     1       7.461   6.603  17.333  0.00  0.00    +0.000 C 
ATOM     25  O   UNL     1       8.048   7.311  18.132  0.00  0.00    +0.000 OA
BRANCH  24  26
ATOM     26  O   UNL     1       7.817   6.495  16.037  0.00  0.00    +0.000 OA
ATOM     27  H   UNL     1       7.243   5.920  15.498  0.00  0.00    +0.000 HD
ENDBRANCH  24  26
ENDBRANCH   5  24
TORSDOF 5
ENDMDL
