MODEL 1
REMARK VINA RESULT:      -9.3      0.000      0.000
REMARK  Name = 
REMARK  3 active torsions:
REMARK  status: ('A' for Active; 'I' for Inactive)
REMARK    1  A    between atoms: C_1  and  C_2
REMARK    2  A    between atoms: C_2  and  C_3
REMARK    3  A    between atoms: C_3  and  O_4
REMARK                            x       y       z     vdW  Elec       q    Type
REMARK                         _______ _______ _______ _____ _____    ______ ____
ROOT
ATOM      1  C   UNL     1       5.557   4.924  15.151  0.00  0.00    +0.000 C 
ATOM      2  C   UNL     1       7.127   4.854  15.277  0.00  0.00    +0.000 C 
ATOM      3  O   UNL     1       7.949   5.390  14.542  0.00  0.00    +0.000 OA
ATOM      4  O   UNL     1       7.500   4.384  16.489  0.00  0.00    +0.000 OA
ATOM      5  C   UNL     1       7.419   5.529  17.316  0.00  0.00    +0.000 C 
ATOM      6  C   UNL     1       6.017   6.094  17.282  0.00  0.00    +0.000 A 
ATOM      7  C   UNL     1       5.204   6.142  16.160  0.00  0.00    +0.000 A 
ATOM      8  C   UNL     1       3.945   6.984  16.444  0.00  0.00    +0.000 A 
ATOM      9  C   UNL     1       3.473   7.110  17.733  0.00  0.00    +0.000 A 
ATOM     10  N   UNL     1       4.035   6.247  18.655  0.00  0.00    +0.000 N 
ATOM     11  C   UNL     1       5.299   5.753  18.553  0.00  0.00    +0.000 A 
ATOM     12  O   UNL     1       5.804   5.064  19.443  0.00  0.00    +0.000 OA
ATOM     13  C   UNL     1       3.213   5.939  19.778  0.00  0.00    +0.000 C 
ATOM     14  C   UNL     1       2.258   7.066  19.754  0.00  0.00    +0.000 A 
ATOM     15  C   UNL     1       1.429   7.407  20.806  0.00  0.00    +0.000 A 
ATOM     16  C   UNL     1       0.871   8.665  20.803  0.00  0.00    +0.000 A 
ATOM     17  C   UNL     1       0.034   9.009  21.885  0.00  0.00    +0.000 A 
ATOM     18  C   UNL     1      -0.449  10.299  22.005  0.00  0.00    +0.000 A 
ATOM     19 CL   UNL     1      -1.512  10.700  23.298  0.00  0.00    +0.000 Cl
ATOM     20  C   UNL     1      -0.048  11.248  21.080  0.00  0.00    +0.000 A 
ATOM     21  C   UNL     1       0.769  10.873  19.978  0.00  0.00    +0.000 A 
ATOM     22  C   UNL     1       1.222   9.555  19.748  0.00  0.00    +0.000 A 
ATOM     23  N   UNL     1       1.975   9.137  18.631  0.00  0.00    +0.000 NA
ATOM     24  C   UNL     1       2.428   7.856  18.612  0.00  0.00    +0.000 A 
ENDROOT
BRANCH   1  26
ATOM     25  C   UNL     1       6.127   3.342  12.947  0.00  0.00    +0.000 C 
ATOM     26  C   UNL     1       5.332   4.473  13.639  0.00  0.00    +0.000 C 
ENDBRANCH   1  26
BRANCH   1  27
ATOM     27  O   UNL     1       4.836   3.874  15.867  0.00  0.00    +0.000 OA
ATOM     28  H   UNL     1       4.004   3.668  15.410  0.00  0.00    +0.000 HD
ENDBRANCH   1  27
TORSDOF 2
ENDMDL
MODEL 2
REMARK VINA RESULT:      -7.7      5.145      9.475
REMARK  Name = 
REMARK  3 active torsions:
REMARK  status: ('A' for Active; 'I' for Inactive)
REMARK    1  A    between atoms: C_1  and  C_2
REMARK    2  A    between atoms: C_2  and  C_3
REMARK    3  A    between atoms: C_3  and  O_4
REMARK                            x       y       z     vdW  Elec       q    Type
REMARK                         _______ _______ _______ _____ _____    ______ ____
ROOT
ATOM      1  C   UNL     1      -1.923  12.614  21.628  0.00  0.00    +0.000 C 
ATOM      2  C   UNL     1      -1.352  13.917  22.309  0.00  0.00    +0.000 C 
ATOM      3  O   UNL     1      -1.397  14.205  23.499  0.00  0.00    +0.000 OA
ATOM      4  O   UNL     1      -0.507  14.572  21.480  0.00  0.00    +0.000 OA
ATOM      5  C   UNL     1       0.711  13.873  21.645  0.00  0.00    +0.000 C 
ATOM      6  C   UNL     1       0.521  12.413  21.299  0.00  0.00    +0.000 A 
ATOM      7  C   UNL     1      -0.610  11.666  21.590  0.00  0.00    +0.000 A 
ATOM      8  C   UNL     1      -0.359  10.174  21.296  0.00  0.00    +0.000 A 
ATOM      9  C   UNL     1       0.578   9.802  20.356  0.00  0.00    +0.000 A 
ATOM     10  N   UNL     1       1.052  10.825  19.557  0.00  0.00    +0.000 N 
ATOM     11  C   UNL     1       1.126  12.124  19.958  0.00  0.00    +0.000 A 
ATOM     12  O   UNL     1       1.644  12.996  19.255  0.00  0.00    +0.000 OA
ATOM     13  C   UNL     1       1.522  10.425  18.273  0.00  0.00    +0.000 C 
ATOM     14  C   UNL     1       1.772   8.985  18.494  0.00  0.00    +0.000 A 
ATOM     15  C   UNL     1       2.516   8.185  17.648  0.00  0.00    +0.000 A 
ATOM     16  C   UNL     1       2.978   6.985  18.139  0.00  0.00    +0.000 A 
ATOM     17  C   UNL     1       3.746   6.178  17.273  0.00  0.00    +0.000 A 
ATOM     18  C   UNL     1       4.346   5.027  17.748  0.00  0.00    +0.000 A 
ATOM     19 CL   UNL     1       5.237   4.018  16.674  0.00  0.00    +0.000 Cl
ATOM     20  C   UNL     1       4.226   4.720  19.093  0.00  0.00    +0.000 A 
ATOM     21  C   UNL     1       3.420   5.529  19.942  0.00  0.00    +0.000 A 
ATOM     22  C   UNL     1       2.707   6.666  19.500  0.00  0.00    +0.000 A 
ATOM     23  N   UNL     1       1.848   7.447  20.299  0.00  0.00    +0.000 NA
ATOM     24  C   UNL     1       1.323   8.576  19.753  0.00  0.00    +0.000 A 
ENDROOT
BRANCH   1  26
ATOM     25  C   UNL     1      -4.620  13.190  21.348  0.00  0.00    +0.000 C 
ATOM     26  C   UNL     1      -3.430  12.612  22.147  0.00  0.00    +0.000 C 
ENDBRANCH   1  26
BRANCH   1  27
ATOM     27  O   UNL     1      -2.124  12.714  20.185  0.00  0.00    +0.000 OA
ATOM     28  H   UNL     1      -1.282  12.585  19.719  0.00  0.00    +0.000 HD
ENDBRANCH   1  27
TORSDOF 2
ENDMDL
MODEL 3
REMARK VINA RESULT:      -7.5      5.094      8.279
REMARK  Name = 
REMARK  3 active torsions:
REMARK  status: ('A' for Active; 'I' for Inactive)
REMARK    1  A    between atoms: C_1  and  C_2
REMARK    2  A    between atoms: C_2  and  C_3
REMARK    3  A    between atoms: C_3  and  O_4
REMARK                            x       y       z     vdW  Elec       q    Type
REMARK                         _______ _______ _______ _____ _____    ______ ____
ROOT
ATOM      1  C   UNL     1       1.247  12.830  19.483  0.00  0.00    +0.000 C 
ATOM      2  C   UNL     1      -0.225  13.397  19.480  0.00  0.00    +0.000 C 
ATOM      3  O   UNL     1      -0.759  14.049  18.591  0.00  0.00    +0.000 OA
ATOM      4  O   UNL     1      -0.973  12.820  20.447  0.00  0.00    +0.000 OA
ATOM      5  C   UNL     1      -1.372  11.597  19.858  0.00  0.00    +0.000 C 
ATOM      6  C   UNL     1      -0.156  10.792  19.462  0.00  0.00    +0.000 A 
ATOM      7  C   UNL     1       1.015  11.322  18.941  0.00  0.00    +0.000 A 
ATOM      8  C   UNL     1       1.941  10.193  18.446  0.00  0.00    +0.000 A 
ATOM      9  C   UNL     1       1.855   8.934  19.000  0.00  0.00    +0.000 A 
ATOM     10  N   UNL     1       1.099   8.846  20.153  0.00  0.00    +0.000 N 
ATOM     11  C   UNL     1       0.051   9.669  20.433  0.00  0.00    +0.000 A 
ATOM     12  O   UNL     1      -0.663   9.502  21.425  0.00  0.00    +0.000 OA
ATOM     13  C   UNL     1       1.453   7.782  21.033  0.00  0.00    +0.000 C 
ATOM     14  C   UNL     1       2.185   6.883  20.116  0.00  0.00    +0.000 A 
ATOM     15  C   UNL     1       2.486   5.563  20.396  0.00  0.00    +0.000 A 
ATOM     16  C   UNL     1       2.830   4.745  19.344  0.00  0.00    +0.000 A 
ATOM     17  C   UNL     1       3.127   3.397  19.636  0.00  0.00    +0.000 A 
ATOM     18  C   UNL     1       3.350   2.499  18.610  0.00  0.00    +0.000 A 
ATOM     19 CL   UNL     1       3.764   0.867  18.974  0.00  0.00    +0.000 Cl
ATOM     20  C   UNL     1       3.217   2.935  17.303  0.00  0.00    +0.000 A 
ATOM     21  C   UNL     1       2.950   4.305  17.029  0.00  0.00    +0.000 A 
ATOM     22  C   UNL     1       2.801   5.292  18.029  0.00  0.00    +0.000 A 
ATOM     23  N   UNL     1       2.604   6.667  17.791  0.00  0.00    +0.000 NA
ATOM     24  C   UNL     1       2.368   7.471  18.861  0.00  0.00    +0.000 A 
ENDROOT
BRANCH   1  26
ATOM     25  C   UNL     1       3.390  14.142  18.311  0.00  0.00    +0.000 C 
ATOM     26  C   UNL     1       2.099  14.139  19.161  0.00  0.00    +0.000 C 
ENDBRANCH   1  26
BRANCH   1  27
ATOM     27  O   UNL     1       1.766  12.477  20.803  0.00  0.00    +0.000 OA
ATOM     28  H   UNL     1       2.403  11.748  20.728  0.00  0.00    +0.000 HD
ENDBRANCH   1  27
TORSDOF 2
ENDMDL
MODEL 4
REMARK VINA RESULT:      -7.5      5.123      9.162
REMARK  Name = 
REMARK  3 active torsions:
REMARK  status: ('A' for Active; 'I' for Inactive)
REMARK    1  A    between atoms: C_1  and  C_2
REMARK    2  A    between atoms: C_2  and  C_3
REMARK    3  A    between atoms: C_3  and  O_4
REMARK                            x       y       z     vdW  Elec       q    Type
REMARK                         _______ _______ _______ _____ _____    ______ ____
ROOT
ATOM      1  C   UNL     1      -1.186  13.682  20.474  0.00  0.00    +0.000 C 
ATOM      2  C   UNL     1      -0.392  14.946  20.984  0.00  0.00    +0.000 C 
ATOM      3  O   UNL     1      -0.448  15.449  22.100  0.00  0.00    +0.000 OA
ATOM      4  O   UNL     1       0.624  15.255  20.146  0.00  0.00    +0.000 OA
ATOM      5  C   UNL     1       1.650  14.367  20.545  0.00  0.00    +0.000 C 
ATOM      6  C   UNL     1       1.173  12.937  20.427  0.00  0.00    +0.000 A 
ATOM      7  C   UNL     1      -0.109  12.499  20.723  0.00  0.00    +0.000 A 
ATOM      8  C   UNL     1      -0.167  10.959  20.706  0.00  0.00    +0.000 A 
ATOM      9  C   UNL     1       0.725  10.241  19.938  0.00  0.00    +0.000 A 
ATOM     10  N   UNL     1       1.456  10.985  19.032  0.00  0.00    +0.000 N 
ATOM     11  C   UNL     1       1.784  12.293  19.219  0.00  0.00    +0.000 A 
ATOM     12  O   UNL     1       2.520  12.900  18.437  0.00  0.00    +0.000 OA
ATOM     13  C   UNL     1       1.909  10.271  17.885  0.00  0.00    +0.000 C 
ATOM     14  C   UNL     1       1.828   8.875  18.364  0.00  0.00    +0.000 A 
ATOM     15  C   UNL     1       2.434   7.801  17.740  0.00  0.00    +0.000 A 
ATOM     16  C   UNL     1       2.595   6.643  18.465  0.00  0.00    +0.000 A 
ATOM     17  C   UNL     1       3.223   5.554  17.825  0.00  0.00    +0.000 A 
ATOM     18  C   UNL     1       3.531   4.412  18.540  0.00  0.00    +0.000 A 
ATOM     19 CL   UNL     1       4.250   3.067  17.741  0.00  0.00    +0.000 Cl
ATOM     20  C   UNL     1       3.264   4.386  19.898  0.00  0.00    +0.000 A 
ATOM     21  C   UNL     1       2.599   5.481  20.518  0.00  0.00    +0.000 A 
ATOM     22  C   UNL     1       2.177   6.638  19.827  0.00  0.00    +0.000 A 
ATOM     23  N   UNL     1       1.458   7.709  20.396  0.00  0.00    +0.000 NA
ATOM     24  C   UNL     1       1.224   8.801  19.623  0.00  0.00    +0.000 A 
ENDROOT
BRANCH   1  26
ATOM     25  C   UNL     1      -3.819  13.051  21.070  0.00  0.00    +0.000 C 
ATOM     26  C   UNL     1      -2.689  14.078  20.834  0.00  0.00    +0.000 C 
ENDBRANCH   1  26
BRANCH   1  27
ATOM     27  O   UNL     1      -1.271  13.556  19.021  0.00  0.00    +0.000 OA
ATOM     28  H   UNL     1      -0.381  13.557  18.632  0.00  0.00    +0.000 HD
ENDBRANCH   1  27
TORSDOF 2
ENDMDL
MODEL 5
REMARK VINA RESULT:      -7.5      1.435      1.818
REMARK  Name = 
REMARK  3 active torsions:
REMARK  status: ('A' for Active; 'I' for Inactive)
REMARK    1  A    between atoms: C_1  and  C_2
REMARK    2  A    between atoms: C_2  and  C_3
REMARK    3  A    between atoms: C_3  and  O_4
REMARK                            x       y       z     vdW  Elec       q    Type
REMARK                         _______ _______ _______ _____ _____    ______ ____
ROOT
ATOM      1  C   UNL     1       5.500   4.710  16.110  0.00  0.00    +0.000 C 
ATOM      2  C   UNL     1       6.833   4.258  16.821  0.00  0.00    +0.000 C 
ATOM      3  O   UNL     1       7.977   4.448  16.428  0.00  0.00    +0.000 OA
ATOM      4  O   UNL     1       6.603   3.894  18.103  0.00  0.00    +0.000 OA
ATOM      5  C   UNL     1       6.580   5.132  18.789  0.00  0.00    +0.000 C 
ATOM      6  C   UNL     1       5.511   6.027  18.205  0.00  0.00    +0.000 A 
ATOM      7  C   UNL     1       5.193   6.114  16.858  0.00  0.00    +0.000 A 
ATOM      8  C   UNL     1       4.222   7.285  16.610  0.00  0.00    +0.000 A 
ATOM      9  C   UNL     1       3.389   7.719  17.618  0.00  0.00    +0.000 A 
ATOM     10  N   UNL     1       3.313   6.889  18.721  0.00  0.00    +0.000 N 
ATOM     11  C   UNL     1       4.328   6.076  19.125  0.00  0.00    +0.000 A 
ATOM     12  O   UNL     1       4.264   5.421  20.168  0.00  0.00    +0.000 OA
ATOM     13  C   UNL     1       2.100   6.973  19.463  0.00  0.00    +0.000 C 
ATOM     14  C   UNL     1       1.590   8.292  19.032  0.00  0.00    +0.000 A 
ATOM     15  C   UNL     1       0.586   8.988  19.678  0.00  0.00    +0.000 A 
ATOM     16  C   UNL     1       0.461  10.332  19.411  0.00  0.00    +0.000 A 
ATOM     17  C   UNL     1      -0.559  11.038  20.082  0.00  0.00    +0.000 A 
ATOM     18  C   UNL     1      -0.651  12.411  19.955  0.00  0.00    +0.000 A 
ATOM     19 CL   UNL     1      -1.930  13.262  20.734  0.00  0.00    +0.000 Cl
ATOM     20  C   UNL     1       0.308  13.076  19.210  0.00  0.00    +0.000 A 
ATOM     21  C   UNL     1       1.309  12.343  18.514  0.00  0.00    +0.000 A 
ATOM     22  C   UNL     1       1.404  10.934  18.529  0.00  0.00    +0.000 A 
ATOM     23  N   UNL     1       2.340  10.174  17.798  0.00  0.00    +0.000 NA
ATOM     24  C   UNL     1       2.372   8.832  18.006  0.00  0.00    +0.000 A 
ENDROOT
BRANCH   1  26
ATOM     25  C   UNL     1       6.691   4.673  13.607  0.00  0.00    +0.000 C 
ATOM     26  C   UNL     1       5.694   4.111  14.645  0.00  0.00    +0.000 C 
ENDBRANCH   1  26
BRANCH   1  27
ATOM     27  O   UNL     1       4.300   4.000  16.545  0.00  0.00    +0.000 OA
ATOM     28  H   UNL     1       4.323   3.861  17.506  0.00  0.00    +0.000 HD
ENDBRANCH   1  27
TORSDOF 2
ENDMDL
MODEL 6
REMARK VINA RESULT:      -7.4      6.434     10.961
REMARK  Name = 
REMARK  3 active torsions:
REMARK  status: ('A' for Active; 'I' for Inactive)
REMARK    1  A    between atoms: C_1  and  C_2
REMARK    2  A    between atoms: C_2  and  C_3
REMARK    3  A    between atoms: C_3  and  O_4
REMARK                            x       y       z     vdW  Elec       q    Type
REMARK                         _______ _______ _______ _____ _____    ______ ____
ROOT
ATOM      1  C   UNL     1      -1.439  15.543  23.446  0.00  0.00    +0.000 C 
ATOM      2  C   UNL     1      -2.976  15.894  23.443  0.00  0.00    +0.000 C 
ATOM      3  O   UNL     1      -3.526  16.784  22.806  0.00  0.00    +0.000 OA
ATOM      4  O   UNL     1      -3.706  14.895  23.990  0.00  0.00    +0.000 OA
ATOM      5  C   UNL     1      -3.846  13.978  22.922  0.00  0.00    +0.000 C 
ATOM      6  C   UNL     1      -2.484  13.543  22.432  0.00  0.00    +0.000 A 
ATOM      7  C   UNL     1      -1.371  14.365  22.336  0.00  0.00    +0.000 A 
ATOM      8  C   UNL     1      -0.233  13.644  21.588  0.00  0.00    +0.000 A 
ATOM      9  C   UNL     1      -0.164  12.268  21.593  0.00  0.00    +0.000 A 
ATOM     10  N   UNL     1      -0.998  11.638  22.497  0.00  0.00    +0.000 N 
ATOM     11  C   UNL     1      -2.188  12.154  22.914  0.00  0.00    +0.000 A 
ATOM     12  O   UNL     1      -2.953  11.522  23.646  0.00  0.00    +0.000 OA
ATOM     13  C   UNL     1      -0.559  10.357  22.940  0.00  0.00    +0.000 C 
ATOM     14  C   UNL     1       0.390   9.992  21.867  0.00  0.00    +0.000 A 
ATOM     15  C   UNL     1       0.875   8.715  21.658  0.00  0.00    +0.000 A 
ATOM     16  C   UNL     1       1.442   8.435  20.435  0.00  0.00    +0.000 A 
ATOM     17  C   UNL     1       1.927   7.126  20.226  0.00  0.00    +0.000 A 
ATOM     18  C   UNL     1       2.385   6.749  18.978  0.00  0.00    +0.000 A 
ATOM     19 CL   UNL     1       3.024   5.167  18.741  0.00  0.00    +0.000 Cl
ATOM     20  C   UNL     1       2.304   7.657  17.936  0.00  0.00    +0.000 A 
ATOM     21  C   UNL     1       1.844   8.982  18.176  0.00  0.00    +0.000 A 
ATOM     22  C   UNL     1       1.446   9.458  19.445  0.00  0.00    +0.000 A 
ATOM     23  N   UNL     1       1.051  10.781  19.730  0.00  0.00    +0.000 NA
ATOM     24  C   UNL     1       0.590  11.053  20.979  0.00  0.00    +0.000 A 
ENDROOT
BRANCH   1  26
ATOM     25  C   UNL     1      -0.009  17.817  22.761  0.00  0.00    +0.000 C 
ATOM     26  C   UNL     1      -0.784  16.957  23.784  0.00  0.00    +0.000 C 
ENDBRANCH   1  26
BRANCH   1  27
ATOM     27  O   UNL     1      -0.993  14.748  24.589  0.00  0.00    +0.000 OA
ATOM     28  H   UNL     1      -0.138  14.331  24.393  0.00  0.00    +0.000 HD
ENDBRANCH   1  27
TORSDOF 2
ENDMDL
MODEL 7
REMARK VINA RESULT:      -7.3      5.483     10.011
REMARK  Name = 
REMARK  3 active torsions:
REMARK  status: ('A' for Active; 'I' for Inactive)
REMARK    1  A    between atoms: C_1  and  C_2
REMARK    2  A    between atoms: C_2  and  C_3
REMARK    3  A    between atoms: C_3  and  O_4
REMARK                            x       y       z     vdW  Elec       q    Type
REMARK                         _______ _______ _______ _____ _____    ______ ____
ROOT
ATOM      1  C   UNL     1      -2.628  12.842  22.332  0.00  0.00    +0.000 C 
ATOM      2  C   UNL     1      -2.119  14.110  23.120  0.00  0.00    +0.000 C 
ATOM      3  O   UNL     1      -2.154  14.286  24.332  0.00  0.00    +0.000 OA
ATOM      4  O   UNL     1      -1.333  14.887  22.340  0.00  0.00    +0.000 OA
ATOM      5  C   UNL     1      -0.073  14.251  22.419  0.00  0.00    +0.000 C 
ATOM      6  C   UNL     1      -0.184  12.820  21.944  0.00  0.00    +0.000 A 
ATOM      7  C   UNL     1      -1.263  11.982  22.184  0.00  0.00    +0.000 A 
ATOM      8  C   UNL     1      -0.931  10.541  21.751  0.00  0.00    +0.000 A 
ATOM      9  C   UNL     1       0.005  10.313  20.765  0.00  0.00    +0.000 A 
ATOM     10  N   UNL     1       0.400  11.431  20.055  0.00  0.00    +0.000 N 
ATOM     11  C   UNL     1       0.407  12.691  20.572  0.00  0.00    +0.000 A 
ATOM     12  O   UNL     1       0.857  13.652  19.944  0.00  0.00    +0.000 OA
ATOM     13  C   UNL     1       0.864  11.178  18.732  0.00  0.00    +0.000 C 
ATOM     14  C   UNL     1       1.203   9.742  18.816  0.00  0.00    +0.000 A 
ATOM     15  C   UNL     1       1.974   9.068  17.888  0.00  0.00    +0.000 A 
ATOM     16  C   UNL     1       2.517   7.858  18.259  0.00  0.00    +0.000 A 
ATOM     17  C   UNL     1       3.310   7.181  17.309  0.00  0.00    +0.000 A 
ATOM     18  C   UNL     1       3.987   6.031  17.667  0.00  0.00    +0.000 A 
ATOM     19 CL   UNL     1       4.913   5.179  16.490  0.00  0.00    +0.000 Cl
ATOM     20  C   UNL     1       3.916   5.597  18.979  0.00  0.00    +0.000 A 
ATOM     21  C   UNL     1       3.083   6.274  19.912  0.00  0.00    +0.000 A 
ATOM     22  C   UNL     1       2.295   7.402  19.589  0.00  0.00    +0.000 A 
ATOM     23  N   UNL     1       1.409   8.054  20.471  0.00  0.00    +0.000 NA
ATOM     24  C   UNL     1       0.807   9.194  20.040  0.00  0.00    +0.000 A 
ENDROOT
BRANCH   1  26
ATOM     25  C   UNL     1      -5.320  13.504  22.321  0.00  0.00    +0.000 C 
ATOM     26  C   UNL     1      -4.121  12.702  22.874  0.00  0.00    +0.000 C 
ENDBRANCH   1  26
BRANCH   1  27
ATOM     27  O   UNL     1      -2.867  13.060  20.907  0.00  0.00    +0.000 OA
ATOM     28  H   UNL     1      -2.049  13.349  20.471  0.00  0.00    +0.000 HD
ENDBRANCH   1  27
TORSDOF 2
ENDMDL
MODEL 8
REMARK VINA RESULT:      -7.1      6.017     10.740
REMARK  Name = 
REMARK  3 active torsions:
REMARK  status: ('A' for Active; 'I' for Inactive)
REMARK    1  A    between atoms: C_1  and  C_2
REMARK    2  A    between atoms: C_2  and  C_3
REMARK    3  A    between atoms: C_3  and  O_4
REMARK                            x       y       z     vdW  Elec       q    Type
REMARK                         _______ _______ _______ _____ _____    ______ ____
ROOT
ATOM      1  C   UNL     1      -3.225  13.648  23.296  0.00  0.00    +0.000 C 
ATOM      2  C   UNL     1      -2.670  14.836  24.173  0.00  0.00    +0.000 C 
ATOM      3  O   UNL     1      -2.700  14.924  25.394  0.00  0.00    +0.000 OA
ATOM      4  O   UNL     1      -1.855  15.637  23.449  0.00  0.00    +0.000 OA
ATOM      5  C   UNL     1      -0.619  14.949  23.481  0.00  0.00    +0.000 C 
ATOM      6  C   UNL     1      -0.784  13.562  22.903  0.00  0.00    +0.000 A 
ATOM      7  C   UNL     1      -1.894  12.750  23.084  0.00  0.00    +0.000 A 
ATOM      8  C   UNL     1      -1.616  11.333  22.546  0.00  0.00    +0.000 A 
ATOM      9  C   UNL     1      -0.688  11.142  21.545  0.00  0.00    +0.000 A 
ATOM     10  N   UNL     1      -0.251  12.293  20.918  0.00  0.00    +0.000 N 
ATOM     11  C   UNL     1      -0.197  13.510  21.525  0.00  0.00    +0.000 A 
ATOM     12  O   UNL     1       0.289  14.497  20.967  0.00  0.00    +0.000 OA
ATOM     13  C   UNL     1       0.205  12.119  19.579  0.00  0.00    +0.000 C 
ATOM     14  C   UNL     1       0.489  10.669  19.557  0.00  0.00    +0.000 A 
ATOM     15  C   UNL     1       1.235  10.035  18.582  0.00  0.00    +0.000 A 
ATOM     16  C   UNL     1       1.731   8.783  18.863  0.00  0.00    +0.000 A 
ATOM     17  C   UNL     1       2.500   8.147  17.866  0.00  0.00    +0.000 A 
ATOM     18  C   UNL     1       3.133   6.948  18.138  0.00  0.00    +0.000 A 
ATOM     19 CL   UNL     1       4.027   6.150  16.901  0.00  0.00    +0.000 Cl
ATOM     20  C   UNL     1       3.043   6.423  19.416  0.00  0.00    +0.000 A 
ATOM     21  C   UNL     1       2.236   7.063  20.397  0.00  0.00    +0.000 A 
ATOM     22  C   UNL     1       1.491   8.239  20.158  0.00  0.00    +0.000 A 
ATOM     23  N   UNL     1       0.630   8.859  21.085  0.00  0.00    +0.000 NA
ATOM     24  C   UNL     1       0.072  10.049  20.739  0.00  0.00    +0.000 A 
ENDROOT
BRANCH   1  26
ATOM     25  C   UNL     1      -5.257  12.322  24.638  0.00  0.00    +0.000 C 
ATOM     26  C   UNL     1      -4.723  13.525  23.828  0.00  0.00    +0.000 C 
ENDBRANCH   1  26
BRANCH   1  27
ATOM     27  O   UNL     1      -3.455  13.977  21.891  0.00  0.00    +0.000 OA
ATOM     28  H   UNL     1      -3.621  14.929  21.793  0.00  0.00    +0.000 HD
ENDBRANCH   1  27
TORSDOF 2
ENDMDL
MODEL 9
REMARK VINA RESULT:      -7.1      5.780     10.274
REMARK  Name = 
REMARK  3 active torsions:
REMARK  status: ('A' for Active; 'I' for Inactive)
REMARK    1  A    between atoms: C_1  and  C_2
REMARK    2  A    between atoms: C_2  and  C_3
REMARK    3  A    between atoms: C_3  and  O_4
REMARK                            x       y       z     vdW  Elec       q    Type
REMARK                         _______ _______ _______ _____ _____    ______ ____
ROOT
ATOM      1  C   UNL     1      -2.619  14.169  21.876  0.00  0.00    +0.000 C 
ATOM      2  C   UNL     1      -2.041  15.333  22.770  0.00  0.00    +0.000 C 
ATOM      3  O   UNL     1      -2.232  15.505  23.968  0.00  0.00    +0.000 OA
ATOM      4  O   UNL     1      -1.032  15.976  22.139  0.00  0.00    +0.000 OA
ATOM      5  C   UNL     1       0.084  15.144  22.387  0.00  0.00    +0.000 C 
ATOM      6  C   UNL     1      -0.181  13.753  21.857  0.00  0.00    +0.000 A 
ATOM      7  C   UNL     1      -1.403  13.100  21.908  0.00  0.00    +0.000 A 
ATOM      8  C   UNL     1      -1.243  11.626  21.485  0.00  0.00    +0.000 A 
ATOM      9  C   UNL     1      -0.216  11.255  20.643  0.00  0.00    +0.000 A 
ATOM     10  N   UNL     1       0.455  12.299  20.034  0.00  0.00    +0.000 N 
ATOM     11  C   UNL     1       0.584  13.538  20.585  0.00  0.00    +0.000 A 
ATOM     12  O   UNL     1       1.271  14.417  20.060  0.00  0.00    +0.000 OA
ATOM     13  C   UNL     1       1.069  11.982  18.788  0.00  0.00    +0.000 C 
ATOM     14  C   UNL     1       1.157  10.509  18.877  0.00  0.00    +0.000 A 
ATOM     15  C   UNL     1       1.943   9.725  18.054  0.00  0.00    +0.000 A 
ATOM     16  C   UNL     1       2.223   8.441  18.465  0.00  0.00    +0.000 A 
ATOM     17  C   UNL     1       3.034   7.650  17.624  0.00  0.00    +0.000 A 
ATOM     18  C   UNL     1       3.457   6.403  18.043  0.00  0.00    +0.000 A 
ATOM     19 CL   UNL     1       4.403   5.420  16.992  0.00  0.00    +0.000 Cl
ATOM     20  C   UNL     1       3.118   5.978  19.317  0.00  0.00    +0.000 A 
ATOM     21  C   UNL     1       2.272   6.777  20.135  0.00  0.00    +0.000 A 
ATOM     22  C   UNL     1       1.732   8.018  19.733  0.00  0.00    +0.000 A 
ATOM     23  N   UNL     1       0.838   8.801  20.492  0.00  0.00    +0.000 NA
ATOM     24  C   UNL     1       0.498  10.025  20.011  0.00  0.00    +0.000 A 
ENDROOT
BRANCH   1  26
ATOM     25  C   UNL     1      -5.041  13.086  22.684  0.00  0.00    +0.000 C 
ATOM     26  C   UNL     1      -4.181  14.269  22.185  0.00  0.00    +0.000 C 
ENDBRANCH   1  26
BRANCH   1  27
ATOM     27  O   UNL     1      -2.602  14.431  20.439  0.00  0.00    +0.000 OA
ATOM     28  H   UNL     1      -3.388  14.939  20.182  0.00  0.00    +0.000 HD
ENDBRANCH   1  27
TORSDOF 2
ENDMDL
