MODEL 1
REMARK VINA RESULT:      -8.1      0.000      0.000
REMARK  Name = 
REMARK  4 active torsions:
REMARK  status: ('A' for Active; 'I' for Inactive)
REMARK    1  A    between atoms: C_2  and  O_3
REMARK    2  A    between atoms: C_2  and  C_4
REMARK    3  A    between atoms: C_4  and  C_5
REMARK    4  A    between atoms: C_8  and  C_9
REMARK                            x       y       z     vdW  Elec       q    Type
REMARK                         _______ _______ _______ _____ _____    ______ ____
ROOT
ATOM      1  C   UNL     1       6.521   4.910  15.090  0.00  0.00    +0.000 A 
ATOM      2  C   UNL     1       5.461   5.809  15.210  0.00  0.00    +0.000 A 
ATOM      3  C   UNL     1       4.911   6.090  16.465  0.00  0.00    +0.000 A 
ATOM      4  C   UNL     1       5.369   5.460  17.652  0.00  0.00    +0.000 A 
ATOM      5  C   UNL     1       6.466   4.604  17.539  0.00  0.00    +0.000 A 
ATOM      6  C   UNL     1       7.015   4.316  16.268  0.00  0.00    +0.000 A 
ENDROOT
BRANCH   4   7
ATOM      7  C   UNL     1       4.358   5.420  18.789  0.00  0.00    +0.000 C 
ATOM      8  C   UNL     1       3.417   6.610  18.481  0.00  0.00    +0.000 C 
ATOM      9  C   UNL     1       2.471   6.549  19.621  0.00  0.00    +0.000 C 
ATOM     10  O   UNL     1       1.874   7.462  20.133  0.00  0.00    +0.000 OA
ATOM     11  C   UNL     1       2.306   5.129  19.932  0.00  0.00    +0.000 A 
ATOM     12  C   UNL     1       1.255   4.602  20.644  0.00  0.00    +0.000 A 
ATOM     13  C   UNL     1       1.127   3.224  20.606  0.00  0.00    +0.000 A 
ATOM     14  C   UNL     1       2.075   2.450  19.898  0.00  0.00    +0.000 A 
ATOM     15  C   UNL     1       3.198   3.040  19.240  0.00  0.00    +0.000 A 
ATOM     16  C   UNL     1       3.315   4.413  19.241  0.00  0.00    +0.000 A 
ENDBRANCH   4   7
BRANCH   1  17
ATOM     17  C   UNL     1       6.994   4.525  13.699  0.00  0.00    +0.000 C 
BRANCH  17  19
ATOM     18  O   UNL     1       4.890   3.728  12.819  0.00  0.00    +0.000 OA
ATOM     19  C   UNL     1       6.106   3.615  12.883  0.00  0.00    +0.000 C 
BRANCH  19  20
ATOM     20  O   UNL     1       6.775   2.697  12.138  0.00  0.00    +0.000 OA
ATOM     21  H   UNL     1       6.334   1.822  12.106  0.00  0.00    +0.000 HD
ENDBRANCH  19  20
ENDBRANCH  17  19
ENDBRANCH   1  17
TORSDOF 4
ENDMDL
MODEL 2
REMARK VINA RESULT:      -7.9      1.128      1.290
REMARK  Name = 
REMARK  4 active torsions:
REMARK  status: ('A' for Active; 'I' for Inactive)
REMARK    1  A    between atoms: C_2  and  O_3
REMARK    2  A    between atoms: C_2  and  C_4
REMARK    3  A    between atoms: C_4  and  C_5
REMARK    4  A    between atoms: C_8  and  C_9
REMARK                            x       y       z     vdW  Elec       q    Type
REMARK                         _______ _______ _______ _____ _____    ______ ____
ROOT
ATOM      1  C   UNL     1       6.544   4.797  15.151  0.00  0.00    +0.000 A 
ATOM      2  C   UNL     1       5.420   5.622  15.185  0.00  0.00    +0.000 A 
ATOM      3  C   UNL     1       4.861   6.006  16.408  0.00  0.00    +0.000 A 
ATOM      4  C   UNL     1       5.376   5.555  17.652  0.00  0.00    +0.000 A 
ATOM      5  C   UNL     1       6.534   4.777  17.619  0.00  0.00    +0.000 A 
ATOM      6  C   UNL     1       7.092   4.384  16.382  0.00  0.00    +0.000 A 
ENDROOT
BRANCH   4   7
ATOM      7  C   UNL     1       4.382   5.574  18.804  0.00  0.00    +0.000 C 
ATOM      8  C   UNL     1       3.405   6.713  18.423  0.00  0.00    +0.000 C 
ATOM      9  C   UNL     1       2.476   6.712  19.578  0.00  0.00    +0.000 C 
ATOM     10  O   UNL     1       1.862   7.645  20.031  0.00  0.00    +0.000 OA
ATOM     11  C   UNL     1       2.353   5.316  19.995  0.00  0.00    +0.000 A 
ATOM     12  C   UNL     1       1.326   4.815  20.760  0.00  0.00    +0.000 A 
ATOM     13  C   UNL     1       1.234   3.436  20.825  0.00  0.00    +0.000 A 
ATOM     14  C   UNL     1       2.193   2.636  20.162  0.00  0.00    +0.000 A 
ATOM     15  C   UNL     1       3.292   3.205  19.446  0.00  0.00    +0.000 A 
ATOM     16  C   UNL     1       3.372   4.577  19.345  0.00  0.00    +0.000 A 
ENDBRANCH   4   7
BRANCH   1  17
ATOM     17  C   UNL     1       7.033   4.287  13.807  0.00  0.00    +0.000 C 
BRANCH  17  19
ATOM     18  O   UNL     1       8.720   5.960  13.369  0.00  0.00    +0.000 OA
ATOM     19  C   UNL     1       7.830   5.238  12.944  0.00  0.00    +0.000 C 
BRANCH  19  20
ATOM     20  O   UNL     1       7.542   5.168  11.618  0.00  0.00    +0.000 OA
ATOM     21  H   UNL     1       7.002   5.920  11.295  0.00  0.00    +0.000 HD
ENDBRANCH  19  20
ENDBRANCH  17  19
ENDBRANCH   1  17
TORSDOF 4
ENDMDL
MODEL 3
REMARK VINA RESULT:      -7.8      4.464      6.605
REMARK  Name = 
REMARK  4 active torsions:
REMARK  status: ('A' for Active; 'I' for Inactive)
REMARK    1  A    between atoms: C_2  and  O_3
REMARK    2  A    between atoms: C_2  and  C_4
REMARK    3  A    between atoms: C_4  and  C_5
REMARK    4  A    between atoms: C_8  and  C_9
REMARK                            x       y       z     vdW  Elec       q    Type
REMARK                         _______ _______ _______ _____ _____    ______ ____
ROOT
ATOM      1  C   UNL     1       0.860   9.734  18.911  0.00  0.00    +0.000 A 
ATOM      2  C   UNL     1       0.860   9.145  20.176  0.00  0.00    +0.000 A 
ATOM      3  C   UNL     1       1.637   8.010  20.427  0.00  0.00    +0.000 A 
ATOM      4  C   UNL     1       2.422   7.389  19.419  0.00  0.00    +0.000 A 
ATOM      5  C   UNL     1       2.465   8.010  18.171  0.00  0.00    +0.000 A 
ATOM      6  C   UNL     1       1.673   9.153  17.917  0.00  0.00    +0.000 A 
ENDROOT
BRANCH   4   7
ATOM      7  C   UNL     1       2.733   5.919  19.663  0.00  0.00    +0.000 C 
ATOM      8  C   UNL     1       1.787   5.534  20.826  0.00  0.00    +0.000 C 
ATOM      9  C   UNL     1       2.142   4.112  21.045  0.00  0.00    +0.000 C 
ATOM     10  O   UNL     1       2.086   3.489  22.075  0.00  0.00    +0.000 OA
ATOM     11  C   UNL     1       2.462   3.568  19.726  0.00  0.00    +0.000 A 
ATOM     12  C   UNL     1       2.470   2.230  19.412  0.00  0.00    +0.000 A 
ATOM     13  C   UNL     1       2.529   1.924  18.063  0.00  0.00    +0.000 A 
ATOM     14  C   UNL     1       2.620   2.964  17.109  0.00  0.00    +0.000 A 
ATOM     15  C   UNL     1       2.691   4.339  17.491  0.00  0.00    +0.000 A 
ATOM     16  C   UNL     1       2.596   4.657  18.829  0.00  0.00    +0.000 A 
ENDBRANCH   4   7
BRANCH   1  17
ATOM     17  C   UNL     1      -0.104  10.875  18.639  0.00  0.00    +0.000 C 
BRANCH  17  19
ATOM     18  O   UNL     1      -1.574   9.756  17.081  0.00  0.00    +0.000 OA
ATOM     19  C   UNL     1      -1.437  10.534  18.015  0.00  0.00    +0.000 C 
BRANCH  19  20
ATOM     20  O   UNL     1      -2.507  11.094  18.637  0.00  0.00    +0.000 OA
ATOM     21  H   UNL     1      -2.460  11.048  19.615  0.00  0.00    +0.000 HD
ENDBRANCH  19  20
ENDBRANCH  17  19
ENDBRANCH   1  17
TORSDOF 4
ENDMDL
MODEL 4
REMARK VINA RESULT:      -7.8      2.883      7.362
REMARK  Name = 
REMARK  4 active torsions:
REMARK  status: ('A' for Active; 'I' for Inactive)
REMARK    1  A    between atoms: C_2  and  O_3
REMARK    2  A    between atoms: C_2  and  C_4
REMARK    3  A    between atoms: C_4  and  C_5
REMARK    4  A    between atoms: C_8  and  C_9
REMARK                            x       y       z     vdW  Elec       q    Type
REMARK                         _______ _______ _______ _____ _____    ______ ____
ROOT
ATOM      1  C   UNL     1       0.766   9.331  20.254  0.00  0.00    +0.000 A 
ATOM      2  C   UNL     1       1.401   8.230  20.828  0.00  0.00    +0.000 A 
ATOM      3  C   UNL     1       2.200   7.388  20.048  0.00  0.00    +0.000 A 
ATOM      4  C   UNL     1       2.374   7.587  18.652  0.00  0.00    +0.000 A 
ATOM      5  C   UNL     1       1.785   8.720  18.091  0.00  0.00    +0.000 A 
ATOM      6  C   UNL     1       0.971   9.564  18.880  0.00  0.00    +0.000 A 
ENDROOT
BRANCH   4   7
ATOM      7  C   UNL     1       2.767   6.341  17.871  0.00  0.00    +0.000 C 
ATOM      8  C   UNL     1       4.312   6.328  17.960  0.00  0.00    +0.000 C 
ATOM      9  C   UNL     1       4.649   5.121  17.167  0.00  0.00    +0.000 C 
ATOM     10  O   UNL     1       5.649   4.916  16.526  0.00  0.00    +0.000 OA
ATOM     11  C   UNL     1       3.573   4.163  17.415  0.00  0.00    +0.000 A 
ATOM     12  C   UNL     1       3.665   2.808  17.198  0.00  0.00    +0.000 A 
ATOM     13  C   UNL     1       2.652   2.036  17.739  0.00  0.00    +0.000 A 
ATOM     14  C   UNL     1       1.586   2.659  18.428  0.00  0.00    +0.000 A 
ATOM     15  C   UNL     1       1.492   4.079  18.558  0.00  0.00    +0.000 A 
ATOM     16  C   UNL     1       2.514   4.855  18.053  0.00  0.00    +0.000 A 
ENDBRANCH   4   7
BRANCH   1  17
ATOM     17  C   UNL     1      -0.205  10.135  21.101  0.00  0.00    +0.000 C 
BRANCH  17  19
ATOM     18  O   UNL     1      -0.006  10.427  23.492  0.00  0.00    +0.000 OA
ATOM     19  C   UNL     1      -0.367   9.736  22.550  0.00  0.00    +0.000 C 
BRANCH  19  20
ATOM     20  O   UNL     1      -1.040   8.571  22.739  0.00  0.00    +0.000 OA
ATOM     21  H   UNL     1      -0.684   7.824  22.212  0.00  0.00    +0.000 HD
ENDBRANCH  19  20
ENDBRANCH  17  19
ENDBRANCH   1  17
TORSDOF 4
ENDMDL
MODEL 5
REMARK VINA RESULT:      -7.8      3.612      6.618
REMARK  Name = 
REMARK  4 active torsions:
REMARK  status: ('A' for Active; 'I' for Inactive)
REMARK    1  A    between atoms: C_2  and  O_3
REMARK    2  A    between atoms: C_2  and  C_4
REMARK    3  A    between atoms: C_4  and  C_5
REMARK    4  A    between atoms: C_8  and  C_9
REMARK                            x       y       z     vdW  Elec       q    Type
REMARK                         _______ _______ _______ _____ _____    ______ ____
ROOT
ATOM      1  C   UNL     1       0.899   9.553  19.156  0.00  0.00    +0.000 A 
ATOM      2  C   UNL     1       1.164   8.601  20.141  0.00  0.00    +0.000 A 
ATOM      3  C   UNL     1       2.070   7.564  19.896  0.00  0.00    +0.000 A 
ATOM      4  C   UNL     1       2.727   7.409  18.646  0.00  0.00    +0.000 A 
ATOM      5  C   UNL     1       2.504   8.394  17.683  0.00  0.00    +0.000 A 
ATOM      6  C   UNL     1       1.582   9.436  17.929  0.00  0.00    +0.000 A 
ENDROOT
BRANCH   4   7
ATOM      7  C   UNL     1       3.204   5.997  18.343  0.00  0.00    +0.000 C 
ATOM      8  C   UNL     1       4.432   5.820  19.269  0.00  0.00    +0.000 C 
ATOM      9  C   UNL     1       4.877   4.450  18.921  0.00  0.00    +0.000 C 
ATOM     10  O   UNL     1       5.997   4.006  18.961  0.00  0.00    +0.000 OA
ATOM     11  C   UNL     1       3.660   3.692  18.632  0.00  0.00    +0.000 A 
ATOM     12  C   UNL     1       3.572   2.320  18.642  0.00  0.00    +0.000 A 
ATOM     13  C   UNL     1       2.291   1.795  18.611  0.00  0.00    +0.000 A 
ATOM     14  C   UNL     1       1.177   2.662  18.531  0.00  0.00    +0.000 A 
ATOM     15  C   UNL     1       1.325   4.080  18.441  0.00  0.00    +0.000 A 
ATOM     16  C   UNL     1       2.593   4.616  18.507  0.00  0.00    +0.000 A 
ENDBRANCH   4   7
BRANCH   1  17
ATOM     17  C   UNL     1      -0.194  10.576  19.408  0.00  0.00    +0.000 C 
BRANCH  17  19
ATOM     18  O   UNL     1      -2.153   9.939  18.144  0.00  0.00    +0.000 OA
ATOM     19  C   UNL     1      -1.255  10.745  18.346  0.00  0.00    +0.000 C 
BRANCH  19  20
ATOM     20  O   UNL     1      -1.194  11.924  17.674  0.00  0.00    +0.000 OA
ATOM     21  H   UNL     1      -0.505  12.533  18.015  0.00  0.00    +0.000 HD
ENDBRANCH  19  20
ENDBRANCH  17  19
ENDBRANCH   1  17
TORSDOF 4
ENDMDL
MODEL 6
REMARK VINA RESULT:      -7.7      2.525      7.052
REMARK  Name = 
REMARK  4 active torsions:
REMARK  status: ('A' for Active; 'I' for Inactive)
REMARK    1  A    between atoms: C_2  and  O_3
REMARK    2  A    between atoms: C_2  and  C_4
REMARK    3  A    between atoms: C_4  and  C_5
REMARK    4  A    between atoms: C_8  and  C_9
REMARK                            x       y       z     vdW  Elec       q    Type
REMARK                         _______ _______ _______ _____ _____    ______ ____
ROOT
ATOM      1  C   UNL     1       2.165   2.997  19.009  0.00  0.00    +0.000 A 
ATOM      2  C   UNL     1       1.756   3.501  17.775  0.00  0.00    +0.000 A 
ATOM      3  C   UNL     1       2.696   3.780  16.778  0.00  0.00    +0.000 A 
ATOM      4  C   UNL     1       4.091   3.603  16.979  0.00  0.00    +0.000 A 
ATOM      5  C   UNL     1       4.495   3.046  18.193  0.00  0.00    +0.000 A 
ATOM      6  C   UNL     1       3.543   2.772  19.202  0.00  0.00    +0.000 A 
ENDROOT
BRANCH   4   7
ATOM      7  C   UNL     1       4.982   4.445  16.078  0.00  0.00    +0.000 C 
ATOM      8  C   UNL     1       6.238   4.704  16.945  0.00  0.00    +0.000 C 
ATOM      9  C   UNL     1       7.060   5.544  16.043  0.00  0.00    +0.000 C 
ATOM     10  O   UNL     1       7.860   6.392  16.351  0.00  0.00    +0.000 OA
ATOM     11  C   UNL     1       6.799   5.057  14.689  0.00  0.00    +0.000 A 
ATOM     12  C   UNL     1       7.615   5.282  13.606  0.00  0.00    +0.000 A 
ATOM     13  C   UNL     1       7.350   4.523  12.479  0.00  0.00    +0.000 A 
ATOM     14  C   UNL     1       6.264   3.617  12.481  0.00  0.00    +0.000 A 
ATOM     15  C   UNL     1       5.394   3.478  13.606  0.00  0.00    +0.000 A 
ATOM     16  C   UNL     1       5.670   4.202  14.746  0.00  0.00    +0.000 A 
ENDBRANCH   4   7
BRANCH   1  17
ATOM     17  C   UNL     1       1.133   2.843  20.112  0.00  0.00    +0.000 C 
BRANCH  17  19
ATOM     18  O   UNL     1       1.483   2.274  22.434  0.00  0.00    +0.000 OA
ATOM     19  C   UNL     1       1.581   3.094  21.532  0.00  0.00    +0.000 C 
BRANCH  19  20
ATOM     20  O   UNL     1       2.198   4.290  21.723  0.00  0.00    +0.000 OA
ATOM     21  H   UNL     1       2.047   4.928  20.994  0.00  0.00    +0.000 HD
ENDBRANCH  19  20
ENDBRANCH  17  19
ENDBRANCH   1  17
TORSDOF 4
ENDMDL
MODEL 7
REMARK VINA RESULT:      -7.7      1.492      2.717
REMARK  Name = 
REMARK  4 active torsions:
REMARK  status: ('A' for Active; 'I' for Inactive)
REMARK    1  A    between atoms: C_2  and  O_3
REMARK    2  A    between atoms: C_2  and  C_4
REMARK    3  A    between atoms: C_4  and  C_5
REMARK    4  A    between atoms: C_8  and  C_9
REMARK                            x       y       z     vdW  Elec       q    Type
REMARK                         _______ _______ _______ _____ _____    ______ ____
ROOT
ATOM      1  C   UNL     1       5.997   4.435  14.677  0.00  0.00    +0.000 A 
ATOM      2  C   UNL     1       5.615   5.755  14.915  0.00  0.00    +0.000 A 
ATOM      3  C   UNL     1       4.964   6.100  16.104  0.00  0.00    +0.000 A 
ATOM      4  C   UNL     1       4.631   5.136  17.094  0.00  0.00    +0.000 A 
ATOM      5  C   UNL     1       5.064   3.827  16.880  0.00  0.00    +0.000 A 
ATOM      6  C   UNL     1       5.715   3.480  15.674  0.00  0.00    +0.000 A 
ENDROOT
BRANCH   4   7
ATOM      7  C   UNL     1       3.479   5.526  18.007  0.00  0.00    +0.000 C 
ATOM      8  C   UNL     1       3.919   4.997  19.394  0.00  0.00    +0.000 C 
ATOM      9  C   UNL     1       2.762   5.372  20.241  0.00  0.00    +0.000 C 
ATOM     10  O   UNL     1       2.360   4.813  21.230  0.00  0.00    +0.000 OA
ATOM     11  C   UNL     1       2.266   6.641  19.708  0.00  0.00    +0.000 A 
ATOM     12  C   UNL     1       1.471   7.523  20.399  0.00  0.00    +0.000 A 
ATOM     13  C   UNL     1       1.328   8.780  19.837  0.00  0.00    +0.000 A 
ATOM     14  C   UNL     1       1.949   9.072  18.601  0.00  0.00    +0.000 A 
ATOM     15  C   UNL     1       2.700   8.093  17.879  0.00  0.00    +0.000 A 
ATOM     16  C   UNL     1       2.879   6.850  18.447  0.00  0.00    +0.000 A 
ENDBRANCH   4   7
BRANCH   1  17
ATOM     17  C   UNL     1       6.572   4.078  13.318  0.00  0.00    +0.000 C 
BRANCH  17  19
ATOM     18  O   UNL     1       4.563   3.495  12.107  0.00  0.00    +0.000 OA
ATOM     19  C   UNL     1       5.721   3.232  12.398  0.00  0.00    +0.000 C 
BRANCH  19  20
ATOM     20  O   UNL     1       6.377   2.185  11.833  0.00  0.00    +0.000 OA
ATOM     21  H   UNL     1       7.333   2.160  12.048  0.00  0.00    +0.000 HD
ENDBRANCH  19  20
ENDBRANCH  17  19
ENDBRANCH   1  17
TORSDOF 4
ENDMDL
MODEL 8
REMARK VINA RESULT:      -7.6      4.066      7.094
REMARK  Name = 
REMARK  4 active torsions:
REMARK  status: ('A' for Active; 'I' for Inactive)
REMARK    1  A    between atoms: C_2  and  O_3
REMARK    2  A    between atoms: C_2  and  C_4
REMARK    3  A    between atoms: C_4  and  C_5
REMARK    4  A    between atoms: C_8  and  C_9
REMARK                            x       y       z     vdW  Elec       q    Type
REMARK                         _______ _______ _______ _____ _____    ______ ____
ROOT
ATOM      1  C   UNL     1       0.195   9.877  19.096  0.00  0.00    +0.000 A 
ATOM      2  C   UNL     1       0.364   9.306  20.358  0.00  0.00    +0.000 A 
ATOM      3  C   UNL     1       1.320   8.306  20.559  0.00  0.00    +0.000 A 
ATOM      4  C   UNL     1       2.127   7.804  19.503  0.00  0.00    +0.000 A 
ATOM      5  C   UNL     1       1.997   8.415  18.255  0.00  0.00    +0.000 A 
ATOM      6  C   UNL     1       1.024   9.420  18.053  0.00  0.00    +0.000 A 
ENDROOT
BRANCH   4   7
ATOM      7  C   UNL     1       2.675   6.402  19.725  0.00  0.00    +0.000 C 
ATOM      8  C   UNL     1       1.605   5.729  20.618  0.00  0.00    +0.000 C 
ATOM      9  C   UNL     1       2.190   4.384  20.829  0.00  0.00    +0.000 C 
ATOM     10  O   UNL     1       2.048   3.659  21.781  0.00  0.00    +0.000 OA
ATOM     11  C   UNL     1       2.886   4.048  19.587  0.00  0.00    +0.000 A 
ATOM     12  C   UNL     1       3.235   2.775  19.205  0.00  0.00    +0.000 A 
ATOM     13  C   UNL     1       3.640   2.625  17.890  0.00  0.00    +0.000 A 
ATOM     14  C   UNL     1       3.713   3.756  17.044  0.00  0.00    +0.000 A 
ATOM     15  C   UNL     1       3.418   5.074  17.512  0.00  0.00    +0.000 A 
ATOM     16  C   UNL     1       2.980   5.229  18.809  0.00  0.00    +0.000 A 
ENDBRANCH   4   7
BRANCH   1  17
ATOM     17  C   UNL     1      -0.948  10.855  18.887  0.00  0.00    +0.000 C 
BRANCH  17  19
ATOM     18  O   UNL     1       0.150  12.967  19.302  0.00  0.00    +0.000 OA
ATOM     19  C   UNL     1      -0.595  12.296  18.602  0.00  0.00    +0.000 C 
BRANCH  19  20
ATOM     20  O   UNL     1      -1.101  12.778  17.437  0.00  0.00    +0.000 OA
ATOM     21  H   UNL     1      -1.019  12.153  16.686  0.00  0.00    +0.000 HD
ENDBRANCH  19  20
ENDBRANCH  17  19
ENDBRANCH   1  17
TORSDOF 4
ENDMDL
MODEL 9
REMARK VINA RESULT:      -7.6      3.446      6.735
REMARK  Name = 
REMARK  4 active torsions:
REMARK  status: ('A' for Active; 'I' for Inactive)
REMARK    1  A    between atoms: C_2  and  O_3
REMARK    2  A    between atoms: C_2  and  C_4
REMARK    3  A    between atoms: C_4  and  C_5
REMARK    4  A    between atoms: C_8  and  C_9
REMARK                            x       y       z     vdW  Elec       q    Type
REMARK                         _______ _______ _______ _____ _____    ______ ____
ROOT
ATOM      1  C   UNL     1       0.821  10.041  19.016  0.00  0.00    +0.000 A 
ATOM      2  C   UNL     1       0.950   9.228  20.142  0.00  0.00    +0.000 A 
ATOM      3  C   UNL     1       1.708   8.055  20.084  0.00  0.00    +0.000 A 
ATOM      4  C   UNL     1       2.342   7.619  18.890  0.00  0.00    +0.000 A 
ATOM      5  C   UNL     1       2.260   8.461  17.780  0.00  0.00    +0.000 A 
ATOM      6  C   UNL     1       1.487   9.643  17.839  0.00  0.00    +0.000 A 
ENDROOT
BRANCH   4   7
ATOM      7  C   UNL     1       2.625   6.126  18.821  0.00  0.00    +0.000 C 
ATOM      8  C   UNL     1       4.169   6.043  18.882  0.00  0.00    +0.000 C 
ATOM      9  C   UNL     1       4.398   4.582  18.785  0.00  0.00    +0.000 C 
ATOM     10  O   UNL     1       5.351   4.015  18.314  0.00  0.00    +0.000 OA
ATOM     11  C   UNL     1       3.282   3.952  19.490  0.00  0.00    +0.000 A 
ATOM     12  C   UNL     1       3.287   2.664  19.970  0.00  0.00    +0.000 A 
ATOM     13  C   UNL     1       2.259   2.335  20.837  0.00  0.00    +0.000 A 
ATOM     14  C   UNL     1       1.266   3.293  21.144  0.00  0.00    +0.000 A 
ATOM     15  C   UNL     1       1.259   4.596  20.555  0.00  0.00    +0.000 A 
ATOM     16  C   UNL     1       2.297   4.945  19.718  0.00  0.00    +0.000 A 
ENDBRANCH   4   7
BRANCH   1  17
ATOM     17  C   UNL     1      -0.124  11.228  19.078  0.00  0.00    +0.000 C 
BRANCH  17  19
ATOM     18  O   UNL     1      -2.135  10.334  18.079  0.00  0.00    +0.000 OA
ATOM     19  C   UNL     1      -1.307  11.232  18.138  0.00  0.00    +0.000 C 
BRANCH  19  20
ATOM     20  O   UNL     1      -1.440  12.371  17.409  0.00  0.00    +0.000 OA
ATOM     21  H   UNL     1      -0.598  12.860  17.290  0.00  0.00    +0.000 HD
ENDBRANCH  19  20
ENDBRANCH  17  19
ENDBRANCH   1  17
TORSDOF 4
ENDMDL
