MODEL 1
REMARK VINA RESULT:      -9.1      0.000      0.000
REMARK  Name = 
REMARK  7 active torsions:
REMARK  status: ('A' for Active; 'I' for Inactive)
REMARK    1  A    between atoms: C_1  and  O_2
REMARK    2  A    between atoms: O_2  and  C_3
REMARK    3  A    between atoms: C_6  and  C_7
REMARK    4  A    between atoms: C_18  and  C_19
REMARK    5  A    between atoms: C_32  and  N_33
REMARK    6  A    between atoms: N_33  and  C_34
REMARK    7  A    between atoms: N_33  and  C_35
REMARK                            x       y       z     vdW  Elec       q    Type
REMARK                         _______ _______ _______ _____ _____    ______ ____
ROOT
ATOM      1  C   UNL     1       2.115   8.292  18.463  0.00  0.00    +0.000 C 
ATOM      2  O   UNL     1       2.497   8.479  17.291  0.00  0.00    +0.000 OA
ATOM      3  N   UNL     1       1.580   9.302  19.242  0.00  0.00    +0.000 N 
ATOM      4  C   UNL     1       1.023   9.216  20.585  0.00  0.00    +0.000 C 
ATOM      5  C   UNL     1       0.844  10.588  21.202  0.00  0.00    +0.000 C 
ATOM      6  C   UNL     1      -0.183  11.768  20.378  0.00  0.00    +0.000 C 
ATOM      7  C   UNL     1       1.038  11.691  19.375  0.00  0.00    +0.000 C 
ATOM      8  C   UNL     1       1.045  10.400  18.507  0.00  0.00    +0.000 C 
ATOM      9  N   UNL     1      -1.168  11.344  21.460  0.00  0.00    +0.000 N 
ATOM     10  C   UNL     1      -2.348  12.099  21.587  0.00  0.00    +0.000 A 
ATOM     11  C   UNL     1      -2.854  12.494  22.821  0.00  0.00    +0.000 A 
ATOM     12  C   UNL     1      -3.982  13.331  22.887  0.00  0.00    +0.000 A 
ATOM     13  C   UNL     1      -4.612  13.748  21.698  0.00  0.00    +0.000 A 
ATOM     14  C   UNL     1      -4.207  13.228  20.475  0.00  0.00    +0.000 A 
ATOM     15  C   UNL     1      -3.103  12.384  20.465  0.00  0.00    +0.000 A 
ATOM     16  N   UNL     1      -2.589  11.836  19.305  0.00  0.00    +0.000 N 
ATOM     17  C   UNL     1      -3.236  11.365  18.194  0.00  0.00    +0.000 A 
ATOM     18  C   UNL     1      -2.342  11.463  17.159  0.00  0.00    +0.000 A 
ATOM     19  C   UNL     1      -1.160  11.984  17.730  0.00  0.00    +0.000 A 
ATOM     20  C   UNL     1      -1.230  11.723  19.120  0.00  0.00    +0.000 A 
ATOM     21  H   UNL     1      -0.818  11.260  22.407  0.00  0.00    +0.000 HD
ENDROOT
BRANCH   1  25
ATOM     22  C   UNL     1       2.702   4.386  20.016  0.00  0.00    +0.000 A 
ATOM     23  C   UNL     1       2.064   5.392  20.779  0.00  0.00    +0.000 A 
ATOM     24  C   UNL     1       1.837   6.645  20.248  0.00  0.00    +0.000 A 
ATOM     25  C   UNL     1       2.297   6.929  18.977  0.00  0.00    +0.000 A 
ATOM     26  C   UNL     1       2.956   5.934  18.239  0.00  0.00    +0.000 A 
ATOM     27  C   UNL     1       3.041   4.597  18.657  0.00  0.00    +0.000 A 
BRANCH  27  28
ATOM     28  N   UNL     1       3.402   3.625  17.720  0.00  0.00    +0.000 N 
ATOM     29  C   UNL     1       2.549   2.442  17.497  0.00  0.00    +0.000 C 
ATOM     30  C   UNL     1       4.626   3.649  16.945  0.00  0.00    +0.000 C 
ENDBRANCH  27  28
BRANCH  22  32
ATOM     31  C   UNL     1       1.958   2.762  21.542  0.00  0.00    +0.000 C 
ATOM     32  O   UNL     1       2.980   3.185  20.630  0.00  0.00    +0.000 OA
ENDBRANCH  22  32
ENDBRANCH   1  25
BRANCH  12  33
ATOM     33  C   UNL     1      -4.521  13.796  24.216  0.00  0.00    +0.000 C 
ATOM     34  F   UNL     1      -3.733  14.726  24.824  0.00  0.00    +0.000 F 
ATOM     35  F   UNL     1      -5.753  14.360  24.109  0.00  0.00    +0.000 F 
ATOM     36  F   UNL     1      -4.647  12.774  25.106  0.00  0.00    +0.000 F 
ENDBRANCH  12  33
TORSDOF 4
ENDMDL
MODEL 2
REMARK VINA RESULT:      -8.3      7.718     10.614
REMARK  Name = 
REMARK  7 active torsions:
REMARK  status: ('A' for Active; 'I' for Inactive)
REMARK    1  A    between atoms: C_1  and  O_2
REMARK    2  A    between atoms: O_2  and  C_3
REMARK    3  A    between atoms: C_6  and  C_7
REMARK    4  A    between atoms: C_18  and  C_19
REMARK    5  A    between atoms: C_32  and  N_33
REMARK    6  A    between atoms: N_33  and  C_34
REMARK    7  A    between atoms: N_33  and  C_35
REMARK                            x       y       z     vdW  Elec       q    Type
REMARK                         _______ _______ _______ _____ _____    ______ ____
ROOT
ATOM      1  C   UNL     1       1.429  14.483  19.649  0.00  0.00    +0.000 C 
ATOM      2  O   UNL     1       0.844  15.203  20.481  0.00  0.00    +0.000 OA
ATOM      3  N   UNL     1       2.682  14.791  19.149  0.00  0.00    +0.000 N 
ATOM      4  C   UNL     1       3.515  14.011  18.242  0.00  0.00    +0.000 C 
ATOM      5  C   UNL     1       4.657  14.839  17.688  0.00  0.00    +0.000 C 
ATOM      6  C   UNL     1       5.805  15.574  18.814  0.00  0.00    +0.000 C 
ATOM      7  C   UNL     1       4.508  16.429  19.118  0.00  0.00    +0.000 C 
ATOM      8  C   UNL     1       3.451  15.667  19.968  0.00  0.00    +0.000 C 
ATOM      9  N   UNL     1       6.666  14.401  18.366  0.00  0.00    +0.000 N 
ATOM     10  C   UNL     1       8.016  14.405  18.761  0.00  0.00    +0.000 A 
ATOM     11  C   UNL     1       9.051  14.077  17.892  0.00  0.00    +0.000 A 
ATOM     12  C   UNL     1      10.388  14.194  18.311  0.00  0.00    +0.000 A 
ATOM     13  C   UNL     1      10.675  14.620  19.623  0.00  0.00    +0.000 A 
ATOM     14  C   UNL     1       9.645  14.793  20.540  0.00  0.00    +0.000 A 
ATOM     15  C   UNL     1       8.341  14.642  20.084  0.00  0.00    +0.000 A 
ATOM     16  N   UNL     1       7.238  14.824  20.895  0.00  0.00    +0.000 N 
ATOM     17  C   UNL     1       7.050  14.495  22.211  0.00  0.00    +0.000 A 
ATOM     18  C   UNL     1       6.084  15.344  22.685  0.00  0.00    +0.000 A 
ATOM     19  C   UNL     1       5.716  16.149  21.585  0.00  0.00    +0.000 A 
ATOM     20  C   UNL     1       6.106  15.447  20.418  0.00  0.00    +0.000 A 
ATOM     21  H   UNL     1       6.694  14.190  17.375  0.00  0.00    +0.000 HD
ENDROOT
BRANCH   1  25
ATOM     22  C   UNL     1      -0.786  11.071  18.437  0.00  0.00    +0.000 A 
ATOM     23  C   UNL     1      -1.189  12.377  18.072  0.00  0.00    +0.000 A 
ATOM     24  C   UNL     1      -0.437  13.477  18.432  0.00  0.00    +0.000 A 
ATOM     25  C   UNL     1       0.689  13.294  19.210  0.00  0.00    +0.000 A 
ATOM     26  C   UNL     1       1.065  11.997  19.594  0.00  0.00    +0.000 A 
ATOM     27  C   UNL     1       0.446  10.839  19.097  0.00  0.00    +0.000 A 
BRANCH  27  28
ATOM     28  N   UNL     1       1.096   9.612  19.258  0.00  0.00    +0.000 N 
ATOM     29  C   UNL     1       1.838   9.002  18.139  0.00  0.00    +0.000 C 
ATOM     30  C   UNL     1       1.060   8.820  20.471  0.00  0.00    +0.000 C 
ENDBRANCH  27  28
BRANCH  22  32
ATOM     31  C   UNL     1      -2.153  10.094  16.796  0.00  0.00    +0.000 C 
ATOM     32  O   UNL     1      -1.623  10.024  18.126  0.00  0.00    +0.000 OA
ENDBRANCH  22  32
ENDBRANCH   1  25
BRANCH  12  33
ATOM     33  C   UNL     1      11.522  13.876  17.370  0.00  0.00    +0.000 C 
ATOM     34  F   UNL     1      12.333  12.877  17.816  0.00  0.00    +0.000 F 
ATOM     35  F   UNL     1      11.086  13.486  16.142  0.00  0.00    +0.000 F 
ATOM     36  F   UNL     1      12.333  14.949  17.160  0.00  0.00    +0.000 F 
ENDBRANCH  12  33
TORSDOF 4
ENDMDL
MODEL 3
REMARK VINA RESULT:      -8.0      7.772     10.751
REMARK  Name = 
REMARK  7 active torsions:
REMARK  status: ('A' for Active; 'I' for Inactive)
REMARK    1  A    between atoms: C_1  and  O_2
REMARK    2  A    between atoms: O_2  and  C_3
REMARK    3  A    between atoms: C_6  and  C_7
REMARK    4  A    between atoms: C_18  and  C_19
REMARK    5  A    between atoms: C_32  and  N_33
REMARK    6  A    between atoms: N_33  and  C_34
REMARK    7  A    between atoms: N_33  and  C_35
REMARK                            x       y       z     vdW  Elec       q    Type
REMARK                         _______ _______ _______ _____ _____    ______ ____
ROOT
ATOM      1  C   UNL     1       1.606  14.513  20.191  0.00  0.00    +0.000 C 
ATOM      2  O   UNL     1       1.107  15.143  21.144  0.00  0.00    +0.000 OA
ATOM      3  N   UNL     1       2.846  14.823  19.662  0.00  0.00    +0.000 N 
ATOM      4  C   UNL     1       3.585  14.133  18.613  0.00  0.00    +0.000 C 
ATOM      5  C   UNL     1       4.740  14.971  18.104  0.00  0.00    +0.000 C 
ATOM      6  C   UNL     1       5.986  15.491  19.246  0.00  0.00    +0.000 C 
ATOM      7  C   UNL     1       4.758  16.359  19.736  0.00  0.00    +0.000 C 
ATOM      8  C   UNL     1       3.706  15.544  20.541  0.00  0.00    +0.000 C 
ATOM      9  N   UNL     1       6.754  14.347  18.597  0.00  0.00    +0.000 N 
ATOM     10  C   UNL     1       8.121  14.232  18.907  0.00  0.00    +0.000 A 
ATOM     11  C   UNL     1       9.089  13.974  17.942  0.00  0.00    +0.000 A 
ATOM     12  C   UNL     1      10.451  13.968  18.292  0.00  0.00    +0.000 A 
ATOM     13  C   UNL     1      10.830  14.199  19.629  0.00  0.00    +0.000 A 
ATOM     14  C   UNL     1       9.862  14.298  20.621  0.00  0.00    +0.000 A 
ATOM     15  C   UNL     1       8.529  14.274  20.228  0.00  0.00    +0.000 A 
ATOM     16  N   UNL     1       7.482  14.399  21.120  0.00  0.00    +0.000 N 
ATOM     17  C   UNL     1       7.346  13.906  22.391  0.00  0.00    +0.000 A 
ATOM     18  C   UNL     1       6.456  14.730  23.029  0.00  0.00    +0.000 A 
ATOM     19  C   UNL     1       6.076  15.692  22.068  0.00  0.00    +0.000 A 
ATOM     20  C   UNL     1       6.364  15.135  20.799  0.00  0.00    +0.000 A 
ATOM     21  H   UNL     1       6.717  14.270  17.587  0.00  0.00    +0.000 HD
ENDROOT
BRANCH   1  25
ATOM     22  C   UNL     1      -0.868  11.424  18.657  0.00  0.00    +0.000 A 
ATOM     23  C   UNL     1      -1.004  12.761  18.218  0.00  0.00    +0.000 A 
ATOM     24  C   UNL     1      -0.165  13.751  18.688  0.00  0.00    +0.000 A 
ATOM     25  C   UNL     1       0.778  13.431  19.646  0.00  0.00    +0.000 A 
ATOM     26  C   UNL     1       0.886  12.107  20.099  0.00  0.00    +0.000 A 
ATOM     27  C   UNL     1       0.190  11.036  19.516  0.00  0.00    +0.000 A 
BRANCH  27  28
ATOM     28  N   UNL     1       0.613   9.733  19.795  0.00  0.00    +0.000 N 
ATOM     29  C   UNL     1       0.158   9.040  21.014  0.00  0.00    +0.000 C 
ATOM     30  C   UNL     1       1.546   8.983  18.978  0.00  0.00    +0.000 C 
ENDBRANCH  27  28
BRANCH  22  32
ATOM     31  C   UNL     1      -3.111  11.038  18.075  0.00  0.00    +0.000 C 
ATOM     32  O   UNL     1      -1.790  10.500  18.219  0.00  0.00    +0.000 OA
ENDBRANCH  22  32
ENDBRANCH   1  25
BRANCH  12  33
ATOM     33  C   UNL     1      11.514  13.724  17.251  0.00  0.00    +0.000 C 
ATOM     34  F   UNL     1      11.008  13.440  16.018  0.00  0.00    +0.000 F 
ATOM     35  F   UNL     1      12.333  14.796  17.083  0.00  0.00    +0.000 F 
ATOM     36  F   UNL     1      12.321  12.676  17.573  0.00  0.00    +0.000 F 
ENDBRANCH  12  33
TORSDOF 4
ENDMDL
MODEL 4
REMARK VINA RESULT:      -7.6      1.200      1.804
REMARK  Name = 
REMARK  7 active torsions:
REMARK  status: ('A' for Active; 'I' for Inactive)
REMARK    1  A    between atoms: C_1  and  O_2
REMARK    2  A    between atoms: O_2  and  C_3
REMARK    3  A    between atoms: C_6  and  C_7
REMARK    4  A    between atoms: C_18  and  C_19
REMARK    5  A    between atoms: C_32  and  N_33
REMARK    6  A    between atoms: N_33  and  C_34
REMARK    7  A    between atoms: N_33  and  C_35
REMARK                            x       y       z     vdW  Elec       q    Type
REMARK                         _______ _______ _______ _____ _____    ______ ____
ROOT
ATOM      1  C   UNL     1       2.621   7.901  17.987  0.00  0.00    +0.000 C 
ATOM      2  O   UNL     1       2.851   8.036  16.770  0.00  0.00    +0.000 OA
ATOM      3  N   UNL     1       2.088   8.917  18.761  0.00  0.00    +0.000 N 
ATOM      4  C   UNL     1       1.695   8.879  20.163  0.00  0.00    +0.000 C 
ATOM      5  C   UNL     1       1.466  10.273  20.713  0.00  0.00    +0.000 C 
ATOM      6  C   UNL     1       0.253  11.305  19.946  0.00  0.00    +0.000 C 
ATOM      7  C   UNL     1       1.356  11.258  18.813  0.00  0.00    +0.000 C 
ATOM      8  C   UNL     1       1.380   9.914  18.030  0.00  0.00    +0.000 C 
ATOM      9  N   UNL     1      -0.564  10.879  21.159  0.00  0.00    +0.000 N 
ATOM     10  C   UNL     1      -1.784  11.544  21.379  0.00  0.00    +0.000 A 
ATOM     11  C   UNL     1      -2.182  11.981  22.637  0.00  0.00    +0.000 A 
ATOM     12  C   UNL     1      -3.365  12.727  22.784  0.00  0.00    +0.000 A 
ATOM     13  C   UNL     1      -4.158  13.008  21.655  0.00  0.00    +0.000 A 
ATOM     14  C   UNL     1      -3.848  12.439  20.426  0.00  0.00    +0.000 A 
ATOM     15  C   UNL     1      -2.682  11.688  20.337  0.00  0.00    +0.000 A 
ATOM     16  N   UNL     1      -2.254  11.104  19.161  0.00  0.00    +0.000 N 
ATOM     17  C   UNL     1      -2.977  10.506  18.163  0.00  0.00    +0.000 A 
ATOM     18  C   UNL     1      -2.216  10.603  17.026  0.00  0.00    +0.000 A 
ATOM     19  C   UNL     1      -1.029  11.257  17.422  0.00  0.00    +0.000 A 
ATOM     20  C   UNL     1      -0.920  11.088  18.824  0.00  0.00    +0.000 A 
ATOM     21  H   UNL     1      -0.105  10.890  22.062  0.00  0.00    +0.000 HD
ENDROOT
BRANCH   1  25
ATOM     22  C   UNL     1       3.709   4.110  19.556  0.00  0.00    +0.000 A 
ATOM     23  C   UNL     1       4.661   5.146  19.409  0.00  0.00    +0.000 A 
ATOM     24  C   UNL     1       4.289   6.390  18.941  0.00  0.00    +0.000 A 
ATOM     25  C   UNL     1       2.978   6.597  18.557  0.00  0.00    +0.000 A 
ATOM     26  C   UNL     1       2.047   5.554  18.677  0.00  0.00    +0.000 A 
ATOM     27  C   UNL     1       2.331   4.340  19.322  0.00  0.00    +0.000 A 
BRANCH  27  28
ATOM     28  N   UNL     1       1.265   3.516  19.696  0.00  0.00    +0.000 N 
ATOM     29  C   UNL     1       1.002   3.226  21.117  0.00  0.00    +0.000 C 
ATOM     30  C   UNL     1       0.384   2.844  18.762  0.00  0.00    +0.000 C 
ENDBRANCH  27  28
BRANCH  22  32
ATOM     31  C   UNL     1       4.019   1.870  18.923  0.00  0.00    +0.000 C 
ATOM     32  O   UNL     1       4.157   2.868  19.943  0.00  0.00    +0.000 OA
ENDBRANCH  22  32
ENDBRANCH   1  25
BRANCH  12  33
ATOM     33  C   UNL     1      -3.791  13.239  24.137  0.00  0.00    +0.000 C 
ATOM     34  F   UNL     1      -4.142  12.248  25.004  0.00  0.00    +0.000 F 
ATOM     35  F   UNL     1      -2.812  13.951  24.756  0.00  0.00    +0.000 F 
ATOM     36  F   UNL     1      -4.870  14.066  24.059  0.00  0.00    +0.000 F 
ENDBRANCH  12  33
TORSDOF 4
ENDMDL
MODEL 5
REMARK VINA RESULT:      -7.6      7.867     10.741
REMARK  Name = 
REMARK  7 active torsions:
REMARK  status: ('A' for Active; 'I' for Inactive)
REMARK    1  A    between atoms: C_1  and  O_2
REMARK    2  A    between atoms: O_2  and  C_3
REMARK    3  A    between atoms: C_6  and  C_7
REMARK    4  A    between atoms: C_18  and  C_19
REMARK    5  A    between atoms: C_32  and  N_33
REMARK    6  A    between atoms: N_33  and  C_34
REMARK    7  A    between atoms: N_33  and  C_35
REMARK                            x       y       z     vdW  Elec       q    Type
REMARK                         _______ _______ _______ _____ _____    ______ ____
ROOT
ATOM      1  C   UNL     1       1.858  13.963  21.017  0.00  0.00    +0.000 C 
ATOM      2  O   UNL     1       1.407  14.119  22.168  0.00  0.00    +0.000 OA
ATOM      3  N   UNL     1       2.994  14.613  20.568  0.00  0.00    +0.000 N 
ATOM      4  C   UNL     1       3.678  14.469  19.290  0.00  0.00    +0.000 C 
ATOM      5  C   UNL     1       4.681  15.584  19.068  0.00  0.00    +0.000 C 
ATOM      6  C   UNL     1       5.986  15.804  20.240  0.00  0.00    +0.000 C 
ATOM      7  C   UNL     1       4.739  16.253  21.103  0.00  0.00    +0.000 C 
ATOM      8  C   UNL     1       3.869  15.062  21.599  0.00  0.00    +0.000 C 
ATOM      9  N   UNL     1       6.789  15.100  19.154  0.00  0.00    +0.000 N 
ATOM     10  C   UNL     1       8.186  15.063  19.308  0.00  0.00    +0.000 A 
ATOM     11  C   UNL     1       9.062  15.316  18.258  0.00  0.00    +0.000 A 
ATOM     12  C   UNL     1      10.449  15.363  18.491  0.00  0.00    +0.000 A 
ATOM     13  C   UNL     1      10.948  15.129  19.787  0.00  0.00    +0.000 A 
ATOM     14  C   UNL     1      10.090  14.720  20.801  0.00  0.00    +0.000 A 
ATOM     15  C   UNL     1       8.731  14.664  20.515  0.00  0.00    +0.000 A 
ATOM     16  N   UNL     1       7.782  14.305  21.453  0.00  0.00    +0.000 N 
ATOM     17  C   UNL     1       7.838  13.361  22.443  0.00  0.00    +0.000 A 
ATOM     18  C   UNL     1       6.945  13.760  23.404  0.00  0.00    +0.000 A 
ATOM     19  C   UNL     1       6.367  14.950  22.912  0.00  0.00    +0.000 A 
ATOM     20  C   UNL     1       6.567  14.950  21.510  0.00  0.00    +0.000 A 
ATOM     21  H   UNL     1       6.649  15.400  18.196  0.00  0.00    +0.000 HD
ENDROOT
BRANCH   1  25
ATOM     22  C   UNL     1      -0.451  11.376  18.570  0.00  0.00    +0.000 A 
ATOM     23  C   UNL     1      -0.660  12.774  18.563  0.00  0.00    +0.000 A 
ATOM     24  C   UNL     1       0.126  13.612  19.328  0.00  0.00    +0.000 A 
ATOM     25  C   UNL     1       1.088  13.061  20.153  0.00  0.00    +0.000 A 
ATOM     26  C   UNL     1       1.268  11.670  20.175  0.00  0.00    +0.000 A 
ATOM     27  C   UNL     1       0.629  10.797  19.281  0.00  0.00    +0.000 A 
BRANCH  27  28
ATOM     28  N   UNL     1       1.122   9.495  19.149  0.00  0.00    +0.000 N 
ATOM     29  C   UNL     1       1.195   8.597  20.316  0.00  0.00    +0.000 C 
ATOM     30  C   UNL     1       1.643   8.939  17.916  0.00  0.00    +0.000 C 
ENDBRANCH  27  28
BRANCH  22  32
ATOM     31  C   UNL     1      -2.701  10.902  18.092  0.00  0.00    +0.000 C 
ATOM     32  O   UNL     1      -1.323  10.586  17.856  0.00  0.00    +0.000 OA
ENDBRANCH  22  32
ENDBRANCH   1  25
BRANCH  12  33
ATOM     33  C   UNL     1      11.409  15.671  17.370  0.00  0.00    +0.000 C 
ATOM     34  F   UNL     1      10.797  16.141  16.247  0.00  0.00    +0.000 F 
ATOM     35  F   UNL     1      12.330  16.609  17.716  0.00  0.00    +0.000 F 
ATOM     36  F   UNL     1      12.114  14.574  16.979  0.00  0.00    +0.000 F 
ENDBRANCH  12  33
TORSDOF 4
ENDMDL
MODEL 6
REMARK VINA RESULT:      -7.6      7.834     11.082
REMARK  Name = 
REMARK  7 active torsions:
REMARK  status: ('A' for Active; 'I' for Inactive)
REMARK    1  A    between atoms: C_1  and  O_2
REMARK    2  A    between atoms: O_2  and  C_3
REMARK    3  A    between atoms: C_6  and  C_7
REMARK    4  A    between atoms: C_18  and  C_19
REMARK    5  A    between atoms: C_32  and  N_33
REMARK    6  A    between atoms: N_33  and  C_34
REMARK    7  A    between atoms: N_33  and  C_35
REMARK                            x       y       z     vdW  Elec       q    Type
REMARK                         _______ _______ _______ _____ _____    ______ ____
ROOT
ATOM      1  C   UNL     1       1.633  15.477  19.881  0.00  0.00    +0.000 C 
ATOM      2  O   UNL     1       1.210  16.462  20.517  0.00  0.00    +0.000 OA
ATOM      3  N   UNL     1       2.902  15.433  19.333  0.00  0.00    +0.000 N 
ATOM      4  C   UNL     1       3.556  14.331  18.641  0.00  0.00    +0.000 C 
ATOM      5  C   UNL     1       4.806  14.792  17.918  0.00  0.00    +0.000 C 
ATOM      6  C   UNL     1       6.101  15.551  18.851  0.00  0.00    +0.000 C 
ATOM      7  C   UNL     1       4.984  16.669  18.936  0.00  0.00    +0.000 C 
ATOM      8  C   UNL     1       3.840  16.325  19.931  0.00  0.00    +0.000 C 
ATOM      9  N   UNL     1       6.728  14.172  18.696  0.00  0.00    +0.000 N 
ATOM     10  C   UNL     1       8.071  14.028  19.090  0.00  0.00    +0.000 A 
ATOM     11  C   UNL     1       9.004  13.330  18.331  0.00  0.00    +0.000 A 
ATOM     12  C   UNL     1      10.354  13.301  18.722  0.00  0.00    +0.000 A 
ATOM     13  C   UNL     1      10.754  13.961  19.900  0.00  0.00    +0.000 A 
ATOM     14  C   UNL     1       9.801  14.521  20.743  0.00  0.00    +0.000 A 
ATOM     15  C   UNL     1       8.476  14.503  20.324  0.00  0.00    +0.000 A 
ATOM     16  N   UNL     1       7.450  15.060  21.061  0.00  0.00    +0.000 N 
ATOM     17  C   UNL     1       7.251  15.083  22.416  0.00  0.00    +0.000 A 
ATOM     18  C   UNL     1       6.465  16.176  22.671  0.00  0.00    +0.000 A 
ATOM     19  C   UNL     1       6.206  16.757  21.410  0.00  0.00    +0.000 A 
ATOM     20  C   UNL     1       6.429  15.747  20.443  0.00  0.00    +0.000 A 
ATOM     21  H   UNL     1       6.686  13.737  17.782  0.00  0.00    +0.000 HD
ENDROOT
BRANCH   1  25
ATOM     22  C   UNL     1      -1.189  12.339  19.426  0.00  0.00    +0.000 A 
ATOM     23  C   UNL     1      -0.914  13.239  18.370  0.00  0.00    +0.000 A 
ATOM     24  C   UNL     1       0.039  14.228  18.512  0.00  0.00    +0.000 A 
ATOM     25  C   UNL     1       0.682  14.369  19.726  0.00  0.00    +0.000 A 
ATOM     26  C   UNL     1       0.381  13.491  20.778  0.00  0.00    +0.000 A 
ATOM     27  C   UNL     1      -0.434  12.358  20.624  0.00  0.00    +0.000 A 
BRANCH  27  28
ATOM     28  N   UNL     1      -0.398  11.370  21.612  0.00  0.00    +0.000 N 
ATOM     29  C   UNL     1      -1.157  11.533  22.866  0.00  0.00    +0.000 C 
ATOM     30  C   UNL     1       0.398  10.162  21.533  0.00  0.00    +0.000 C 
ENDBRANCH  27  28
BRANCH  22  32
ATOM     31  C   UNL     1      -2.631  11.297  17.891  0.00  0.00    +0.000 C 
ATOM     32  O   UNL     1      -2.210  11.432  19.255  0.00  0.00    +0.000 OA
ENDBRANCH  22  32
ENDBRANCH   1  25
BRANCH  12  33
ATOM     33  C   UNL     1      11.383  12.578  17.890  0.00  0.00    +0.000 C 
ATOM     34  F   UNL     1      12.053  13.394  17.029  0.00  0.00    +0.000 F 
ATOM     35  F   UNL     1      12.333  11.971  18.649  0.00  0.00    +0.000 F 
ATOM     36  F   UNL     1      10.829  11.600  17.122  0.00  0.00    +0.000 F 
ENDBRANCH  12  33
TORSDOF 4
ENDMDL
MODEL 7
REMARK VINA RESULT:      -7.4      7.924     10.979
REMARK  Name = 
REMARK  7 active torsions:
REMARK  status: ('A' for Active; 'I' for Inactive)
REMARK    1  A    between atoms: C_1  and  O_2
REMARK    2  A    between atoms: O_2  and  C_3
REMARK    3  A    between atoms: C_6  and  C_7
REMARK    4  A    between atoms: C_18  and  C_19
REMARK    5  A    between atoms: C_32  and  N_33
REMARK    6  A    between atoms: N_33  and  C_34
REMARK    7  A    between atoms: N_33  and  C_35
REMARK                            x       y       z     vdW  Elec       q    Type
REMARK                         _______ _______ _______ _____ _____    ______ ____
ROOT
ATOM      1  C   UNL     1       1.528  15.679  20.306  0.00  0.00    +0.000 C 
ATOM      2  O   UNL     1       1.100  16.805  20.629  0.00  0.00    +0.000 OA
ATOM      3  N   UNL     1       2.672  15.506  19.548  0.00  0.00    +0.000 N 
ATOM      4  C   UNL     1       3.330  14.264  19.166  0.00  0.00    +0.000 C 
ATOM      5  C   UNL     1       4.357  14.492  18.075  0.00  0.00    +0.000 C 
ATOM      6  C   UNL     1       5.687  15.616  18.376  0.00  0.00    +0.000 C 
ATOM      7  C   UNL     1       4.467  16.620  18.300  0.00  0.00    +0.000 C 
ATOM      8  C   UNL     1       3.576  16.608  19.575  0.00  0.00    +0.000 C 
ATOM      9  N   UNL     1       6.453  14.317  18.586  0.00  0.00    +0.000 N 
ATOM     10  C   UNL     1       7.852  14.406  18.706  0.00  0.00    +0.000 A 
ATOM     11  C   UNL     1       8.716  13.529  18.059  0.00  0.00    +0.000 A 
ATOM     12  C   UNL     1      10.106  13.724  18.133  0.00  0.00    +0.000 A 
ATOM     13  C   UNL     1      10.621  14.797  18.886  0.00  0.00    +0.000 A 
ATOM     14  C   UNL     1       9.771  15.577  19.661  0.00  0.00    +0.000 A 
ATOM     15  C   UNL     1       8.407  15.328  19.573  0.00  0.00    +0.000 A 
ATOM     16  N   UNL     1       7.465  16.062  20.269  0.00  0.00    +0.000 N 
ATOM     17  C   UNL     1       7.513  16.577  21.537  0.00  0.00    +0.000 A 
ATOM     18  C   UNL     1       6.648  17.640  21.553  0.00  0.00    +0.000 A 
ATOM     19  C   UNL     1       6.092  17.693  20.256  0.00  0.00    +0.000 A 
ATOM     20  C   UNL     1       6.268  16.409  19.685  0.00  0.00    +0.000 A 
ATOM     21  H   UNL     1       6.304  13.570  17.917  0.00  0.00    +0.000 HD
ENDROOT
BRANCH   1  25
ATOM     22  C   UNL     1      -0.737  12.366  21.688  0.00  0.00    +0.000 A 
ATOM     23  C   UNL     1      -0.464  13.471  22.527  0.00  0.00    +0.000 A 
ATOM     24  C   UNL     1       0.234  14.564  22.055  0.00  0.00    +0.000 A 
ATOM     25  C   UNL     1       0.720  14.542  20.762  0.00  0.00    +0.000 A 
ATOM     26  C   UNL     1       0.469  13.428  19.946  0.00  0.00    +0.000 A 
ATOM     27  C   UNL     1      -0.392  12.383  20.314  0.00  0.00    +0.000 A 
BRANCH  27  28
ATOM     28  N   UNL     1      -0.845  11.509  19.322  0.00  0.00    +0.000 N 
ATOM     29  C   UNL     1      -2.126  11.753  18.633  0.00  0.00    +0.000 C 
ATOM     30  C   UNL     1      -0.160  10.295  18.926  0.00  0.00    +0.000 C 
ENDBRANCH  27  28
BRANCH  22  32
ATOM     31  C   UNL     1      -0.445  10.320  22.805  0.00  0.00    +0.000 C 
ATOM     32  O   UNL     1      -1.359  11.270  22.241  0.00  0.00    +0.000 OA
ENDBRANCH  22  32
ENDBRANCH   1  25
BRANCH  12  33
ATOM     33  C   UNL     1      11.054  12.802  17.409  0.00  0.00    +0.000 C 
ATOM     34  F   UNL     1      12.248  12.644  18.046  0.00  0.00    +0.000 F 
ATOM     35  F   UNL     1      10.545  11.552  17.249  0.00  0.00    +0.000 F 
ATOM     36  F   UNL     1      11.355  13.252  16.159  0.00  0.00    +0.000 F 
ENDBRANCH  12  33
TORSDOF 4
ENDMDL
MODEL 8
REMARK VINA RESULT:      -7.4      6.355      8.006
REMARK  Name = 
REMARK  7 active torsions:
REMARK  status: ('A' for Active; 'I' for Inactive)
REMARK    1  A    between atoms: C_1  and  O_2
REMARK    2  A    between atoms: O_2  and  C_3
REMARK    3  A    between atoms: C_6  and  C_7
REMARK    4  A    between atoms: C_18  and  C_19
REMARK    5  A    between atoms: C_32  and  N_33
REMARK    6  A    between atoms: N_33  and  C_34
REMARK    7  A    between atoms: N_33  and  C_35
REMARK                            x       y       z     vdW  Elec       q    Type
REMARK                         _______ _______ _______ _____ _____    ______ ____
ROOT
ATOM      1  C   UNL     1       6.240  16.422  19.180  0.00  0.00    +0.000 C 
ATOM      2  O   UNL     1       6.491  17.563  18.745  0.00  0.00    +0.000 OA
ATOM      3  N   UNL     1       5.195  16.170  20.050  0.00  0.00    +0.000 N 
ATOM      4  C   UNL     1       4.736  14.890  20.573  0.00  0.00    +0.000 C 
ATOM      5  C   UNL     1       3.784  15.075  21.738  0.00  0.00    +0.000 C 
ATOM      6  C   UNL     1       2.300  16.003  21.489  0.00  0.00    +0.000 C 
ATOM      7  C   UNL     1       3.384  17.151  21.385  0.00  0.00    +0.000 C 
ATOM      8  C   UNL     1       4.158  17.148  20.035  0.00  0.00    +0.000 C 
ATOM      9  N   UNL     1       1.692  14.608  21.438  0.00  0.00    +0.000 N 
ATOM     10  C   UNL     1       0.288  14.517  21.443  0.00  0.00    +0.000 A 
ATOM     11  C   UNL     1      -0.399  13.594  22.224  0.00  0.00    +0.000 A 
ATOM     12  C   UNL     1      -1.804  13.612  22.267  0.00  0.00    +0.000 A 
ATOM     13  C   UNL     1      -2.514  14.553  21.496  0.00  0.00    +0.000 A 
ATOM     14  C   UNL     1      -1.839  15.368  20.595  0.00  0.00    +0.000 A 
ATOM     15  C   UNL     1      -0.451  15.295  20.572  0.00  0.00    +0.000 A 
ATOM     16  N   UNL     1       0.326  16.081  19.745  0.00  0.00    +0.000 N 
ATOM     17  C   UNL     1       0.106  16.487  18.455  0.00  0.00    +0.000 A 
ATOM     18  C   UNL     1       0.824  17.643  18.289  0.00  0.00    +0.000 A 
ATOM     19  C   UNL     1       1.475  17.864  19.522  0.00  0.00    +0.000 A 
ATOM     20  C   UNL     1       1.514  16.616  20.190  0.00  0.00    +0.000 A 
ATOM     21  H   UNL     1       1.991  13.939  22.137  0.00  0.00    +0.000 HD
ENDROOT
BRANCH   1  25
ATOM     22  C   UNL     1       8.798  13.283  17.909  0.00  0.00    +0.000 A 
ATOM     23  C   UNL     1       7.504  13.444  17.361  0.00  0.00    +0.000 A 
ATOM     24  C   UNL     1       6.697  14.495  17.747  0.00  0.00    +0.000 A 
ATOM     25  C   UNL     1       7.145  15.360  18.726  0.00  0.00    +0.000 A 
ATOM     26  C   UNL     1       8.419  15.174  19.286  0.00  0.00    +0.000 A 
ATOM     27  C   UNL     1       9.346  14.243  18.795  0.00  0.00    +0.000 A 
BRANCH  27  28
ATOM     28  N   UNL     1      10.685  14.364  19.179  0.00  0.00    +0.000 N 
ATOM     29  C   UNL     1      11.249  13.492  20.226  0.00  0.00    +0.000 C 
ATOM     30  C   UNL     1      11.601  15.355  18.651  0.00  0.00    +0.000 C 
ENDBRANCH  27  28
BRANCH  22  32
ATOM     31  C   UNL     1       9.123  10.982  18.253  0.00  0.00    +0.000 C 
ATOM     32  O   UNL     1       9.520  12.167  17.550  0.00  0.00    +0.000 OA
ENDBRANCH  22  32
ENDBRANCH   1  25
BRANCH  12  33
ATOM     33  C   UNL     1      -2.562  12.641  23.136  0.00  0.00    +0.000 C 
ATOM     34  F   UNL     1      -3.705  12.176  22.559  0.00  0.00    +0.000 F 
ATOM     35  F   UNL     1      -1.827  11.542  23.452  0.00  0.00    +0.000 F 
ATOM     36  F   UNL     1      -2.941  13.196  24.320  0.00  0.00    +0.000 F 
ENDBRANCH  12  33
TORSDOF 4
ENDMDL
MODEL 9
REMARK VINA RESULT:      -7.3      7.638     10.465
REMARK  Name = 
REMARK  7 active torsions:
REMARK  status: ('A' for Active; 'I' for Inactive)
REMARK    1  A    between atoms: C_1  and  O_2
REMARK    2  A    between atoms: O_2  and  C_3
REMARK    3  A    between atoms: C_6  and  C_7
REMARK    4  A    between atoms: C_18  and  C_19
REMARK    5  A    between atoms: C_32  and  N_33
REMARK    6  A    between atoms: N_33  and  C_34
REMARK    7  A    between atoms: N_33  and  C_35
REMARK                            x       y       z     vdW  Elec       q    Type
REMARK                         _______ _______ _______ _____ _____    ______ ____
ROOT
ATOM      1  C   UNL     1       0.834  14.660  19.711  0.00  0.00    +0.000 C 
ATOM      2  O   UNL     1       0.099  15.555  20.172  0.00  0.00    +0.000 OA
ATOM      3  N   UNL     1       2.025  14.935  19.062  0.00  0.00    +0.000 N 
ATOM      4  C   UNL     1       3.017  14.000  18.548  0.00  0.00    +0.000 C 
ATOM      5  C   UNL     1       4.005  14.688  17.628  0.00  0.00    +0.000 C 
ATOM      6  C   UNL     1       4.960  16.036  18.257  0.00  0.00    +0.000 C 
ATOM      7  C   UNL     1       3.520  16.690  18.221  0.00  0.00    +0.000 C 
ATOM      8  C   UNL     1       2.593  16.205  19.373  0.00  0.00    +0.000 C 
ATOM      9  N   UNL     1       6.036  14.961  18.325  0.00  0.00    +0.000 N 
ATOM     10  C   UNL     1       7.349  15.381  18.608  0.00  0.00    +0.000 A 
ATOM     11  C   UNL     1       8.455  14.895  17.918  0.00  0.00    +0.000 A 
ATOM     12  C   UNL     1       9.733  15.422  18.174  0.00  0.00    +0.000 A 
ATOM     13  C   UNL     1       9.893  16.426  19.149  0.00  0.00    +0.000 A 
ATOM     14  C   UNL     1       8.819  16.797  19.949  0.00  0.00    +0.000 A 
ATOM     15  C   UNL     1       7.581  16.230  19.673  0.00  0.00    +0.000 A 
ATOM     16  N   UNL     1       6.437  16.550  20.378  0.00  0.00    +0.000 N 
ATOM     17  C   UNL     1       6.269  16.807  21.713  0.00  0.00    +0.000 A 
ATOM     18  C   UNL     1       5.149  17.589  21.816  0.00  0.00    +0.000 A 
ATOM     19  C   UNL     1       4.676  17.746  20.495  0.00  0.00    +0.000 A 
ATOM     20  C   UNL     1       5.227  16.685  19.736  0.00  0.00    +0.000 A 
ATOM     21  H   UNL     1       6.135  14.344  17.527  0.00  0.00    +0.000 HD
ENDROOT
BRANCH   1  25
ATOM     22  C   UNL     1      -0.502  10.660  20.184  0.00  0.00    +0.000 A 
ATOM     23  C   UNL     1       0.315  11.281  21.156  0.00  0.00    +0.000 A 
ATOM     24  C   UNL     1       0.707  12.597  21.016  0.00  0.00    +0.000 A 
ATOM     25  C   UNL     1       0.340  13.288  19.878  0.00  0.00    +0.000 A 
ATOM     26  C   UNL     1      -0.446  12.654  18.904  0.00  0.00    +0.000 A 
ATOM     27  C   UNL     1      -1.026  11.389  19.088  0.00  0.00    +0.000 A 
BRANCH  27  28
ATOM     28  N   UNL     1      -2.055  10.993  18.229  0.00  0.00    +0.000 N 
ATOM     29  C   UNL     1      -3.413  11.550  18.377  0.00  0.00    +0.000 C 
ATOM     30  C   UNL     1      -1.914   9.996  17.187  0.00  0.00    +0.000 C 
ENDBRANCH  27  28
BRANCH  22  32
ATOM     31  C   UNL     1      -0.313   8.775  21.573  0.00  0.00    +0.000 C 
ATOM     32  O   UNL     1      -0.786   9.321  20.335  0.00  0.00    +0.000 OA
ENDBRANCH  22  32
ENDBRANCH   1  25
BRANCH  12  33
ATOM     33  C   UNL     1      10.937  14.931  17.409  0.00  0.00    +0.000 C 
ATOM     34  F   UNL     1      12.078  14.909  18.153  0.00  0.00    +0.000 F 
ATOM     35  F   UNL     1      10.773  13.667  16.936  0.00  0.00    +0.000 F 
ATOM     36  F   UNL     1      11.211  15.708  16.326  0.00  0.00    +0.000 F 
ENDBRANCH  12  33
TORSDOF 4
ENDMDL
