MODEL 1
REMARK VINA RESULT:      -6.8      0.000      0.000
REMARK  Name = 
REMARK  10 active torsions:
REMARK  status: ('A' for Active; 'I' for Inactive)
REMARK    1  A    between atoms: C_1  and  C_2
REMARK    2  A    between atoms: C_2  and  O_3
REMARK    3  A    between atoms: O_3  and  C_4
REMARK    4  A    between atoms: C_4  and  C_5
REMARK    5  A    between atoms: C_5  and  C_6
REMARK    6  A    between atoms: C_22  and  C_23
REMARK    7  A    between atoms: C_23  and  C_24
REMARK    8  A    between atoms: C_23  and  C_25
REMARK    9  A    between atoms: C_26  and  O_27
REMARK   10  A    between atoms: O_27  and  C_28
REMARK                            x       y       z     vdW  Elec       q    Type
REMARK                         _______ _______ _______ _____ _____    ______ ____
ROOT
ATOM      1  C   UNL     1      -0.766  12.630  20.523  0.00  0.00    +0.000 C 
ATOM      2  C   UNL     1      -0.562  13.443  18.866  0.00  0.00    +0.000 C 
ATOM      3  C   UNL     1       0.621  14.413  18.550  0.00  0.00    +0.000 C 
ATOM      4  C   UNL     1       1.174  14.829  19.819  0.00  0.00    +0.000 C 
ATOM      5  C   UNL     1       1.111  13.916  20.782  0.00  0.00    +0.000 C 
ATOM      6  C   UNL     1       0.706  14.650  22.027  0.00  0.00    +0.000 C 
ATOM      7  O   UNL     1       0.834  16.044  21.711  0.00  0.00    +0.000 OA
ATOM      8  C   UNL     1       1.048  16.175  20.384  0.00  0.00    +0.000 C 
ATOM      9  O   UNL     1       1.048  17.228  19.744  0.00  0.00    +0.000 OA
ATOM     10  C   UNL     1       0.733  12.439  20.531  0.00  0.00    +0.000 C 
ATOM     11  C   UNL     1       0.928  11.322  19.365  0.00  0.00    +0.000 C 
ATOM     12  C   UNL     1      -0.450  10.581  18.656  0.00  0.00    +0.000 C 
ATOM     13  C   UNL     1      -1.912  11.152  18.844  0.00  0.00    +0.000 A 
ATOM     14  C   UNL     1      -2.015  12.139  19.847  0.00  0.00    +0.000 A 
ATOM     15  C   UNL     1      -3.181  12.841  20.182  0.00  0.00    +0.000 A 
ATOM     16  C   UNL     1      -4.316  12.602  19.453  0.00  0.00    +0.000 A 
ATOM     17  C   UNL     1      -4.315  11.639  18.425  0.00  0.00    +0.000 A 
ATOM     18  C   UNL     1      -3.109  10.901  18.128  0.00  0.00    +0.000 A 
ENDROOT
BRANCH  17  19
ATOM     19  C   UNL     1      -5.664  11.557  17.706  0.00  0.00    +0.000 C 
ATOM     20  C   UNL     1      -6.693  10.770  18.522  0.00  0.00    +0.000 C 
ATOM     21  C   UNL     1      -6.238  12.857  17.165  0.00  0.00    +0.000 C 
ENDBRANCH  17  19
BRANCH  18  22
ATOM     22  O   UNL     1      -3.190  10.072  17.042  0.00  0.00    +0.000 OA
ATOM     23  C   UNL     1      -2.723  10.624  15.819  0.00  0.00    +0.000 C 
ENDBRANCH  18  22
BRANCH   1  24
ATOM     24  C   UNL     1      -0.906  11.155  21.441  0.00  0.00    +0.000 C 
BRANCH  24  25
ATOM     25  C   UNL     1      -1.006  11.282  22.966  0.00  0.00    +0.000 C 
BRANCH  25  26
ATOM     26  O   UNL     1      -0.201  10.199  23.485  0.00  0.00    +0.000 OA
BRANCH  26  28
ATOM     27  C   UNL     1       1.524   9.050  22.258  0.00  0.00    +0.000 C 
ATOM     28  C   UNL     1       0.031   9.155  22.545  0.00  0.00    +0.000 C 
ENDBRANCH  26  28
ENDBRANCH  25  26
ENDBRANCH  24  25
ENDBRANCH   1  24
TORSDOF 6
ENDMDL
MODEL 2
REMARK VINA RESULT:      -6.6      2.783      6.086
REMARK  Name = 
REMARK  10 active torsions:
REMARK  status: ('A' for Active; 'I' for Inactive)
REMARK    1  A    between atoms: C_1  and  C_2
REMARK    2  A    between atoms: C_2  and  O_3
REMARK    3  A    between atoms: O_3  and  C_4
REMARK    4  A    between atoms: C_4  and  C_5
REMARK    5  A    between atoms: C_5  and  C_6
REMARK    6  A    between atoms: C_22  and  C_23
REMARK    7  A    between atoms: C_23  and  C_24
REMARK    8  A    between atoms: C_23  and  C_25
REMARK    9  A    between atoms: C_26  and  O_27
REMARK   10  A    between atoms: O_27  and  C_28
REMARK                            x       y       z     vdW  Elec       q    Type
REMARK                         _______ _______ _______ _____ _____    ______ ____
ROOT
ATOM      1  C   UNL     1       0.106  11.006  19.256  0.00  0.00    +0.000 C 
ATOM      2  C   UNL     1       1.651  11.360  20.224  0.00  0.00    +0.000 C 
ATOM      3  C   UNL     1       1.914  12.740  20.906  0.00  0.00    +0.000 C 
ATOM      4  C   UNL     1       1.009  13.689  20.298  0.00  0.00    +0.000 C 
ATOM      5  C   UNL     1      -0.159  13.183  19.919  0.00  0.00    +0.000 C 
ATOM      6  C   UNL     1      -0.460  13.787  18.578  0.00  0.00    +0.000 C 
ATOM      7  O   UNL     1       0.491  14.849  18.412  0.00  0.00    +0.000 OA
ATOM      8  C   UNL     1       1.415  14.768  19.393  0.00  0.00    +0.000 C 
ATOM      9  O   UNL     1       2.460  15.417  19.470  0.00  0.00    +0.000 OA
ATOM     10  C   UNL     1      -0.647  11.772  20.319  0.00  0.00    +0.000 C 
ATOM     11  C   UNL     1      -0.527  10.769  21.593  0.00  0.00    +0.000 C 
ATOM     12  C   UNL     1       0.150   9.204  21.385  0.00  0.00    +0.000 C 
ATOM     13  C   UNL     1       0.960   8.795  20.090  0.00  0.00    +0.000 A 
ATOM     14  C   UNL     1       0.844   9.718  19.029  0.00  0.00    +0.000 A 
ATOM     15  C   UNL     1       1.497   9.622  17.792  0.00  0.00    +0.000 A 
ATOM     16  C   UNL     1       2.365   8.582  17.594  0.00  0.00    +0.000 A 
ATOM     17  C   UNL     1       2.556   7.609  18.594  0.00  0.00    +0.000 A 
ATOM     18  C   UNL     1       1.839   7.710  19.845  0.00  0.00    +0.000 A 
ENDROOT
BRANCH  17  19
ATOM     19  C   UNL     1       3.595   6.560  18.194  0.00  0.00    +0.000 C 
ATOM     20  C   UNL     1       2.937   5.248  17.760  0.00  0.00    +0.000 C 
ATOM     21  C   UNL     1       4.683   7.000  17.226  0.00  0.00    +0.000 C 
ENDBRANCH  17  19
BRANCH  18  22
ATOM     22  O   UNL     1       2.181   6.776  20.786  0.00  0.00    +0.000 OA
ATOM     23  C   UNL     1       1.373   5.607  20.804  0.00  0.00    +0.000 C 
ENDBRANCH  18  22
BRANCH   1  24
ATOM     24  C   UNL     1      -1.312  10.016  19.041  0.00  0.00    +0.000 C 
BRANCH  24  25
ATOM     25  C   UNL     1      -2.323  10.457  17.974  0.00  0.00    +0.000 C 
BRANCH  25  26
ATOM     26  O   UNL     1      -1.911   9.777  16.766  0.00  0.00    +0.000 OA
BRANCH  26  28
ATOM     27  C   UNL     1      -3.890  10.936  16.029  0.00  0.00    +0.000 C 
ATOM     28  C   UNL     1      -2.865   9.854  15.711  0.00  0.00    +0.000 C 
ENDBRANCH  26  28
ENDBRANCH  25  26
ENDBRANCH  24  25
ENDBRANCH   1  24
TORSDOF 6
ENDMDL
MODEL 3
REMARK VINA RESULT:      -6.6      7.717     10.528
REMARK  Name = 
REMARK  10 active torsions:
REMARK  status: ('A' for Active; 'I' for Inactive)
REMARK    1  A    between atoms: C_1  and  C_2
REMARK    2  A    between atoms: C_2  and  O_3
REMARK    3  A    between atoms: O_3  and  C_4
REMARK    4  A    between atoms: C_4  and  C_5
REMARK    5  A    between atoms: C_5  and  C_6
REMARK    6  A    between atoms: C_22  and  C_23
REMARK    7  A    between atoms: C_23  and  C_24
REMARK    8  A    between atoms: C_23  and  C_25
REMARK    9  A    between atoms: C_26  and  O_27
REMARK   10  A    between atoms: O_27  and  C_28
REMARK                            x       y       z     vdW  Elec       q    Type
REMARK                         _______ _______ _______ _____ _____    ______ ____
ROOT
ATOM      1  C   UNL     1       6.002   5.948  16.814  0.00  0.00    +0.000 C 
ATOM      2  C   UNL     1       4.661   4.699  16.516  0.00  0.00    +0.000 C 
ATOM      3  C   UNL     1       4.881   3.429  15.633  0.00  0.00    +0.000 C 
ATOM      4  C   UNL     1       6.064   3.669  14.839  0.00  0.00    +0.000 C 
ATOM      5  C   UNL     1       6.991   4.415  15.429  0.00  0.00    +0.000 C 
ATOM      6  C   UNL     1       7.499   5.360  14.379  0.00  0.00    +0.000 C 
ATOM      7  O   UNL     1       6.974   4.871  13.136  0.00  0.00    +0.000 OA
ATOM      8  C   UNL     1       6.066   3.905  13.392  0.00  0.00    +0.000 C 
ATOM      9  O   UNL     1       5.308   3.378  12.576  0.00  0.00    +0.000 OA
ATOM     10  C   UNL     1       6.959   4.785  16.930  0.00  0.00    +0.000 C 
ATOM     11  C   UNL     1       6.485   4.109  18.331  0.00  0.00    +0.000 C 
ATOM     12  C   UNL     1       5.314   4.902  19.306  0.00  0.00    +0.000 C 
ATOM     13  C   UNL     1       4.428   6.095  18.767  0.00  0.00    +0.000 A 
ATOM     14  C   UNL     1       4.868   6.621  17.534  0.00  0.00    +0.000 A 
ATOM     15  C   UNL     1       4.238   7.646  16.815  0.00  0.00    +0.000 A 
ATOM     16  C   UNL     1       3.067   8.160  17.306  0.00  0.00    +0.000 A 
ATOM     17  C   UNL     1       2.541   7.699  18.528  0.00  0.00    +0.000 A 
ATOM     18  C   UNL     1       3.233   6.669  19.269  0.00  0.00    +0.000 A 
ENDROOT
BRANCH  17  19
ATOM     19  C   UNL     1       1.209   8.366  18.875  0.00  0.00    +0.000 C 
ATOM     20  C   UNL     1       1.173   8.831  20.334  0.00  0.00    +0.000 C 
ATOM     21  C   UNL     1       0.705   9.439  17.922  0.00  0.00    +0.000 C 
ENDBRANCH  17  19
BRANCH  18  22
ATOM     22  O   UNL     1       2.579   6.219  20.384  0.00  0.00    +0.000 OA
ATOM     23  C   UNL     1       1.829   5.024  20.208  0.00  0.00    +0.000 C 
ENDBRANCH  18  22
BRANCH   1  24
ATOM     24  C   UNL     1       6.995   6.810  17.958  0.00  0.00    +0.000 C 
BRANCH  24  25
ATOM     25  C   UNL     1       7.804   8.002  17.429  0.00  0.00    +0.000 C 
BRANCH  25  26
ATOM     26  O   UNL     1       8.450   8.562  18.595  0.00  0.00    +0.000 OA
BRANCH  26  28
ATOM     27  C   UNL     1       9.496  10.417  19.721  0.00  0.00    +0.000 C 
ATOM     28  C   UNL     1       8.843   9.922  18.436  0.00  0.00    +0.000 C 
ENDBRANCH  26  28
ENDBRANCH  25  26
ENDBRANCH  24  25
ENDBRANCH   1  24
TORSDOF 6
ENDMDL
MODEL 4
REMARK VINA RESULT:      -6.5      1.022      1.710
REMARK  Name = 
REMARK  10 active torsions:
REMARK  status: ('A' for Active; 'I' for Inactive)
REMARK    1  A    between atoms: C_1  and  C_2
REMARK    2  A    between atoms: C_2  and  O_3
REMARK    3  A    between atoms: O_3  and  C_4
REMARK    4  A    between atoms: C_4  and  C_5
REMARK    5  A    between atoms: C_5  and  C_6
REMARK    6  A    between atoms: C_22  and  C_23
REMARK    7  A    between atoms: C_23  and  C_24
REMARK    8  A    between atoms: C_23  and  C_25
REMARK    9  A    between atoms: C_26  and  O_27
REMARK   10  A    between atoms: O_27  and  C_28
REMARK                            x       y       z     vdW  Elec       q    Type
REMARK                         _______ _______ _______ _____ _____    ______ ____
ROOT
ATOM      1  C   UNL     1      -0.853  12.653  20.578  0.00  0.00    +0.000 C 
ATOM      2  C   UNL     1      -0.610  13.421  18.905  0.00  0.00    +0.000 C 
ATOM      3  C   UNL     1       0.582  14.380  18.589  0.00  0.00    +0.000 C 
ATOM      4  C   UNL     1       1.109  14.828  19.858  0.00  0.00    +0.000 C 
ATOM      5  C   UNL     1       1.022  13.942  20.843  0.00  0.00    +0.000 C 
ATOM      6  C   UNL     1       0.593  14.709  22.060  0.00  0.00    +0.000 C 
ATOM      7  O   UNL     1       0.731  16.094  21.709  0.00  0.00    +0.000 OA
ATOM      8  C   UNL     1       0.974  16.189  20.385  0.00  0.00    +0.000 C 
ATOM      9  O   UNL     1       0.990  17.225  19.716  0.00  0.00    +0.000 OA
ATOM     10  C   UNL     1       0.645  12.459  20.624  0.00  0.00    +0.000 C 
ATOM     11  C   UNL     1       0.862  11.311  19.493  0.00  0.00    +0.000 C 
ATOM     12  C   UNL     1      -0.502  10.554  18.774  0.00  0.00    +0.000 C 
ATOM     13  C   UNL     1      -1.966  11.133  18.915  0.00  0.00    +0.000 A 
ATOM     14  C   UNL     1      -2.088  12.147  19.889  0.00  0.00    +0.000 A 
ATOM     15  C   UNL     1      -3.260  12.860  20.179  0.00  0.00    +0.000 A 
ATOM     16  C   UNL     1      -4.378  12.605  19.433  0.00  0.00    +0.000 A 
ATOM     17  C   UNL     1      -4.359  11.615  18.431  0.00  0.00    +0.000 A 
ATOM     18  C   UNL     1      -3.149  10.866  18.180  0.00  0.00    +0.000 A 
ENDROOT
BRANCH  17  19
ATOM     19  C   UNL     1      -5.691  11.516  17.686  0.00  0.00    +0.000 C 
ATOM     20  C   UNL     1      -6.744  10.765  18.506  0.00  0.00    +0.000 C 
ATOM     21  C   UNL     1      -6.244  12.800  17.087  0.00  0.00    +0.000 C 
ENDBRANCH  17  19
BRANCH  18  22
ATOM     22  O   UNL     1      -3.209  10.008  17.115  0.00  0.00    +0.000 OA
ATOM     23  C   UNL     1      -2.701  10.522  15.891  0.00  0.00    +0.000 C 
ENDBRANCH  18  22
BRANCH   1  24
ATOM     24  C   UNL     1      -1.016  11.203  21.532  0.00  0.00    +0.000 C 
BRANCH  24  25
ATOM     25  C   UNL     1      -1.160  11.372  23.050  0.00  0.00    +0.000 C 
BRANCH  25  26
ATOM     26  O   UNL     1      -2.585  11.403  23.289  0.00  0.00    +0.000 OA
BRANCH  26  28
ATOM     27  C   UNL     1      -4.345  12.406  24.593  0.00  0.00    +0.000 C 
ATOM     28  C   UNL     1      -3.050  12.639  23.823  0.00  0.00    +0.000 C 
ENDBRANCH  26  28
ENDBRANCH  25  26
ENDBRANCH  24  25
ENDBRANCH   1  24
TORSDOF 6
ENDMDL
MODEL 5
REMARK VINA RESULT:      -6.4      7.358     10.256
REMARK  Name = 
REMARK  10 active torsions:
REMARK  status: ('A' for Active; 'I' for Inactive)
REMARK    1  A    between atoms: C_1  and  C_2
REMARK    2  A    between atoms: C_2  and  O_3
REMARK    3  A    between atoms: O_3  and  C_4
REMARK    4  A    between atoms: C_4  and  C_5
REMARK    5  A    between atoms: C_5  and  C_6
REMARK    6  A    between atoms: C_22  and  C_23
REMARK    7  A    between atoms: C_23  and  C_24
REMARK    8  A    between atoms: C_23  and  C_25
REMARK    9  A    between atoms: C_26  and  O_27
REMARK   10  A    between atoms: O_27  and  C_28
REMARK                            x       y       z     vdW  Elec       q    Type
REMARK                         _______ _______ _______ _____ _____    ______ ____
ROOT
ATOM      1  C   UNL     1       5.499   5.542  17.527  0.00  0.00    +0.000 C 
ATOM      2  C   UNL     1       4.019   4.664  16.830  0.00  0.00    +0.000 C 
ATOM      3  C   UNL     1       4.147   3.498  15.798  0.00  0.00    +0.000 C 
ATOM      4  C   UNL     1       5.480   3.570  15.244  0.00  0.00    +0.000 C 
ATOM      5  C   UNL     1       6.409   4.015  16.083  0.00  0.00    +0.000 C 
ATOM      6  C   UNL     1       7.276   4.949  15.289  0.00  0.00    +0.000 C 
ATOM      7  O   UNL     1       6.904   4.747  13.918  0.00  0.00    +0.000 OA
ATOM      8  C   UNL     1       5.794   3.980  13.873  0.00  0.00    +0.000 C 
ATOM      9  O   UNL     1       5.111   3.738  12.875  0.00  0.00    +0.000 OA
ATOM     10  C   UNL     1       6.174   4.192  17.600  0.00  0.00    +0.000 C 
ATOM     11  C   UNL     1       5.328   3.466  18.784  0.00  0.00    +0.000 C 
ATOM     12  C   UNL     1       4.174   4.368  19.682  0.00  0.00    +0.000 C 
ATOM     13  C   UNL     1       3.652   5.785  19.213  0.00  0.00    +0.000 A 
ATOM     14  C   UNL     1       4.405   6.351  18.164  0.00  0.00    +0.000 A 
ATOM     15  C   UNL     1       4.130   7.572  17.530  0.00  0.00    +0.000 A 
ATOM     16  C   UNL     1       3.012   8.264  17.912  0.00  0.00    +0.000 A 
ATOM     17  C   UNL     1       2.190   7.780  18.948  0.00  0.00    +0.000 A 
ATOM     18  C   UNL     1       2.520   6.539  19.611  0.00  0.00    +0.000 A 
ENDROOT
BRANCH  17  19
ATOM     19  C   UNL     1       0.972   8.674  19.189  0.00  0.00    +0.000 C 
ATOM     20  C   UNL     1       1.029   9.349  20.563  0.00  0.00    +0.000 C 
ATOM     21  C   UNL     1       0.606   9.656  18.086  0.00  0.00    +0.000 C 
ENDBRANCH  17  19
BRANCH  18  22
ATOM     22  O   UNL     1       1.596   6.107  20.525  0.00  0.00    +0.000 OA
ATOM     23  C   UNL     1       1.175   4.758  20.373  0.00  0.00    +0.000 C 
ENDBRANCH  18  22
BRANCH   1  24
ATOM     24  C   UNL     1       6.413   6.015  18.934  0.00  0.00    +0.000 C 
BRANCH  24  25
ATOM     25  C   UNL     1       7.943   5.956  18.831  0.00  0.00    +0.000 C 
BRANCH  25  26
ATOM     26  O   UNL     1       8.370   7.337  18.808  0.00  0.00    +0.000 OA
BRANCH  26  28
ATOM     27  C   UNL     1       8.173   9.554  17.888  0.00  0.00    +0.000 C 
ATOM     28  C   UNL     1       7.872   8.073  17.695  0.00  0.00    +0.000 C 
ENDBRANCH  26  28
ENDBRANCH  25  26
ENDBRANCH  24  25
ENDBRANCH   1  24
TORSDOF 6
ENDMDL
MODEL 6
REMARK VINA RESULT:      -6.2      2.341      6.562
REMARK  Name = 
REMARK  10 active torsions:
REMARK  status: ('A' for Active; 'I' for Inactive)
REMARK    1  A    between atoms: C_1  and  C_2
REMARK    2  A    between atoms: C_2  and  O_3
REMARK    3  A    between atoms: O_3  and  C_4
REMARK    4  A    between atoms: C_4  and  C_5
REMARK    5  A    between atoms: C_5  and  C_6
REMARK    6  A    between atoms: C_22  and  C_23
REMARK    7  A    between atoms: C_23  and  C_24
REMARK    8  A    between atoms: C_23  and  C_25
REMARK    9  A    between atoms: C_26  and  O_27
REMARK   10  A    between atoms: O_27  and  C_28
REMARK                            x       y       z     vdW  Elec       q    Type
REMARK                         _______ _______ _______ _____ _____    ______ ____
ROOT
ATOM      1  C   UNL     1       0.035  11.055  18.710  0.00  0.00    +0.000 C 
ATOM      2  C   UNL     1      -1.196  12.341  19.236  0.00  0.00    +0.000 C 
ATOM      3  C   UNL     1      -2.738  12.114  19.136  0.00  0.00    +0.000 C 
ATOM      4  C   UNL     1      -2.943  11.005  18.231  0.00  0.00    +0.000 C 
ATOM      5  C   UNL     1      -1.988  10.082  18.256  0.00  0.00    +0.000 C 
ATOM      6  C   UNL     1      -1.735   9.704  16.825  0.00  0.00    +0.000 C 
ATOM      7  O   UNL     1      -2.812  10.287  16.078  0.00  0.00    +0.000 OA
ATOM      8  C   UNL     1      -3.506  11.119  16.883  0.00  0.00    +0.000 C 
ATOM      9  O   UNL     1      -4.392  11.903  16.538  0.00  0.00    +0.000 OA
ATOM     10  C   UNL     1      -0.881  10.028  19.334  0.00  0.00    +0.000 C 
ATOM     11  C   UNL     1      -0.720  10.363  20.917  0.00  0.00    +0.000 C 
ATOM     12  C   UNL     1       0.457  11.505  21.431  0.00  0.00    +0.000 C 
ATOM     13  C   UNL     1       1.177  12.491  20.428  0.00  0.00    +0.000 A 
ATOM     14  C   UNL     1       0.976  12.170  19.068  0.00  0.00    +0.000 A 
ATOM     15  C   UNL     1       1.460  12.907  17.978  0.00  0.00    +0.000 A 
ATOM     16  C   UNL     1       2.143  14.066  18.228  0.00  0.00    +0.000 A 
ATOM     17  C   UNL     1       2.392  14.478  19.552  0.00  0.00    +0.000 A 
ATOM     18  C   UNL     1       1.917  13.678  20.658  0.00  0.00    +0.000 A 
ENDROOT
BRANCH  17  19
ATOM     19  C   UNL     1       3.129  15.817  19.615  0.00  0.00    +0.000 C 
ATOM     20  C   UNL     1       4.491  15.747  18.919  0.00  0.00    +0.000 C 
ATOM     21  C   UNL     1       2.345  17.056  19.211  0.00  0.00    +0.000 C 
ENDBRANCH  17  19
BRANCH  18  22
ATOM     22  O   UNL     1       2.117  14.225  21.896  0.00  0.00    +0.000 OA
ATOM     23  C   UNL     1       1.103  15.117  22.339  0.00  0.00    +0.000 C 
ENDBRANCH  18  22
BRANCH   1  24
ATOM     24  C   UNL     1       1.382  10.033  19.136  0.00  0.00    +0.000 C 
BRANCH  24  25
ATOM     25  C   UNL     1       1.916   9.086  18.053  0.00  0.00    +0.000 C 
BRANCH  25  26
ATOM     26  O   UNL     1       2.367   7.914  18.770  0.00  0.00    +0.000 OA
BRANCH  26  28
ATOM     27  C   UNL     1       2.481   5.604  18.099  0.00  0.00    +0.000 C 
ATOM     28  C   UNL     1       3.094   6.992  17.964  0.00  0.00    +0.000 C 
ENDBRANCH  26  28
ENDBRANCH  25  26
ENDBRANCH  24  25
ENDBRANCH   1  24
TORSDOF 6
ENDMDL
MODEL 7
REMARK VINA RESULT:      -6.2      2.194      3.457
REMARK  Name = 
REMARK  10 active torsions:
REMARK  status: ('A' for Active; 'I' for Inactive)
REMARK    1  A    between atoms: C_1  and  C_2
REMARK    2  A    between atoms: C_2  and  O_3
REMARK    3  A    between atoms: O_3  and  C_4
REMARK    4  A    between atoms: C_4  and  C_5
REMARK    5  A    between atoms: C_5  and  C_6
REMARK    6  A    between atoms: C_22  and  C_23
REMARK    7  A    between atoms: C_23  and  C_24
REMARK    8  A    between atoms: C_23  and  C_25
REMARK    9  A    between atoms: C_26  and  O_27
REMARK   10  A    between atoms: O_27  and  C_28
REMARK                            x       y       z     vdW  Elec       q    Type
REMARK                         _______ _______ _______ _____ _____    ______ ____
ROOT
ATOM      1  C   UNL     1      -0.223  12.584  20.082  0.00  0.00    +0.000 C 
ATOM      2  C   UNL     1      -0.922  14.268  19.732  0.00  0.00    +0.000 C 
ATOM      3  C   UNL     1      -0.166  15.324  18.864  0.00  0.00    +0.000 C 
ATOM      4  C   UNL     1       1.216  14.904  18.799  0.00  0.00    +0.000 C 
ATOM      5  C   UNL     1       1.400  13.588  18.816  0.00  0.00    +0.000 C 
ATOM      6  C   UNL     1       2.571  13.343  19.722  0.00  0.00    +0.000 C 
ATOM      7  O   UNL     1       3.155  14.633  19.954  0.00  0.00    +0.000 OA
ATOM      8  C   UNL     1       2.328  15.583  19.468  0.00  0.00    +0.000 C 
ATOM      9  O   UNL     1       2.434  16.800  19.632  0.00  0.00    +0.000 OA
ATOM     10  C   UNL     1       0.254  12.565  18.648  0.00  0.00    +0.000 C 
ATOM     11  C   UNL     1      -1.150  12.445  17.836  0.00  0.00    +0.000 C 
ATOM     12  C   UNL     1      -2.613  12.189  18.699  0.00  0.00    +0.000 C 
ATOM     13  C   UNL     1      -2.721  12.383  20.264  0.00  0.00    +0.000 A 
ATOM     14  C   UNL     1      -1.474  12.513  20.911  0.00  0.00    +0.000 A 
ATOM     15  C   UNL     1      -1.287  12.743  22.281  0.00  0.00    +0.000 A 
ATOM     16  C   UNL     1      -2.394  12.911  23.069  0.00  0.00    +0.000 A 
ATOM     17  C   UNL     1      -3.686  12.806  22.518  0.00  0.00    +0.000 A 
ATOM     18  C   UNL     1      -3.850  12.528  21.110  0.00  0.00    +0.000 A 
ENDROOT
BRANCH  17  19
ATOM     19  C   UNL     1      -4.782  13.070  23.553  0.00  0.00    +0.000 C 
ATOM     20  C   UNL     1      -4.488  12.366  24.881  0.00  0.00    +0.000 C 
ATOM     21  C   UNL     1      -5.206  14.517  23.756  0.00  0.00    +0.000 C 
ENDBRANCH  17  19
BRANCH  18  22
ATOM     22  O   UNL     1      -5.142  12.556  20.660  0.00  0.00    +0.000 OA
ATOM     23  C   UNL     1      -5.558  13.786  20.081  0.00  0.00    +0.000 C 
ENDBRANCH  18  22
BRANCH   1  24
ATOM     24  C   UNL     1      -0.411  10.853  19.986  0.00  0.00    +0.000 C 
BRANCH  24  25
ATOM     25  C   UNL     1       0.852   9.998  20.153  0.00  0.00    +0.000 C 
BRANCH  25  26
ATOM     26  O   UNL     1       0.487   8.975  21.106  0.00  0.00    +0.000 OA
BRANCH  26  28
ATOM     27  C   UNL     1      -0.091   9.493  23.387  0.00  0.00    +0.000 C 
ATOM     28  C   UNL     1       1.033   9.181  22.406  0.00  0.00    +0.000 C 
ENDBRANCH  26  28
ENDBRANCH  25  26
ENDBRANCH  24  25
ENDBRANCH   1  24
TORSDOF 6
ENDMDL
MODEL 8
REMARK VINA RESULT:      -6.2      1.129      1.250
REMARK  Name = 
REMARK  10 active torsions:
REMARK  status: ('A' for Active; 'I' for Inactive)
REMARK    1  A    between atoms: C_1  and  C_2
REMARK    2  A    between atoms: C_2  and  O_3
REMARK    3  A    between atoms: O_3  and  C_4
REMARK    4  A    between atoms: C_4  and  C_5
REMARK    5  A    between atoms: C_5  and  C_6
REMARK    6  A    between atoms: C_22  and  C_23
REMARK    7  A    between atoms: C_23  and  C_24
REMARK    8  A    between atoms: C_23  and  C_25
REMARK    9  A    between atoms: C_26  and  O_27
REMARK   10  A    between atoms: O_27  and  C_28
REMARK                            x       y       z     vdW  Elec       q    Type
REMARK                         _______ _______ _______ _____ _____    ______ ____
ROOT
ATOM      1  C   UNL     1      -1.303  13.156  21.096  0.00  0.00    +0.000 C 
ATOM      2  C   UNL     1      -1.273  14.393  19.710  0.00  0.00    +0.000 C 
ATOM      3  C   UNL     1      -0.357  15.657  19.737  0.00  0.00    +0.000 C 
ATOM      4  C   UNL     1       0.056  15.850  21.109  0.00  0.00    +0.000 C 
ATOM      5  C   UNL     1       0.199  14.731  21.811  0.00  0.00    +0.000 C 
ATOM      6  C   UNL     1      -0.394  15.005  23.162  0.00  0.00    +0.000 C 
ATOM      7  O   UNL     1      -0.605  16.424  23.208  0.00  0.00    +0.000 OA
ATOM      8  C   UNL     1      -0.405  16.938  21.975  0.00  0.00    +0.000 C 
ATOM      9  O   UNL     1      -0.650  18.091  21.614  0.00  0.00    +0.000 OA
ATOM     10  C   UNL     1       0.196  13.321  21.177  0.00  0.00    +0.000 C 
ATOM     11  C   UNL     1       0.679  12.618  19.792  0.00  0.00    +0.000 C 
ATOM     12  C   UNL     1      -0.464  11.787  18.815  0.00  0.00    +0.000 C 
ATOM     13  C   UNL     1      -2.024  11.937  19.020  0.00  0.00    +0.000 A 
ATOM     14  C   UNL     1      -2.383  12.581  20.223  0.00  0.00    +0.000 A 
ATOM     15  C   UNL     1      -3.691  12.885  20.626  0.00  0.00    +0.000 A 
ATOM     16  C   UNL     1      -4.719  12.586  19.773  0.00  0.00    +0.000 A 
ATOM     17  C   UNL     1      -4.466  11.947  18.544  0.00  0.00    +0.000 A 
ATOM     18  C   UNL     1      -3.111  11.608  18.172  0.00  0.00    +0.000 A 
ENDROOT
BRANCH  17  19
ATOM     19  C   UNL     1      -5.740  11.743  17.722  0.00  0.00    +0.000 C 
ATOM     20  C   UNL     1      -6.741  10.835  18.444  0.00  0.00    +0.000 C 
ATOM     21  C   UNL     1      -6.405  12.989  17.158  0.00  0.00    +0.000 C 
ENDBRANCH  17  19
BRANCH  18  22
ATOM     22  O   UNL     1      -2.969  11.091  16.913  0.00  0.00    +0.000 OA
ATOM     23  C   UNL     1      -2.744   9.689  16.852  0.00  0.00    +0.000 C 
ENDBRANCH  18  22
BRANCH   1  24
ATOM     24  C   UNL     1      -1.096  11.504  21.610  0.00  0.00    +0.000 C 
BRANCH  24  25
ATOM     25  C   UNL     1      -1.310  11.198  23.098  0.00  0.00    +0.000 C 
BRANCH  25  26
ATOM     26  O   UNL     1      -0.228  10.308  23.456  0.00  0.00    +0.000 OA
BRANCH  26  28
ATOM     27  C   UNL     1       1.402   9.075  22.182  0.00  0.00    +0.000 C 
ATOM     28  C   UNL     1      -0.068   9.211  22.561  0.00  0.00    +0.000 C 
ENDBRANCH  26  28
ENDBRANCH  25  26
ENDBRANCH  24  25
ENDBRANCH   1  24
TORSDOF 6
ENDMDL
MODEL 9
REMARK VINA RESULT:      -6.1      2.357      3.909
REMARK  Name = 
REMARK  10 active torsions:
REMARK  status: ('A' for Active; 'I' for Inactive)
REMARK    1  A    between atoms: C_1  and  C_2
REMARK    2  A    between atoms: C_2  and  O_3
REMARK    3  A    between atoms: O_3  and  C_4
REMARK    4  A    between atoms: C_4  and  C_5
REMARK    5  A    between atoms: C_5  and  C_6
REMARK    6  A    between atoms: C_22  and  C_23
REMARK    7  A    between atoms: C_23  and  C_24
REMARK    8  A    between atoms: C_23  and  C_25
REMARK    9  A    between atoms: C_26  and  O_27
REMARK   10  A    between atoms: O_27  and  C_28
REMARK                            x       y       z     vdW  Elec       q    Type
REMARK                         _______ _______ _______ _____ _____    ______ ____
ROOT
ATOM      1  C   UNL     1       0.283  13.137  20.133  0.00  0.00    +0.000 C 
ATOM      2  C   UNL     1      -0.576  14.739  19.750  0.00  0.00    +0.000 C 
ATOM      3  C   UNL     1      -0.026  15.751  18.695  0.00  0.00    +0.000 C 
ATOM      4  C   UNL     1       1.358  15.407  18.463  0.00  0.00    +0.000 C 
ATOM      5  C   UNL     1       1.636  14.112  18.563  0.00  0.00    +0.000 C 
ATOM      6  C   UNL     1       2.938  14.020  19.304  0.00  0.00    +0.000 C 
ATOM      7  O   UNL     1       3.456  15.357  19.339  0.00  0.00    +0.000 OA
ATOM      8  C   UNL     1       2.504  16.209  18.902  0.00  0.00    +0.000 C 
ATOM      9  O   UNL     1       2.546  17.440  18.946  0.00  0.00    +0.000 OA
ATOM     10  C   UNL     1       0.553  13.013  18.652  0.00  0.00    +0.000 C 
ATOM     11  C   UNL     1      -0.940  12.737  18.068  0.00  0.00    +0.000 C 
ATOM     12  C   UNL     1      -2.245  12.479  19.155  0.00  0.00    +0.000 C 
ATOM     13  C   UNL     1      -2.144  12.811  20.697  0.00  0.00    +0.000 A 
ATOM     14  C   UNL     1      -0.830  13.072  21.140  0.00  0.00    +0.000 A 
ATOM     15  C   UNL     1      -0.468  13.439  22.444  0.00  0.00    +0.000 A 
ATOM     16  C   UNL     1      -1.462  13.616  23.369  0.00  0.00    +0.000 A 
ATOM     17  C   UNL     1      -2.808  13.386  23.024  0.00  0.00    +0.000 A 
ATOM     18  C   UNL     1      -3.150  12.968  21.684  0.00  0.00    +0.000 A 
ENDROOT
BRANCH  17  19
ATOM     19  C   UNL     1      -3.763  13.681  24.183  0.00  0.00    +0.000 C 
ATOM     20  C   UNL     1      -4.323  12.395  24.797  0.00  0.00    +0.000 C 
ATOM     21  C   UNL     1      -3.279  14.656  25.246  0.00  0.00    +0.000 C 
ENDBRANCH  17  19
BRANCH  18  22
ATOM     22  O   UNL     1      -4.491  12.880  21.428  0.00  0.00    +0.000 OA
ATOM     23  C   UNL     1      -5.071  14.026  20.818  0.00  0.00    +0.000 C 
ENDBRANCH  18  22
BRANCH   1  24
ATOM     24  C   UNL     1       0.205  11.398  20.211  0.00  0.00    +0.000 C 
BRANCH  24  25
ATOM     25  C   UNL     1       1.469  10.657  20.667  0.00  0.00    +0.000 C 
BRANCH  25  26
ATOM     26  O   UNL     1       1.189  10.242  22.023  0.00  0.00    +0.000 OA
BRANCH  26  28
ATOM     27  C   UNL     1      -0.837   9.918  23.284  0.00  0.00    +0.000 C 
ATOM     28  C   UNL     1       0.037   9.412  22.143  0.00  0.00    +0.000 C 
ENDBRANCH  26  28
ENDBRANCH  25  26
ENDBRANCH  24  25
ENDBRANCH   1  24
TORSDOF 6
ENDMDL
