MODEL 1
REMARK VINA RESULT:      -6.4      0.000      0.000
REMARK  Name = 
REMARK  4 active torsions:
REMARK  status: ('A' for Active; 'I' for Inactive)
REMARK    1  A    between atoms: C_2  and  C_3
REMARK    2  A    between atoms: C_2  and  O_10
REMARK    3  A    between atoms: C_3  and  C_4
REMARK    4  A    between atoms: O_10  and  C_11
REMARK                            x       y       z     vdW  Elec       q    Type
REMARK                         _______ _______ _______ _____ _____    ______ ____
ROOT
ATOM      1  O   UNL     1       3.711   1.734  17.775  0.00  0.00    +0.000 OA
ATOM      2  C   UNL     1       3.883   2.926  17.985  0.00  0.00    +0.000 C 
ENDROOT
BRANCH   2   3
ATOM      3  C   UNL     1       3.745   4.010  16.932  0.00  0.00    +0.000 C 
BRANCH   3   4
ATOM      4  C   UNL     1       5.055   4.596  16.470  0.00  0.00    +0.000 A 
ATOM      5  C   UNL     1       5.650   5.656  17.164  0.00  0.00    +0.000 A 
ATOM      6  C   UNL     1       6.860   6.156  16.709  0.00  0.00    +0.000 A 
ATOM      7  N   UNL     1       7.516   5.676  15.632  0.00  0.00    +0.000 NA
ATOM      8  C   UNL     1       6.939   4.642  14.984  0.00  0.00    +0.000 A 
ATOM      9  C   UNL     1       5.730   4.074  15.363  0.00  0.00    +0.000 A 
ENDBRANCH   3   4
ENDBRANCH   2   3
BRANCH   2  10
ATOM     10  O   UNL     1       4.212   3.470  19.193  0.00  0.00    +0.000 OA
BRANCH  10  11
ATOM     11  C   UNL     1       3.131   3.871  20.047  0.00  0.00    +0.000 C 
ATOM     12  C   UNL     1       1.812   4.049  19.303  0.00  0.00    +0.000 C 
ATOM     13  C   UNL     1       0.745   3.838  20.372  0.00  0.00    +0.000 C 
ATOM     14  C   UNL     1       1.356   2.873  21.385  0.00  0.00    +0.000 C 
ATOM     15  C   UNL     1       2.819   2.712  20.992  0.00  0.00    +0.000 C 
ENDBRANCH  10  11
ENDBRANCH   2  10
TORSDOF 4
ENDMDL
MODEL 2
REMARK VINA RESULT:      -6.4      1.343      1.872
REMARK  Name = 
REMARK  4 active torsions:
REMARK  status: ('A' for Active; 'I' for Inactive)
REMARK    1  A    between atoms: C_2  and  C_3
REMARK    2  A    between atoms: C_2  and  O_10
REMARK    3  A    between atoms: C_3  and  C_4
REMARK    4  A    between atoms: O_10  and  C_11
REMARK                            x       y       z     vdW  Elec       q    Type
REMARK                         _______ _______ _______ _____ _____    ______ ____
ROOT
ATOM      1  O   UNL     1       3.315   3.007  17.698  0.00  0.00    +0.000 OA
ATOM      2  C   UNL     1       2.900   4.153  17.784  0.00  0.00    +0.000 C 
ENDROOT
BRANCH   2   3
ATOM      3  C   UNL     1       3.725   5.388  17.476  0.00  0.00    +0.000 C 
BRANCH   3   4
ATOM      4  C   UNL     1       5.129   5.097  17.010  0.00  0.00    +0.000 A 
ATOM      5  C   UNL     1       5.441   5.073  15.646  0.00  0.00    +0.000 A 
ATOM      6  C   UNL     1       6.747   4.812  15.264  0.00  0.00    +0.000 A 
ATOM      7  N   UNL     1       7.755   4.585  16.134  0.00  0.00    +0.000 NA
ATOM      8  C   UNL     1       7.443   4.629  17.445  0.00  0.00    +0.000 A 
ATOM      9  C   UNL     1       6.165   4.882  17.925  0.00  0.00    +0.000 A 
ENDBRANCH   3   4
ENDBRANCH   2   3
BRANCH   2  10
ATOM     10  O   UNL     1       1.635   4.503  18.158  0.00  0.00    +0.000 OA
BRANCH  10  11
ATOM     11  C   UNL     1       1.261   4.252  19.520  0.00  0.00    +0.000 C 
ATOM     12  C   UNL     1       1.075   2.770  19.828  0.00  0.00    +0.000 C 
ATOM     13  C   UNL     1       1.318   2.664  21.329  0.00  0.00    +0.000 C 
ATOM     14  C   UNL     1       2.301   3.780  21.672  0.00  0.00    +0.000 C 
ATOM     15  C   UNL     1       2.443   4.624  20.412  0.00  0.00    +0.000 C 
ENDBRANCH  10  11
ENDBRANCH   2  10
TORSDOF 4
ENDMDL
MODEL 3
REMARK VINA RESULT:      -6.4      1.829      2.642
REMARK  Name = 
REMARK  4 active torsions:
REMARK  status: ('A' for Active; 'I' for Inactive)
REMARK    1  A    between atoms: C_2  and  C_3
REMARK    2  A    between atoms: C_2  and  O_10
REMARK    3  A    between atoms: C_3  and  C_4
REMARK    4  A    between atoms: O_10  and  C_11
REMARK                            x       y       z     vdW  Elec       q    Type
REMARK                         _______ _______ _______ _____ _____    ______ ____
ROOT
ATOM      1  O   UNL     1       2.671   7.354  19.241  0.00  0.00    +0.000 OA
ATOM      2  C   UNL     1       3.241   6.579  18.486  0.00  0.00    +0.000 C 
ENDROOT
BRANCH   2   3
ATOM      3  C   UNL     1       4.082   7.004  17.297  0.00  0.00    +0.000 C 
BRANCH   3   4
ATOM      4  C   UNL     1       5.304   6.152  17.064  0.00  0.00    +0.000 A 
ATOM      5  C   UNL     1       5.440   5.401  15.892  0.00  0.00    +0.000 A 
ATOM      6  C   UNL     1       6.585   4.640  15.716  0.00  0.00    +0.000 A 
ATOM      7  N   UNL     1       7.597   4.584  16.608  0.00  0.00    +0.000 NA
ATOM      8  C   UNL     1       7.459   5.328  17.725  0.00  0.00    +0.000 A 
ATOM      9  C   UNL     1       6.350   6.120  17.992  0.00  0.00    +0.000 A 
ENDBRANCH   3   4
ENDBRANCH   2   3
BRANCH   2  10
ATOM     10  O   UNL     1       3.221   5.219  18.597  0.00  0.00    +0.000 OA
BRANCH  10  11
ATOM     11  C   UNL     1       1.964   4.606  18.917  0.00  0.00    +0.000 C 
ATOM     12  C   UNL     1       1.720   3.304  18.160  0.00  0.00    +0.000 C 
ATOM     13  C   UNL     1       0.746   2.532  19.042  0.00  0.00    +0.000 C 
ATOM     14  C   UNL     1       1.038   2.975  20.473  0.00  0.00    +0.000 C 
ATOM     15  C   UNL     1       2.023   4.133  20.368  0.00  0.00    +0.000 C 
ENDBRANCH  10  11
ENDBRANCH   2  10
TORSDOF 4
ENDMDL
MODEL 4
REMARK VINA RESULT:      -6.4      3.153      6.207
REMARK  Name = 
REMARK  4 active torsions:
REMARK  status: ('A' for Active; 'I' for Inactive)
REMARK    1  A    between atoms: C_2  and  C_3
REMARK    2  A    between atoms: C_2  and  O_10
REMARK    3  A    between atoms: C_3  and  C_4
REMARK    4  A    between atoms: O_10  and  C_11
REMARK                            x       y       z     vdW  Elec       q    Type
REMARK                         _______ _______ _______ _____ _____    ______ ____
ROOT
ATOM      1  O   UNL     1       7.560   6.361  16.371  0.00  0.00    +0.000 OA
ATOM      2  C   UNL     1       6.649   5.558  16.236  0.00  0.00    +0.000 C 
ENDROOT
BRANCH   2   3
ATOM      3  C   UNL     1       6.157   4.628  17.329  0.00  0.00    +0.000 C 
BRANCH   3   4
ATOM      4  C   UNL     1       4.662   4.631  17.522  0.00  0.00    +0.000 A 
ATOM      5  C   UNL     1       4.001   5.778  17.975  0.00  0.00    +0.000 A 
ATOM      6  C   UNL     1       2.624   5.739  18.128  0.00  0.00    +0.000 A 
ATOM      7  N   UNL     1       1.867   4.655  17.855  0.00  0.00    +0.000 NA
ATOM      8  C   UNL     1       2.516   3.562  17.403  0.00  0.00    +0.000 A 
ATOM      9  C   UNL     1       3.891   3.505  17.218  0.00  0.00    +0.000 A 
ENDBRANCH   3   4
ENDBRANCH   2   3
BRANCH   2  10
ATOM     10  O   UNL     1       5.925   5.378  15.093  0.00  0.00    +0.000 OA
BRANCH  10  11
ATOM     11  C   UNL     1       6.329   4.311  14.222  0.00  0.00    +0.000 C 
ATOM     12  C   UNL     1       5.197   3.796  13.340  0.00  0.00    +0.000 C 
ATOM     13  C   UNL     1       5.907   3.192  12.133  0.00  0.00    +0.000 C 
ATOM     14  C   UNL     1       7.202   3.983  11.971  0.00  0.00    +0.000 C 
ATOM     15  C   UNL     1       7.308   4.880  13.198  0.00  0.00    +0.000 C 
ENDBRANCH  10  11
ENDBRANCH   2  10
TORSDOF 4
ENDMDL
MODEL 5
REMARK VINA RESULT:      -6.3      1.734      2.278
REMARK  Name = 
REMARK  4 active torsions:
REMARK  status: ('A' for Active; 'I' for Inactive)
REMARK    1  A    between atoms: C_2  and  C_3
REMARK    2  A    between atoms: C_2  and  O_10
REMARK    3  A    between atoms: C_3  and  C_4
REMARK    4  A    between atoms: O_10  and  C_11
REMARK                            x       y       z     vdW  Elec       q    Type
REMARK                         _______ _______ _______ _____ _____    ______ ____
ROOT
ATOM      1  O   UNL     1       4.765   3.818  15.807  0.00  0.00    +0.000 OA
ATOM      2  C   UNL     1       4.255   4.059  16.892  0.00  0.00    +0.000 C 
ENDROOT
BRANCH   2   3
ATOM      3  C   UNL     1       4.271   5.420  17.563  0.00  0.00    +0.000 C 
BRANCH   3   4
ATOM      4  C   UNL     1       5.647   5.917  17.927  0.00  0.00    +0.000 A 
ATOM      5  C   UNL     1       6.225   6.990  17.239  0.00  0.00    +0.000 A 
ATOM      6  C   UNL     1       7.488   7.421  17.615  0.00  0.00    +0.000 A 
ATOM      7  N   UNL     1       8.203   6.872  18.620  0.00  0.00    +0.000 NA
ATOM      8  C   UNL     1       7.624   5.850  19.285  0.00  0.00    +0.000 A 
ATOM      9  C   UNL     1       6.365   5.348  18.982  0.00  0.00    +0.000 A 
ENDBRANCH   3   4
ENDBRANCH   2   3
BRANCH   2  10
ATOM     10  O   UNL     1       3.586   3.152  17.662  0.00  0.00    +0.000 OA
BRANCH  10  11
ATOM     11  C   UNL     1       2.842   3.663  18.778  0.00  0.00    +0.000 C 
ATOM     12  C   UNL     1       1.345   3.390  18.676  0.00  0.00    +0.000 C 
ATOM     13  C   UNL     1       0.860   3.405  20.122  0.00  0.00    +0.000 C 
ATOM     14  C   UNL     1       2.045   2.938  20.963  0.00  0.00    +0.000 C 
ATOM     15  C   UNL     1       3.236   2.862  20.017  0.00  0.00    +0.000 C 
ENDBRANCH  10  11
ENDBRANCH   2  10
TORSDOF 4
ENDMDL
MODEL 6
REMARK VINA RESULT:      -6.3      1.845      2.746
REMARK  Name = 
REMARK  4 active torsions:
REMARK  status: ('A' for Active; 'I' for Inactive)
REMARK    1  A    between atoms: C_2  and  C_3
REMARK    2  A    between atoms: C_2  and  O_10
REMARK    3  A    between atoms: C_3  and  C_4
REMARK    4  A    between atoms: O_10  and  C_11
REMARK                            x       y       z     vdW  Elec       q    Type
REMARK                         _______ _______ _______ _____ _____    ______ ____
ROOT
ATOM      1  O   UNL     1       3.304   5.702  19.728  0.00  0.00    +0.000 OA
ATOM      2  C   UNL     1       3.174   5.872  18.524  0.00  0.00    +0.000 C 
ENDROOT
BRANCH   2   3
ATOM      3  C   UNL     1       4.140   6.661  17.661  0.00  0.00    +0.000 C 
BRANCH   3   4
ATOM      4  C   UNL     1       5.386   5.906  17.273  0.00  0.00    +0.000 A 
ATOM      5  C   UNL     1       5.601   5.512  15.948  0.00  0.00    +0.000 A 
ATOM      6  C   UNL     1       6.767   4.829  15.636  0.00  0.00    +0.000 A 
ATOM      7  N   UNL     1       7.725   4.524  16.536  0.00  0.00    +0.000 NA
ATOM      8  C   UNL     1       7.511   4.926  17.806  0.00  0.00    +0.000 A 
ATOM      9  C   UNL     1       6.377   5.614  18.216  0.00  0.00    +0.000 A 
ENDBRANCH   3   4
ENDBRANCH   2   3
BRANCH   2  10
ATOM     10  O   UNL     1       2.152   5.374  17.768  0.00  0.00    +0.000 OA
BRANCH  10  11
ATOM     11  C   UNL     1       2.025   3.947  17.697  0.00  0.00    +0.000 C 
ATOM     12  C   UNL     1       3.357   3.217  17.836  0.00  0.00    +0.000 C 
ATOM     13  C   UNL     1       2.977   1.837  18.362  0.00  0.00    +0.000 C 
ATOM     14  C   UNL     1       1.703   2.038  19.177  0.00  0.00    +0.000 C 
ATOM     15  C   UNL     1       1.265   3.477  18.936  0.00  0.00    +0.000 C 
ENDBRANCH  10  11
ENDBRANCH   2  10
TORSDOF 4
ENDMDL
MODEL 7
REMARK VINA RESULT:      -6.3      1.208      2.068
REMARK  Name = 
REMARK  4 active torsions:
REMARK  status: ('A' for Active; 'I' for Inactive)
REMARK    1  A    between atoms: C_2  and  C_3
REMARK    2  A    between atoms: C_2  and  O_10
REMARK    3  A    between atoms: C_3  and  C_4
REMARK    4  A    between atoms: O_10  and  C_11
REMARK                            x       y       z     vdW  Elec       q    Type
REMARK                         _______ _______ _______ _____ _____    ______ ____
ROOT
ATOM      1  O   UNL     1       2.843   5.102  17.630  0.00  0.00    +0.000 OA
ATOM      2  C   UNL     1       2.889   3.889  17.486  0.00  0.00    +0.000 C 
ENDROOT
BRANCH   2   3
ATOM      3  C   UNL     1       4.106   3.131  16.990  0.00  0.00    +0.000 C 
BRANCH   3   4
ATOM      4  C   UNL     1       5.256   4.010  16.568  0.00  0.00    +0.000 A 
ATOM      5  C   UNL     1       5.483   4.292  15.217  0.00  0.00    +0.000 A 
ATOM      6  C   UNL     1       6.546   5.114  14.876  0.00  0.00    +0.000 A 
ATOM      7  N   UNL     1       7.383   5.675  15.775  0.00  0.00    +0.000 NA
ATOM      8  C   UNL     1       7.140   5.408  17.075  0.00  0.00    +0.000 A 
ATOM      9  C   UNL     1       6.102   4.597  17.514  0.00  0.00    +0.000 A 
ENDBRANCH   3   4
ENDBRANCH   2   3
BRANCH   2  10
ATOM     10  O   UNL     1       1.864   3.028  17.754  0.00  0.00    +0.000 OA
BRANCH  10  11
ATOM     11  C   UNL     1       1.807   2.470  19.074  0.00  0.00    +0.000 C 
ATOM     12  C   UNL     1       3.113   2.618  19.847  0.00  0.00    +0.000 C 
ATOM     13  C   UNL     1       2.691   2.578  21.311  0.00  0.00    +0.000 C 
ATOM     14  C   UNL     1       1.276   3.148  21.354  0.00  0.00    +0.000 C 
ATOM     15  C   UNL     1       0.839   3.313  19.903  0.00  0.00    +0.000 C 
ENDBRANCH  10  11
ENDBRANCH   2  10
TORSDOF 4
ENDMDL
MODEL 8
REMARK VINA RESULT:      -6.3      2.795      5.811
REMARK  Name = 
REMARK  4 active torsions:
REMARK  status: ('A' for Active; 'I' for Inactive)
REMARK    1  A    between atoms: C_2  and  C_3
REMARK    2  A    between atoms: C_2  and  O_10
REMARK    3  A    between atoms: C_3  and  C_4
REMARK    4  A    between atoms: O_10  and  C_11
REMARK                            x       y       z     vdW  Elec       q    Type
REMARK                         _______ _______ _______ _____ _____    ______ ____
ROOT
ATOM      1  O   UNL     1       4.742   3.762  16.312  0.00  0.00    +0.000 OA
ATOM      2  C   UNL     1       4.611   4.462  17.306  0.00  0.00    +0.000 C 
ENDROOT
BRANCH   2   3
ATOM      3  C   UNL     1       3.331   5.181  17.685  0.00  0.00    +0.000 C 
BRANCH   3   4
ATOM      4  C   UNL     1       2.516   4.482  18.743  0.00  0.00    +0.000 A 
ATOM      5  C   UNL     1       1.680   3.409  18.412  0.00  0.00    +0.000 A 
ATOM      6  C   UNL     1       0.958   2.789  19.419  0.00  0.00    +0.000 A 
ATOM      7  N   UNL     1       1.015   3.151  20.718  0.00  0.00    +0.000 NA
ATOM      8  C   UNL     1       1.838   4.175  21.025  0.00  0.00    +0.000 A 
ATOM      9  C   UNL     1       2.601   4.858  20.087  0.00  0.00    +0.000 A 
ENDBRANCH   3   4
ENDBRANCH   2   3
BRANCH   2  10
ATOM     10  O   UNL     1       5.586   4.699  18.232  0.00  0.00    +0.000 OA
BRANCH  10  11
ATOM     11  C   UNL     1       6.718   5.471  17.808  0.00  0.00    +0.000 C 
ATOM     12  C   UNL     1       6.337   6.837  17.247  0.00  0.00    +0.000 C 
ATOM     13  C   UNL     1       7.582   7.691  17.458  0.00  0.00    +0.000 C 
ATOM     14  C   UNL     1       8.272   7.125  18.696  0.00  0.00    +0.000 C 
ATOM     15  C   UNL     1       7.529   5.843  19.049  0.00  0.00    +0.000 C 
ENDBRANCH  10  11
ENDBRANCH   2  10
TORSDOF 4
ENDMDL
MODEL 9
REMARK VINA RESULT:      -6.3      1.377      1.706
REMARK  Name = 
REMARK  4 active torsions:
REMARK  status: ('A' for Active; 'I' for Inactive)
REMARK    1  A    between atoms: C_2  and  C_3
REMARK    2  A    between atoms: C_2  and  O_10
REMARK    3  A    between atoms: C_3  and  C_4
REMARK    4  A    between atoms: O_10  and  C_11
REMARK                            x       y       z     vdW  Elec       q    Type
REMARK                         _______ _______ _______ _____ _____    ______ ____
ROOT
ATOM      1  O   UNL     1       3.800   1.166  17.886  0.00  0.00    +0.000 OA
ATOM      2  C   UNL     1       3.594   2.371  17.900  0.00  0.00    +0.000 C 
ENDROOT
BRANCH   2   3
ATOM      3  C   UNL     1       4.629   3.413  18.279  0.00  0.00    +0.000 C 
BRANCH   3   4
ATOM      4  C   UNL     1       4.907   4.432  17.204  0.00  0.00    +0.000 A 
ATOM      5  C   UNL     1       4.711   5.797  17.443  0.00  0.00    +0.000 A 
ATOM      6  C   UNL     1       4.989   6.700  16.428  0.00  0.00    +0.000 A 
ATOM      7  N   UNL     1       5.454   6.345  15.211  0.00  0.00    +0.000 NA
ATOM      8  C   UNL     1       5.655   5.027  15.002  0.00  0.00    +0.000 A 
ATOM      9  C   UNL     1       5.404   4.049  15.955  0.00  0.00    +0.000 A 
ENDBRANCH   3   4
ENDBRANCH   2   3
BRANCH   2  10
ATOM     10  O   UNL     1       2.412   2.968  17.569  0.00  0.00    +0.000 OA
BRANCH  10  11
ATOM     11  C   UNL     1       1.471   3.193  18.629  0.00  0.00    +0.000 C 
ATOM     12  C   UNL     1       1.734   2.329  19.857  0.00  0.00    +0.000 C 
ATOM     13  C   UNL     1       1.112   3.111  21.008  0.00  0.00    +0.000 C 
ATOM     14  C   UNL     1       1.210   4.582  20.613  0.00  0.00    +0.000 C 
ATOM     15  C   UNL     1       1.694   4.604  19.169  0.00  0.00    +0.000 C 
ENDBRANCH  10  11
ENDBRANCH   2  10
TORSDOF 4
ENDMDL
