MODEL 1
REMARK VINA RESULT:      -7.3      0.000      0.000
REMARK  Name = 
REMARK  15 active torsions:
REMARK  status: ('A' for Active; 'I' for Inactive)
REMARK    1  A    between atoms: C_1  and  C_2
REMARK    2  A    between atoms: C_2  and  C_3
REMARK    3  A    between atoms: C_3  and  C_4
REMARK    4  A    between atoms: C_3  and  C_6
REMARK    5  A    between atoms: C_4  and  C_5
REMARK    6  A    between atoms: C_6  and  O_7
REMARK    7  A    between atoms: O_7  and  C_8
REMARK    8  A    between atoms: C_11  and  C_12
REMARK    9  A    between atoms: C_12  and  C_13
REMARK   10  A    between atoms: C_13  and  C_14
REMARK   11  A    between atoms: C_14  and  C_15
REMARK   12  A    between atoms: C_14  and  C_16
REMARK   13  A    between atoms: C_14  and  S_20
REMARK   14  A    between atoms: N_18  and  O_19
REMARK   15  A    between atoms: S_20  and  C_21
REMARK                            x       y       z     vdW  Elec       q    Type
REMARK                         _______ _______ _______ _____ _____    ______ ____
ROOT
ATOM      1  C   UNL     1       3.394   5.913  18.395  0.00  0.00    +0.000 C 
ENDROOT
BRANCH   1   5
ATOM      2  C   UNL     1       1.161   9.552  19.186  0.00  0.00    +0.000 A 
ATOM      3  C   UNL     1       1.387   8.610  20.189  0.00  0.00    +0.000 A 
ATOM      4  C   UNL     1       2.126   7.464  19.937  0.00  0.00    +0.000 A 
ATOM      5  C   UNL     1       2.627   7.192  18.662  0.00  0.00    +0.000 A 
ATOM      6  C   UNL     1       2.422   8.149  17.656  0.00  0.00    +0.000 A 
ATOM      7  C   UNL     1       1.693   9.321  17.918  0.00  0.00    +0.000 A 
BRANCH   2   8
ATOM      8  O   UNL     1       0.446  10.713  19.368  0.00  0.00    +0.000 OA
BRANCH   8   9
ATOM      9  C   UNL     1      -0.953  10.492  19.568  0.00  0.00    +0.000 C 
BRANCH   9  10
ATOM     10  C   UNL     1      -1.819  11.066  18.444  0.00  0.00    +0.000 C 
BRANCH  10  12
ATOM     11  C   UNL     1      -2.392  10.211  16.082  0.00  0.00    +0.000 C 
ATOM     12  C   UNL     1      -2.253   9.878  17.555  0.00  0.00    +0.000 C 
ENDBRANCH  10  12
BRANCH  10  13
ATOM     13  C   UNL     1      -2.982  11.925  18.977  0.00  0.00    +0.000 C 
ATOM     14  C   UNL     1      -4.349  11.599  18.392  0.00  0.00    +0.000 C 
ENDBRANCH  10  13
ENDBRANCH   9  10
ENDBRANCH   8   9
ENDBRANCH   2   8
ENDBRANCH   1   5
BRANCH   1  15
ATOM     15  C   UNL     1       4.578   6.124  17.430  0.00  0.00    +0.000 C 
BRANCH  15  16
ATOM     16  C   UNL     1       5.453   4.891  17.123  0.00  0.00    +0.000 C 
ATOM     17  C   UNL     1       4.771   3.606  17.607  0.00  0.00    +0.000 C 
BRANCH  16  18
ATOM     18  C   UNL     1       5.784   4.816  15.634  0.00  0.00    +0.000 C 
ATOM     19  O   UNL     1       5.742   5.805  14.896  0.00  0.00    +0.000 OA
ATOM     20  N   UNL     1       6.166   3.588  15.137  0.00  0.00    +0.000 N 
ATOM     21  H   UNL     1       5.827   2.714  15.554  0.00  0.00    +0.000 HD
BRANCH  20  22
ATOM     22  O   UNL     1       6.372   3.549  13.735  0.00  0.00    +0.000 OA
ATOM     23  H   UNL     1       5.544   3.137  13.403  0.00  0.00    +0.000 HD
ENDBRANCH  20  22
ENDBRANCH  16  18
BRANCH  16  24
ATOM     24  S   UNL     1       7.038   5.109  17.998  0.00  0.00    +0.000 S 
ATOM     25  C   UNL     1       7.467   6.825  17.851  0.00  0.00    +0.000 C 
ATOM     26  O   UNL     1       6.798   4.847  19.410  0.00  0.00    +0.000 OA
ATOM     27  O   UNL     1       8.055   4.349  17.293  0.00  0.00    +0.000 OA
ENDBRANCH  16  24
ENDBRANCH  15  16
ENDBRANCH   1  15
TORSDOF 11
ENDMDL
MODEL 2
REMARK VINA RESULT:      -7.2      2.669      3.876
REMARK  Name = 
REMARK  15 active torsions:
REMARK  status: ('A' for Active; 'I' for Inactive)
REMARK    1  A    between atoms: C_1  and  C_2
REMARK    2  A    between atoms: C_2  and  C_3
REMARK    3  A    between atoms: C_3  and  C_4
REMARK    4  A    between atoms: C_3  and  C_6
REMARK    5  A    between atoms: C_4  and  C_5
REMARK    6  A    between atoms: C_6  and  O_7
REMARK    7  A    between atoms: O_7  and  C_8
REMARK    8  A    between atoms: C_11  and  C_12
REMARK    9  A    between atoms: C_12  and  C_13
REMARK   10  A    between atoms: C_13  and  C_14
REMARK   11  A    between atoms: C_14  and  C_15
REMARK   12  A    between atoms: C_14  and  C_16
REMARK   13  A    between atoms: C_14  and  S_20
REMARK   14  A    between atoms: N_18  and  O_19
REMARK   15  A    between atoms: S_20  and  C_21
REMARK                            x       y       z     vdW  Elec       q    Type
REMARK                         _______ _______ _______ _____ _____    ______ ____
ROOT
ATOM      1  C   UNL     1       2.795   6.415  17.978  0.00  0.00    +0.000 C 
ENDROOT
BRANCH   1   5
ATOM      2  C   UNL     1       1.016  10.075  19.493  0.00  0.00    +0.000 A 
ATOM      3  C   UNL     1       1.380   9.949  18.154  0.00  0.00    +0.000 A 
ATOM      4  C   UNL     1       1.920   8.767  17.670  0.00  0.00    +0.000 A 
ATOM      5  C   UNL     1       2.163   7.682  18.516  0.00  0.00    +0.000 A 
ATOM      6  C   UNL     1       1.775   7.797  19.861  0.00  0.00    +0.000 A 
ATOM      7  C   UNL     1       1.207   8.987  20.345  0.00  0.00    +0.000 A 
BRANCH   2   8
ATOM      8  O   UNL     1       0.468  11.213  20.038  0.00  0.00    +0.000 OA
BRANCH   8   9
ATOM      9  C   UNL     1       0.511  11.235  21.468  0.00  0.00    +0.000 C 
BRANCH   9  10
ATOM     10  C   UNL     1      -0.827  11.626  22.102  0.00  0.00    +0.000 C 
BRANCH  10  12
ATOM     11  C   UNL     1      -0.057   9.529  23.386  0.00  0.00    +0.000 C 
ATOM     12  C   UNL     1      -1.156  10.551  23.163  0.00  0.00    +0.000 C 
ENDBRANCH  10  12
BRANCH  10  13
ATOM     13  C   UNL     1      -0.824  13.072  22.635  0.00  0.00    +0.000 C 
ATOM     14  C   UNL     1      -2.071  13.480  23.408  0.00  0.00    +0.000 C 
ENDBRANCH  10  13
ENDBRANCH   9  10
ENDBRANCH   8   9
ENDBRANCH   2   8
ENDBRANCH   1   5
BRANCH   1  15
ATOM     15  C   UNL     1       3.629   5.672  19.043  0.00  0.00    +0.000 C 
BRANCH  15  16
ATOM     16  C   UNL     1       4.399   4.421  18.574  0.00  0.00    +0.000 C 
ATOM     17  C   UNL     1       4.083   4.106  17.107  0.00  0.00    +0.000 C 
BRANCH  16  18
ATOM     18  C   UNL     1       5.900   4.592  18.793  0.00  0.00    +0.000 C 
ATOM     19  O   UNL     1       6.361   5.218  19.751  0.00  0.00    +0.000 OA
ATOM     20  N   UNL     1       6.741   3.987  17.882  0.00  0.00    +0.000 N 
ATOM     21  H   UNL     1       6.456   3.841  16.907  0.00  0.00    +0.000 HD
BRANCH  20  22
ATOM     22  O   UNL     1       8.120   4.253  18.074  0.00  0.00    +0.000 OA
ATOM     23  H   UNL     1       8.487   3.368  18.292  0.00  0.00    +0.000 HD
ENDBRANCH  20  22
ENDBRANCH  16  18
BRANCH  16  24
ATOM     24  S   UNL     1       3.875   3.025  19.625  0.00  0.00    +0.000 S 
ATOM     25  C   UNL     1       3.045   1.872  18.560  0.00  0.00    +0.000 C 
ATOM     26  O   UNL     1       5.079   2.368  20.110  0.00  0.00    +0.000 OA
ATOM     27  O   UNL     1       2.894   3.516  20.576  0.00  0.00    +0.000 OA
ENDBRANCH  16  24
ENDBRANCH  15  16
ENDBRANCH   1  15
TORSDOF 11
ENDMDL
MODEL 3
REMARK VINA RESULT:      -7.1      1.038      1.306
REMARK  Name = 
REMARK  15 active torsions:
REMARK  status: ('A' for Active; 'I' for Inactive)
REMARK    1  A    between atoms: C_1  and  C_2
REMARK    2  A    between atoms: C_2  and  C_3
REMARK    3  A    between atoms: C_3  and  C_4
REMARK    4  A    between atoms: C_3  and  C_6
REMARK    5  A    between atoms: C_4  and  C_5
REMARK    6  A    between atoms: C_6  and  O_7
REMARK    7  A    between atoms: O_7  and  C_8
REMARK    8  A    between atoms: C_11  and  C_12
REMARK    9  A    between atoms: C_12  and  C_13
REMARK   10  A    between atoms: C_13  and  C_14
REMARK   11  A    between atoms: C_14  and  C_15
REMARK   12  A    between atoms: C_14  and  C_16
REMARK   13  A    between atoms: C_14  and  S_20
REMARK   14  A    between atoms: N_18  and  O_19
REMARK   15  A    between atoms: S_20  and  C_21
REMARK                            x       y       z     vdW  Elec       q    Type
REMARK                         _______ _______ _______ _____ _____    ______ ____
ROOT
ATOM      1  C   UNL     1       3.202   5.586  17.918  0.00  0.00    +0.000 C 
ENDROOT
BRANCH   1   5
ATOM      2  C   UNL     1       1.330   9.072  19.705  0.00  0.00    +0.000 A 
ATOM      3  C   UNL     1       1.633   7.945  20.466  0.00  0.00    +0.000 A 
ATOM      4  C   UNL     1       2.257   6.846  19.895  0.00  0.00    +0.000 A 
ATOM      5  C   UNL     1       2.560   6.813  18.532  0.00  0.00    +0.000 A 
ATOM      6  C   UNL     1       2.280   7.956  17.767  0.00  0.00    +0.000 A 
ATOM      7  C   UNL     1       1.667   9.078  18.351  0.00  0.00    +0.000 A 
BRANCH   2   8
ATOM      8  O   UNL     1       0.720  10.198  20.207  0.00  0.00    +0.000 OA
BRANCH   8   9
ATOM      9  C   UNL     1      -0.559  10.459  19.622  0.00  0.00    +0.000 C 
BRANCH   9  10
ATOM     10  C   UNL     1      -0.574  11.714  18.746  0.00  0.00    +0.000 C 
BRANCH  10  12
ATOM     11  C   UNL     1      -1.993  10.295  17.131  0.00  0.00    +0.000 C 
ATOM     12  C   UNL     1      -1.827  11.622  17.845  0.00  0.00    +0.000 C 
ENDBRANCH  10  12
BRANCH  10  13
ATOM     13  C   UNL     1      -0.474  13.010  19.573  0.00  0.00    +0.000 C 
ATOM     14  C   UNL     1      -0.309  14.287  18.760  0.00  0.00    +0.000 C 
ENDBRANCH  10  13
ENDBRANCH   9  10
ENDBRANCH   8   9
ENDBRANCH   2   8
ENDBRANCH   1   5
BRANCH   1  15
ATOM     15  C   UNL     1       4.529   5.910  17.200  0.00  0.00    +0.000 C 
BRANCH  15  16
ATOM     16  C   UNL     1       5.449   4.717  16.870  0.00  0.00    +0.000 C 
ATOM     17  C   UNL     1       4.781   3.391  17.253  0.00  0.00    +0.000 C 
BRANCH  16  18
ATOM     18  C   UNL     1       5.850   4.730  15.397  0.00  0.00    +0.000 C 
ATOM     19  O   UNL     1       5.915   5.772  14.739  0.00  0.00    +0.000 OA
ATOM     20  N   UNL     1       6.170   3.518  14.822  0.00  0.00    +0.000 N 
ATOM     21  H   UNL     1       5.750   2.642  15.152  0.00  0.00    +0.000 HD
BRANCH  20  22
ATOM     22  O   UNL     1       6.444   3.570  13.432  0.00  0.00    +0.000 OA
ATOM     23  H   UNL     1       6.010   2.757  13.091  0.00  0.00    +0.000 HD
ENDBRANCH  20  22
ENDBRANCH  16  18
BRANCH  16  24
ATOM     24  S   UNL     1       6.987   4.924  17.830  0.00  0.00    +0.000 S 
ATOM     25  C   UNL     1       7.372   6.657  17.800  0.00  0.00    +0.000 C 
ATOM     26  O   UNL     1       6.690   4.576  19.211  0.00  0.00    +0.000 OA
ATOM     27  O   UNL     1       8.055   4.234  17.131  0.00  0.00    +0.000 OA
ENDBRANCH  16  24
ENDBRANCH  15  16
ENDBRANCH   1  15
TORSDOF 11
ENDMDL
MODEL 4
REMARK VINA RESULT:      -7.1      2.525      3.827
REMARK  Name = 
REMARK  15 active torsions:
REMARK  status: ('A' for Active; 'I' for Inactive)
REMARK    1  A    between atoms: C_1  and  C_2
REMARK    2  A    between atoms: C_2  and  C_3
REMARK    3  A    between atoms: C_3  and  C_4
REMARK    4  A    between atoms: C_3  and  C_6
REMARK    5  A    between atoms: C_4  and  C_5
REMARK    6  A    between atoms: C_6  and  O_7
REMARK    7  A    between atoms: O_7  and  C_8
REMARK    8  A    between atoms: C_11  and  C_12
REMARK    9  A    between atoms: C_12  and  C_13
REMARK   10  A    between atoms: C_13  and  C_14
REMARK   11  A    between atoms: C_14  and  C_15
REMARK   12  A    between atoms: C_14  and  C_16
REMARK   13  A    between atoms: C_14  and  S_20
REMARK   14  A    between atoms: N_18  and  O_19
REMARK   15  A    between atoms: S_20  and  C_21
REMARK                            x       y       z     vdW  Elec       q    Type
REMARK                         _______ _______ _______ _____ _____    ______ ____
ROOT
ATOM      1  C   UNL     1       2.567   6.304  18.155  0.00  0.00    +0.000 C 
ENDROOT
BRANCH   1   5
ATOM      2  C   UNL     1       1.152  10.217  19.394  0.00  0.00    +0.000 A 
ATOM      3  C   UNL     1       1.141   9.134  20.271  0.00  0.00    +0.000 A 
ATOM      4  C   UNL     1       1.621   7.894  19.878  0.00  0.00    +0.000 A 
ATOM      5  C   UNL     1       2.087   7.677  18.579  0.00  0.00    +0.000 A 
ATOM      6  C   UNL     1       2.122   8.772  17.700  0.00  0.00    +0.000 A 
ATOM      7  C   UNL     1       1.656  10.033  18.106  0.00  0.00    +0.000 A 
BRANCH   2   8
ATOM      8  O   UNL     1       0.699  11.475  19.719  0.00  0.00    +0.000 OA
BRANCH   8   9
ATOM      9  C   UNL     1      -0.509  11.464  20.486  0.00  0.00    +0.000 C 
BRANCH   9  10
ATOM     10  C   UNL     1      -0.285  11.801  21.962  0.00  0.00    +0.000 C 
BRANCH  10  12
ATOM     11  C   UNL     1      -1.370  13.619  23.430  0.00  0.00    +0.000 C 
ATOM     12  C   UNL     1      -0.636  13.296  22.143  0.00  0.00    +0.000 C 
ENDBRANCH  10  12
BRANCH  10  13
ATOM     13  C   UNL     1      -1.043  10.847  22.904  0.00  0.00    +0.000 C 
ATOM     14  C   UNL     1      -0.247   9.640  23.382  0.00  0.00    +0.000 C 
ENDBRANCH  10  13
ENDBRANCH   9  10
ENDBRANCH   8   9
ENDBRANCH   2   8
ENDBRANCH   1   5
BRANCH   1  15
ATOM     15  C   UNL     1       3.760   5.808  18.998  0.00  0.00    +0.000 C 
BRANCH  15  16
ATOM     16  C   UNL     1       4.471   4.530  18.510  0.00  0.00    +0.000 C 
ATOM     17  C   UNL     1       4.145   4.253  17.037  0.00  0.00    +0.000 C 
BRANCH  16  18
ATOM     18  C   UNL     1       5.979   4.626  18.735  0.00  0.00    +0.000 C 
ATOM     19  O   UNL     1       6.467   5.238  19.689  0.00  0.00    +0.000 OA
ATOM     20  N   UNL     1       6.792   3.971  17.834  0.00  0.00    +0.000 N 
ATOM     21  H   UNL     1       6.504   3.830  16.859  0.00  0.00    +0.000 HD
BRANCH  20  22
ATOM     22  O   UNL     1       8.181   4.168  18.030  0.00  0.00    +0.000 OA
ATOM     23  H   UNL     1       8.243   4.366  18.991  0.00  0.00    +0.000 HD
ENDBRANCH  20  22
ENDBRANCH  16  18
BRANCH  16  24
ATOM     24  S   UNL     1       3.880   3.144  19.537  0.00  0.00    +0.000 S 
ATOM     25  C   UNL     1       2.999   2.048  18.452  0.00  0.00    +0.000 C 
ATOM     26  O   UNL     1       5.051   2.423  20.015  0.00  0.00    +0.000 OA
ATOM     27  O   UNL     1       2.920   3.665  20.494  0.00  0.00    +0.000 OA
ENDBRANCH  16  24
ENDBRANCH  15  16
ENDBRANCH   1  15
TORSDOF 11
ENDMDL
MODEL 5
REMARK VINA RESULT:      -7.1      5.198      7.729
REMARK  Name = 
REMARK  15 active torsions:
REMARK  status: ('A' for Active; 'I' for Inactive)
REMARK    1  A    between atoms: C_1  and  C_2
REMARK    2  A    between atoms: C_2  and  C_3
REMARK    3  A    between atoms: C_3  and  C_4
REMARK    4  A    between atoms: C_3  and  C_6
REMARK    5  A    between atoms: C_4  and  C_5
REMARK    6  A    between atoms: C_6  and  O_7
REMARK    7  A    between atoms: O_7  and  C_8
REMARK    8  A    between atoms: C_11  and  C_12
REMARK    9  A    between atoms: C_12  and  C_13
REMARK   10  A    between atoms: C_13  and  C_14
REMARK   11  A    between atoms: C_14  and  C_15
REMARK   12  A    between atoms: C_14  and  C_16
REMARK   13  A    between atoms: C_14  and  S_20
REMARK   14  A    between atoms: N_18  and  O_19
REMARK   15  A    between atoms: S_20  and  C_21
REMARK                            x       y       z     vdW  Elec       q    Type
REMARK                         _______ _______ _______ _____ _____    ______ ____
ROOT
ATOM      1  C   UNL     1       5.149   4.659  17.693  0.00  0.00    +0.000 C 
ENDROOT
BRANCH   1   5
ATOM      2  C   UNL     1       8.037   7.860  18.209  0.00  0.00    +0.000 A 
ATOM      3  C   UNL     1       6.981   7.979  17.308  0.00  0.00    +0.000 A 
ATOM      4  C   UNL     1       6.045   6.965  17.169  0.00  0.00    +0.000 A 
ATOM      5  C   UNL     1       6.156   5.774  17.891  0.00  0.00    +0.000 A 
ATOM      6  C   UNL     1       7.205   5.660  18.817  0.00  0.00    +0.000 A 
ATOM      7  C   UNL     1       8.140   6.697  18.973  0.00  0.00    +0.000 A 
BRANCH   2   8
ATOM      8  O   UNL     1       8.995   8.828  18.404  0.00  0.00    +0.000 OA
BRANCH   8   9
ATOM      9  C   UNL     1       8.538  10.149  18.100  0.00  0.00    +0.000 C 
BRANCH   9  10
ATOM     10  C   UNL     1       9.645  11.202  18.189  0.00  0.00    +0.000 C 
BRANCH  10  12
ATOM     11  C   UNL     1       7.785  12.701  17.225  0.00  0.00    +0.000 C 
ATOM     12  C   UNL     1       8.955  12.585  18.184  0.00  0.00    +0.000 C 
ENDBRANCH  10  12
BRANCH  10  13
ATOM     13  C   UNL     1      10.589  10.963  19.383  0.00  0.00    +0.000 C 
ATOM     14  C   UNL     1      10.395  11.907  20.562  0.00  0.00    +0.000 C 
ENDBRANCH  10  13
ENDBRANCH   9  10
ENDBRANCH   8   9
ENDBRANCH   2   8
ENDBRANCH   1   5
BRANCH   1  15
ATOM     15  C   UNL     1       4.161   4.539  18.872  0.00  0.00    +0.000 C 
BRANCH  15  16
ATOM     16  C   UNL     1       3.184   3.346  18.840  0.00  0.00    +0.000 C 
ATOM     17  C   UNL     1       2.406   3.313  17.519  0.00  0.00    +0.000 C 
BRANCH  16  18
ATOM     18  C   UNL     1       3.923   2.032  19.081  0.00  0.00    +0.000 C 
ATOM     19  O   UNL     1       3.687   1.011  18.428  0.00  0.00    +0.000 OA
ATOM     20  N   UNL     1       4.901   2.029  20.053  0.00  0.00    +0.000 N 
ATOM     21  H   UNL     1       4.850   2.657  20.864  0.00  0.00    +0.000 HD
BRANCH  20  22
ATOM     22  O   UNL     1       5.491   0.765  20.304  0.00  0.00    +0.000 OA
ATOM     23  H   UNL     1       5.807   0.489  19.416  0.00  0.00    +0.000 HD
ENDBRANCH  20  22
ENDBRANCH  16  18
BRANCH  16  24
ATOM     24  S   UNL     1       2.020   3.550  20.230  0.00  0.00    +0.000 S 
ATOM     25  C   UNL     1       1.912   5.293  20.549  0.00  0.00    +0.000 C 
ATOM     26  O   UNL     1       0.709   3.118  19.768  0.00  0.00    +0.000 OA
ATOM     27  O   UNL     1       2.604   2.933  21.407  0.00  0.00    +0.000 OA
ENDBRANCH  16  24
ENDBRANCH  15  16
ENDBRANCH   1  15
TORSDOF 11
ENDMDL
MODEL 6
REMARK VINA RESULT:      -7.0      3.466      4.470
REMARK  Name = 
REMARK  15 active torsions:
REMARK  status: ('A' for Active; 'I' for Inactive)
REMARK    1  A    between atoms: C_1  and  C_2
REMARK    2  A    between atoms: C_2  and  C_3
REMARK    3  A    between atoms: C_3  and  C_4
REMARK    4  A    between atoms: C_3  and  C_6
REMARK    5  A    between atoms: C_4  and  C_5
REMARK    6  A    between atoms: C_6  and  O_7
REMARK    7  A    between atoms: O_7  and  C_8
REMARK    8  A    between atoms: C_11  and  C_12
REMARK    9  A    between atoms: C_12  and  C_13
REMARK   10  A    between atoms: C_13  and  C_14
REMARK   11  A    between atoms: C_14  and  C_15
REMARK   12  A    between atoms: C_14  and  C_16
REMARK   13  A    between atoms: C_14  and  S_20
REMARK   14  A    between atoms: N_18  and  O_19
REMARK   15  A    between atoms: S_20  and  C_21
REMARK                            x       y       z     vdW  Elec       q    Type
REMARK                         _______ _______ _______ _____ _____    ______ ____
ROOT
ATOM      1  C   UNL     1       3.350   6.326  18.346  0.00  0.00    +0.000 C 
ENDROOT
BRANCH   1   5
ATOM      2  C   UNL     1       0.883   9.750  19.367  0.00  0.00    +0.000 A 
ATOM      3  C   UNL     1       1.350   9.558  18.068  0.00  0.00    +0.000 A 
ATOM      4  C   UNL     1       2.113   8.447  17.742  0.00  0.00    +0.000 A 
ATOM      5  C   UNL     1       2.479   7.510  18.712  0.00  0.00    +0.000 A 
ATOM      6  C   UNL     1       1.989   7.687  20.016  0.00  0.00    +0.000 A 
ATOM      7  C   UNL     1       1.198   8.802  20.340  0.00  0.00    +0.000 A 
BRANCH   2   8
ATOM      8  O   UNL     1       0.115  10.823  19.757  0.00  0.00    +0.000 OA
BRANCH   8   9
ATOM      9  C   UNL     1       0.176  11.925  18.849  0.00  0.00    +0.000 C 
BRANCH   9  10
ATOM     10  C   UNL     1       0.440  13.263  19.545  0.00  0.00    +0.000 C 
BRANCH  10  12
ATOM     11  C   UNL     1       2.641  12.969  18.241  0.00  0.00    +0.000 C 
ATOM     12  C   UNL     1       1.964  13.513  19.484  0.00  0.00    +0.000 C 
ENDBRANCH  10  12
BRANCH  10  13
ATOM     13  C   UNL     1      -0.420  14.405  18.969  0.00  0.00    +0.000 C 
ATOM     14  C   UNL     1       0.232  15.781  18.989  0.00  0.00    +0.000 C 
ENDBRANCH  10  13
ENDBRANCH   9  10
ENDBRANCH   8   9
ENDBRANCH   2   8
ENDBRANCH   1   5
BRANCH   1  15
ATOM     15  C   UNL     1       3.279   5.194  19.392  0.00  0.00    +0.000 C 
BRANCH  15  16
ATOM     16  C   UNL     1       2.687   3.850  18.922  0.00  0.00    +0.000 C 
ATOM     17  C   UNL     1       2.111   3.974  17.506  0.00  0.00    +0.000 C 
BRANCH  16  18
ATOM     18  C   UNL     1       3.730   2.738  19.001  0.00  0.00    +0.000 C 
ATOM     19  O   UNL     1       4.838   2.906  19.519  0.00  0.00    +0.000 OA
ATOM     20  N   UNL     1       3.377   1.508  18.488  0.00  0.00    +0.000 N 
ATOM     21  H   UNL     1       2.706   1.423  17.716  0.00  0.00    +0.000 HD
BRANCH  20  22
ATOM     22  O   UNL     1       4.410   0.537  18.499  0.00  0.00    +0.000 OA
ATOM     23  H   UNL     1       5.122   0.968  17.978  0.00  0.00    +0.000 HD
ENDBRANCH  20  22
ENDBRANCH  16  18
BRANCH  16  24
ATOM     24  S   UNL     1       1.356   3.398  20.085  0.00  0.00    +0.000 S 
ATOM     25  C   UNL     1       2.149   2.755  21.538  0.00  0.00    +0.000 C 
ATOM     26  O   UNL     1       0.680   4.627  20.475  0.00  0.00    +0.000 OA
ATOM     27  O   UNL     1       0.588   2.314  19.498  0.00  0.00    +0.000 OA
ENDBRANCH  16  24
ENDBRANCH  15  16
ENDBRANCH   1  15
TORSDOF 11
ENDMDL
MODEL 7
REMARK VINA RESULT:      -7.0      2.258      3.409
REMARK  Name = 
REMARK  15 active torsions:
REMARK  status: ('A' for Active; 'I' for Inactive)
REMARK    1  A    between atoms: C_1  and  C_2
REMARK    2  A    between atoms: C_2  and  C_3
REMARK    3  A    between atoms: C_3  and  C_4
REMARK    4  A    between atoms: C_3  and  C_6
REMARK    5  A    between atoms: C_4  and  C_5
REMARK    6  A    between atoms: C_6  and  O_7
REMARK    7  A    between atoms: O_7  and  C_8
REMARK    8  A    between atoms: C_11  and  C_12
REMARK    9  A    between atoms: C_12  and  C_13
REMARK   10  A    between atoms: C_13  and  C_14
REMARK   11  A    between atoms: C_14  and  C_15
REMARK   12  A    between atoms: C_14  and  C_16
REMARK   13  A    between atoms: C_14  and  S_20
REMARK   14  A    between atoms: N_18  and  O_19
REMARK   15  A    between atoms: S_20  and  C_21
REMARK                            x       y       z     vdW  Elec       q    Type
REMARK                         _______ _______ _______ _____ _____    ______ ____
ROOT
ATOM      1  C   UNL     1       3.019   6.524  18.073  0.00  0.00    +0.000 C 
ENDROOT
BRANCH   1   5
ATOM      2  C   UNL     1       0.985   9.969  19.759  0.00  0.00    +0.000 A 
ATOM      3  C   UNL     1       1.373   9.943  18.422  0.00  0.00    +0.000 A 
ATOM      4  C   UNL     1       1.997   8.828  17.882  0.00  0.00    +0.000 A 
ATOM      5  C   UNL     1       2.298   7.715  18.670  0.00  0.00    +0.000 A 
ATOM      6  C   UNL     1       1.886   7.728  20.012  0.00  0.00    +0.000 A 
ATOM      7  C   UNL     1       1.235   8.849  20.552  0.00  0.00    +0.000 A 
BRANCH   2   8
ATOM      8  O   UNL     1       0.356  11.037  20.358  0.00  0.00    +0.000 OA
BRANCH   8   9
ATOM      9  C   UNL     1      -1.071  10.945  20.328  0.00  0.00    +0.000 C 
BRANCH   9  10
ATOM     10  C   UNL     1      -1.730  12.093  19.559  0.00  0.00    +0.000 C 
BRANCH  10  12
ATOM     11  C   UNL     1      -0.166  13.782  18.402  0.00  0.00    +0.000 C 
ATOM     12  C   UNL     1      -0.803  13.322  19.699  0.00  0.00    +0.000 C 
ENDBRANCH  10  12
BRANCH  10  13
ATOM     13  C   UNL     1      -2.068  11.709  18.106  0.00  0.00    +0.000 C 
ATOM     14  C   UNL     1      -2.235  10.217  17.852  0.00  0.00    +0.000 C 
ENDBRANCH  10  13
ENDBRANCH   9  10
ENDBRANCH   8   9
ENDBRANCH   2   8
ENDBRANCH   1   5
BRANCH   1  15
ATOM     15  C   UNL     1       2.650   5.199  18.771  0.00  0.00    +0.000 C 
BRANCH  15  16
ATOM     16  C   UNL     1       3.627   4.020  18.585  0.00  0.00    +0.000 C 
ATOM     17  C   UNL     1       3.509   3.431  17.174  0.00  0.00    +0.000 C 
BRANCH  16  18
ATOM     18  C   UNL     1       5.061   4.450  18.888  0.00  0.00    +0.000 C 
ATOM     19  O   UNL     1       5.331   5.294  19.747  0.00  0.00    +0.000 OA
ATOM     20  N   UNL     1       6.066   3.831  18.175  0.00  0.00    +0.000 N 
ATOM     21  H   UNL     1       5.908   3.477  17.225  0.00  0.00    +0.000 HD
BRANCH  20  22
ATOM     22  O   UNL     1       7.369   4.330  18.424  0.00  0.00    +0.000 OA
ATOM     23  H   UNL     1       7.197   5.228  18.782  0.00  0.00    +0.000 HD
ENDBRANCH  20  22
ENDBRANCH  16  18
BRANCH  16  24
ATOM     24  S   UNL     1       3.195   2.746  19.817  0.00  0.00    +0.000 S 
ATOM     25  C   UNL     1       2.403   3.591  21.163  0.00  0.00    +0.000 C 
ATOM     26  O   UNL     1       2.198   1.875  19.213  0.00  0.00    +0.000 OA
ATOM     27  O   UNL     1       4.427   2.176  20.332  0.00  0.00    +0.000 OA
ENDBRANCH  16  24
ENDBRANCH  15  16
ENDBRANCH   1  15
TORSDOF 11
ENDMDL
MODEL 8
REMARK VINA RESULT:      -7.0      4.674      8.346
REMARK  Name = 
REMARK  15 active torsions:
REMARK  status: ('A' for Active; 'I' for Inactive)
REMARK    1  A    between atoms: C_1  and  C_2
REMARK    2  A    between atoms: C_2  and  C_3
REMARK    3  A    between atoms: C_3  and  C_4
REMARK    4  A    between atoms: C_3  and  C_6
REMARK    5  A    between atoms: C_4  and  C_5
REMARK    6  A    between atoms: C_6  and  O_7
REMARK    7  A    between atoms: O_7  and  C_8
REMARK    8  A    between atoms: C_11  and  C_12
REMARK    9  A    between atoms: C_12  and  C_13
REMARK   10  A    between atoms: C_13  and  C_14
REMARK   11  A    between atoms: C_14  and  C_15
REMARK   12  A    between atoms: C_14  and  C_16
REMARK   13  A    between atoms: C_14  and  S_20
REMARK   14  A    between atoms: N_18  and  O_19
REMARK   15  A    between atoms: S_20  and  C_21
REMARK                            x       y       z     vdW  Elec       q    Type
REMARK                         _______ _______ _______ _____ _____    ______ ____
ROOT
ATOM      1  C   UNL     1       5.439   4.840  18.993  0.00  0.00    +0.000 C 
ENDROOT
BRANCH   1   5
ATOM      2  C   UNL     1       5.865   4.826  14.672  0.00  0.00    +0.000 A 
ATOM      3  C   UNL     1       6.238   3.723  15.438  0.00  0.00    +0.000 A 
ATOM      4  C   UNL     1       6.072   3.723  16.815  0.00  0.00    +0.000 A 
ATOM      5  C   UNL     1       5.572   4.842  17.484  0.00  0.00    +0.000 A 
ATOM      6  C   UNL     1       5.172   5.946  16.713  0.00  0.00    +0.000 A 
ATOM      7  C   UNL     1       5.320   5.937  15.316  0.00  0.00    +0.000 A 
BRANCH   2   8
ATOM      8  O   UNL     1       5.994   4.892  13.304  0.00  0.00    +0.000 OA
BRANCH   8   9
ATOM      9  C   UNL     1       6.433   3.664  12.715  0.00  0.00    +0.000 C 
BRANCH   9  10
ATOM     10  C   UNL     1       5.289   2.845  12.112  0.00  0.00    +0.000 C 
BRANCH  10  12
ATOM     11  C   UNL     1       3.275   3.165  10.538  0.00  0.00    +0.000 C 
ATOM     12  C   UNL     1       4.419   3.820  11.287  0.00  0.00    +0.000 C 
ENDBRANCH  10  12
BRANCH  10  13
ATOM     13  C   UNL     1       5.794   1.618  11.329  0.00  0.00    +0.000 C 
ATOM     14  C   UNL     1       7.279   1.632  10.991  0.00  0.00    +0.000 C 
ENDBRANCH  10  13
ENDBRANCH   9  10
ENDBRANCH   8   9
ENDBRANCH   2   8
ENDBRANCH   1   5
BRANCH   1  15
ATOM     15  C   UNL     1       3.987   5.069  19.459  0.00  0.00    +0.000 C 
BRANCH  15  16
ATOM     16  C   UNL     1       3.010   3.887  19.297  0.00  0.00    +0.000 C 
ATOM     17  C   UNL     1       2.300   3.949  17.939  0.00  0.00    +0.000 C 
BRANCH  16  18
ATOM     18  C   UNL     1       3.733   2.555  19.483  0.00  0.00    +0.000 C 
ATOM     19  O   UNL     1       4.306   2.255  20.535  0.00  0.00    +0.000 OA
ATOM     20  N   UNL     1       3.701   1.669  18.427  0.00  0.00    +0.000 N 
ATOM     21  H   UNL     1       3.633   1.996  17.457  0.00  0.00    +0.000 HD
BRANCH  20  22
ATOM     22  O   UNL     1       4.464   0.489  18.614  0.00  0.00    +0.000 OA
ATOM     23  H   UNL     1       5.157   0.772  19.250  0.00  0.00    +0.000 HD
ENDBRANCH  20  22
ENDBRANCH  16  18
BRANCH  16  24
ATOM     24  S   UNL     1       1.777   4.002  20.637  0.00  0.00    +0.000 S 
ATOM     25  C   UNL     1       1.418   5.727  20.848  0.00  0.00    +0.000 C 
ATOM     26  O   UNL     1       0.557   3.366  20.163  0.00  0.00    +0.000 OA
ATOM     27  O   UNL     1       2.397   3.537  21.865  0.00  0.00    +0.000 OA
ENDBRANCH  16  24
ENDBRANCH  15  16
ENDBRANCH   1  15
TORSDOF 11
ENDMDL
MODEL 9
REMARK VINA RESULT:      -7.0      1.952      3.236
REMARK  Name = 
REMARK  15 active torsions:
REMARK  status: ('A' for Active; 'I' for Inactive)
REMARK    1  A    between atoms: C_1  and  C_2
REMARK    2  A    between atoms: C_2  and  C_3
REMARK    3  A    between atoms: C_3  and  C_4
REMARK    4  A    between atoms: C_3  and  C_6
REMARK    5  A    between atoms: C_4  and  C_5
REMARK    6  A    between atoms: C_6  and  O_7
REMARK    7  A    between atoms: O_7  and  C_8
REMARK    8  A    between atoms: C_11  and  C_12
REMARK    9  A    between atoms: C_12  and  C_13
REMARK   10  A    between atoms: C_13  and  C_14
REMARK   11  A    between atoms: C_14  and  C_15
REMARK   12  A    between atoms: C_14  and  C_16
REMARK   13  A    between atoms: C_14  and  S_20
REMARK   14  A    between atoms: N_18  and  O_19
REMARK   15  A    between atoms: S_20  and  C_21
REMARK                            x       y       z     vdW  Elec       q    Type
REMARK                         _______ _______ _______ _____ _____    ______ ____
ROOT
ATOM      1  C   UNL     1       3.732   5.323  18.518  0.00  0.00    +0.000 C 
ENDROOT
BRANCH   1   5
ATOM      2  C   UNL     1       1.503   8.968  19.292  0.00  0.00    +0.000 A 
ATOM      3  C   UNL     1       1.637   7.982  20.268  0.00  0.00    +0.000 A 
ATOM      4  C   UNL     1       2.374   6.833  20.024  0.00  0.00    +0.000 A 
ATOM      5  C   UNL     1       2.967   6.604  18.780  0.00  0.00    +0.000 A 
ATOM      6  C   UNL     1       2.856   7.606  17.803  0.00  0.00    +0.000 A 
ATOM      7  C   UNL     1       2.127   8.780  18.059  0.00  0.00    +0.000 A 
BRANCH   2   8
ATOM      8  O   UNL     1       0.794  10.133  19.468  0.00  0.00    +0.000 OA
BRANCH   8   9
ATOM      9  C   UNL     1       0.542  10.442  20.842  0.00  0.00    +0.000 C 
BRANCH   9  10
ATOM     10  C   UNL     1      -0.429  11.612  21.025  0.00  0.00    +0.000 C 
BRANCH  10  12
ATOM     11  C   UNL     1      -1.242  12.724  18.848  0.00  0.00    +0.000 C 
ATOM     12  C   UNL     1      -1.408  11.579  19.829  0.00  0.00    +0.000 C 
ENDBRANCH  10  12
BRANCH  10  13
ATOM     13  C   UNL     1      -1.108  11.600  22.408  0.00  0.00    +0.000 C 
ATOM     14  C   UNL     1      -1.262  12.965  23.066  0.00  0.00    +0.000 C 
ENDBRANCH  10  13
ENDBRANCH   9  10
ENDBRANCH   8   9
ENDBRANCH   2   8
ENDBRANCH   1   5
BRANCH   1  15
ATOM     15  C   UNL     1       4.644   5.422  17.277  0.00  0.00    +0.000 C 
BRANCH  15  16
ATOM     16  C   UNL     1       6.132   5.740  17.533  0.00  0.00    +0.000 C 
ATOM     17  C   UNL     1       6.394   7.246  17.421  0.00  0.00    +0.000 C 
BRANCH  16  18
ATOM     18  C   UNL     1       6.578   5.199  18.889  0.00  0.00    +0.000 C 
ATOM     19  O   UNL     1       5.987   4.279  19.462  0.00  0.00    +0.000 OA
ATOM     20  N   UNL     1       7.703   5.765  19.452  0.00  0.00    +0.000 N 
ATOM     21  H   UNL     1       7.962   6.740  19.264  0.00  0.00    +0.000 HD
BRANCH  20  22
ATOM     22  O   UNL     1       8.022   5.296  20.750  0.00  0.00    +0.000 OA
ATOM     23  H   UNL     1       8.985   5.478  20.821  0.00  0.00    +0.000 HD
ENDBRANCH  20  22
ENDBRANCH  16  18
BRANCH  16  24
ATOM     24  S   UNL     1       7.109   4.854  16.272  0.00  0.00    +0.000 S 
ATOM     25  C   UNL     1       6.013   3.681  15.514  0.00  0.00    +0.000 C 
ATOM     26  O   UNL     1       7.478   5.819  15.247  0.00  0.00    +0.000 OA
ATOM     27  O   UNL     1       8.146   4.098  16.950  0.00  0.00    +0.000 OA
ENDBRANCH  16  24
ENDBRANCH  15  16
ENDBRANCH   1  15
TORSDOF 11
ENDMDL
