MODEL 1
REMARK VINA RESULT:      -8.4      0.000      0.000
REMARK  Name = 
REMARK  10 active torsions:
REMARK  status: ('A' for Active; 'I' for Inactive)
REMARK    1  A    between atoms: C_1  and  O_2
REMARK    2  A    between atoms: O_2  and  C_3
REMARK    3  A    between atoms: C_6  and  O_7
REMARK    4  A    between atoms: O_7  and  C_8
REMARK    5  A    between atoms: C_9  and  N_10
REMARK    6  A    between atoms: N_10  and  C_11
REMARK    7  A    between atoms: C_16  and  N_17
REMARK    8  A    between atoms: N_17  and  S_18
REMARK    9  A    between atoms: S_18  and  C_21
REMARK   10  A    between atoms: C_25  and  N_26
REMARK                            x       y       z     vdW  Elec       q    Type
REMARK                         _______ _______ _______ _____ _____    ______ ____
ROOT
ATOM      1  C   UNL     1       3.628   3.391  19.696  0.00  0.00    +0.000 A 
ATOM      2  N   UNL     1       2.942   2.228  19.837  0.00  0.00    +0.000 NA
ATOM      3  C   UNL     1       1.619   2.321  20.104  0.00  0.00    +0.000 A 
ATOM      4  C   UNL     1       0.977   3.533  20.282  0.00  0.00    +0.000 A 
ATOM      5  N   UNL     1       1.627   4.714  20.212  0.00  0.00    +0.000 NA
ATOM      6  C   UNL     1       2.940   4.615  19.905  0.00  0.00    +0.000 A 
ENDROOT
BRANCH   1   7
ATOM      7  N   UNL     1       4.970   3.369  19.244  0.00  0.00    +0.000 N 
ATOM      8  H   UNL     1       5.423   2.494  19.488  0.00  0.00    +0.000 HD
BRANCH   7  13
ATOM      9  C   UNL     1       5.514   4.336  15.672  0.00  0.00    +0.000 A 
ATOM     10  C   UNL     1       6.543   5.265  15.784  0.00  0.00    +0.000 A 
ATOM     11  C   UNL     1       7.064   5.590  17.033  0.00  0.00    +0.000 A 
ATOM     12  C   UNL     1       6.585   4.960  18.192  0.00  0.00    +0.000 A 
ATOM     13  C   UNL     1       5.515   4.034  18.109  0.00  0.00    +0.000 A 
ATOM     14  C   UNL     1       4.987   3.745  16.830  0.00  0.00    +0.000 A 
BRANCH   9  16
ATOM     15  C   UNL     1       6.161   3.875  13.428  0.00  0.00    +0.000 C 
ATOM     16  O   UNL     1       5.134   4.097  14.381  0.00  0.00    +0.000 OA
ENDBRANCH   9  16
BRANCH  12  17
ATOM     17  O   UNL     1       7.152   5.184  19.425  0.00  0.00    +0.000 OA
ATOM     18  C   UNL     1       8.265   6.072  19.433  0.00  0.00    +0.000 C 
ENDBRANCH  12  17
ENDBRANCH   7  13
ENDBRANCH   1   7
BRANCH   6  19
ATOM     19  N   UNL     1       3.500   5.899  19.738  0.00  0.00    +0.000 N 
ATOM     20  H   UNL     1       4.510   5.899  19.849  0.00  0.00    +0.000 HD
BRANCH  19  21
ATOM     21  S   UNL     1       2.999   6.818  18.442  0.00  0.00    +0.000 S 
ATOM     22  O   UNL     1       4.185   7.358  17.809  0.00  0.00    +0.000 OA
ATOM     23  O   UNL     1       2.068   5.998  17.697  0.00  0.00    +0.000 OA
BRANCH  21  24
ATOM     24  C   UNL     1       2.035   8.190  19.076  0.00  0.00    +0.000 A 
ATOM     25  C   UNL     1       1.587   9.178  18.186  0.00  0.00    +0.000 A 
ATOM     26  C   UNL     1       0.691  10.161  18.614  0.00  0.00    +0.000 A 
ATOM     27  C   UNL     1       0.233  10.166  19.930  0.00  0.00    +0.000 A 
ATOM     28  C   UNL     1       0.672   9.175  20.820  0.00  0.00    +0.000 A 
ATOM     29  C   UNL     1       1.571   8.175  20.400  0.00  0.00    +0.000 A 
BRANCH  28  30
ATOM     30  N   UNL     1       0.160   9.177  22.198  0.00  0.00    +0.000 N 
ATOM     31  O   UNL     1       0.730   9.915  23.024  0.00  0.00    +0.000 OA
ATOM     32  O   UNL     1      -0.805   8.443  22.455  0.00  0.00    +0.000 OA
ENDBRANCH  28  30
ENDBRANCH  21  24
ENDBRANCH  19  21
ENDBRANCH   6  19
TORSDOF 8
ENDMDL
MODEL 2
REMARK VINA RESULT:      -8.1      1.214      2.825
REMARK  Name = 
REMARK  10 active torsions:
REMARK  status: ('A' for Active; 'I' for Inactive)
REMARK    1  A    between atoms: C_1  and  O_2
REMARK    2  A    between atoms: O_2  and  C_3
REMARK    3  A    between atoms: C_6  and  O_7
REMARK    4  A    between atoms: O_7  and  C_8
REMARK    5  A    between atoms: C_9  and  N_10
REMARK    6  A    between atoms: N_10  and  C_11
REMARK    7  A    between atoms: C_16  and  N_17
REMARK    8  A    between atoms: N_17  and  S_18
REMARK    9  A    between atoms: S_18  and  C_21
REMARK   10  A    between atoms: C_25  and  N_26
REMARK                            x       y       z     vdW  Elec       q    Type
REMARK                         _______ _______ _______ _____ _____    ______ ____
ROOT
ATOM      1  C   UNL     1       2.826   3.318  17.600  0.00  0.00    +0.000 A 
ATOM      2  N   UNL     1       2.792   2.034  18.035  0.00  0.00    +0.000 NA
ATOM      3  C   UNL     1       1.913   1.740  19.022  0.00  0.00    +0.000 A 
ATOM      4  C   UNL     1       1.111   2.697  19.615  0.00  0.00    +0.000 A 
ATOM      5  N   UNL     1       1.151   3.998  19.259  0.00  0.00    +0.000 NA
ATOM      6  C   UNL     1       2.001   4.277  18.246  0.00  0.00    +0.000 A 
ENDROOT
BRANCH   1   7
ATOM      7  N   UNL     1       3.589   3.657  16.456  0.00  0.00    +0.000 N 
ATOM      8  H   UNL     1       3.008   4.090  15.745  0.00  0.00    +0.000 HD
BRANCH   7  13
ATOM      9  C   UNL     1       7.034   4.519  17.628  0.00  0.00    +0.000 A 
ATOM     10  C   UNL     1       7.696   4.737  16.425  0.00  0.00    +0.000 A 
ATOM     11  C   UNL     1       7.022   4.596  15.215  0.00  0.00    +0.000 A 
ATOM     12  C   UNL     1       5.658   4.268  15.194  0.00  0.00    +0.000 A 
ATOM     13  C   UNL     1       4.968   4.009  16.404  0.00  0.00    +0.000 A 
ATOM     14  C   UNL     1       5.686   4.133  17.615  0.00  0.00    +0.000 A 
BRANCH   9  16
ATOM     15  C   UNL     1       7.461   5.799  19.591  0.00  0.00    +0.000 C 
ATOM     16  O   UNL     1       7.819   4.731  18.728  0.00  0.00    +0.000 OA
ENDBRANCH   9  16
BRANCH  12  17
ATOM     17  O   UNL     1       4.942   4.224  14.020  0.00  0.00    +0.000 OA
ATOM     18  C   UNL     1       5.613   3.624  12.916  0.00  0.00    +0.000 C 
ENDBRANCH  12  17
ENDBRANCH   7  13
ENDBRANCH   1   7
BRANCH   6  19
ATOM     19  N   UNL     1       1.884   5.632  17.869  0.00  0.00    +0.000 N 
ATOM     20  H   UNL     1       0.928   5.971  17.935  0.00  0.00    +0.000 HD
BRANCH  19  21
ATOM     21  S   UNL     1       2.993   6.719  18.473  0.00  0.00    +0.000 S 
ATOM     22  O   UNL     1       3.663   6.081  19.588  0.00  0.00    +0.000 OA
ATOM     23  O   UNL     1       3.744   7.208  17.336  0.00  0.00    +0.000 OA
BRANCH  21  24
ATOM     24  C   UNL     1       2.092   8.136  19.102  0.00  0.00    +0.000 A 
ATOM     25  C   UNL     1       1.752   9.173  18.221  0.00  0.00    +0.000 A 
ATOM     26  C   UNL     1       0.903  10.203  18.636  0.00  0.00    +0.000 A 
ATOM     27  C   UNL     1       0.386  10.206  19.930  0.00  0.00    +0.000 A 
ATOM     28  C   UNL     1       0.718   9.165  20.811  0.00  0.00    +0.000 A 
ATOM     29  C   UNL     1       1.568   8.119  20.403  0.00  0.00    +0.000 A 
BRANCH  28  30
ATOM     30  N   UNL     1       0.144   9.167  22.164  0.00  0.00    +0.000 N 
ATOM     31  O   UNL     1      -0.822   8.412  22.382  0.00  0.00    +0.000 OA
ATOM     32  O   UNL     1       0.653   9.923  23.004  0.00  0.00    +0.000 OA
ENDBRANCH  28  30
ENDBRANCH  21  24
ENDBRANCH  19  21
ENDBRANCH   6  19
TORSDOF 8
ENDMDL
MODEL 3
REMARK VINA RESULT:      -7.8      1.462      1.695
REMARK  Name = 
REMARK  10 active torsions:
REMARK  status: ('A' for Active; 'I' for Inactive)
REMARK    1  A    between atoms: C_1  and  O_2
REMARK    2  A    between atoms: O_2  and  C_3
REMARK    3  A    between atoms: C_6  and  O_7
REMARK    4  A    between atoms: O_7  and  C_8
REMARK    5  A    between atoms: C_9  and  N_10
REMARK    6  A    between atoms: N_10  and  C_11
REMARK    7  A    between atoms: C_16  and  N_17
REMARK    8  A    between atoms: N_17  and  S_18
REMARK    9  A    between atoms: S_18  and  C_21
REMARK   10  A    between atoms: C_25  and  N_26
REMARK                            x       y       z     vdW  Elec       q    Type
REMARK                         _______ _______ _______ _____ _____    ______ ____
ROOT
ATOM      1  C   UNL     1       3.600   3.377  18.567  0.00  0.00    +0.000 A 
ATOM      2  N   UNL     1       3.600   2.022  18.636  0.00  0.00    +0.000 NA
ATOM      3  C   UNL     1       2.398   1.402  18.600  0.00  0.00    +0.000 A 
ATOM      4  C   UNL     1       1.202   2.096  18.546  0.00  0.00    +0.000 A 
ATOM      5  N   UNL     1       1.148   3.445  18.536  0.00  0.00    +0.000 NA
ATOM      6  C   UNL     1       2.353   4.056  18.533  0.00  0.00    +0.000 A 
ENDROOT
BRANCH   1   7
ATOM      7  N   UNL     1       4.823   4.077  18.423  0.00  0.00    +0.000 N 
ATOM      8  H   UNL     1       5.378   4.021  19.271  0.00  0.00    +0.000 HD
BRANCH   7  13
ATOM      9  C   UNL     1       5.618   4.265  14.774  0.00  0.00    +0.000 A 
ATOM     10  C   UNL     1       6.957   4.640  14.794  0.00  0.00    +0.000 A 
ATOM     11  C   UNL     1       7.612   4.843  16.006  0.00  0.00    +0.000 A 
ATOM     12  C   UNL     1       6.942   4.637  17.222  0.00  0.00    +0.000 A 
ATOM     13  C   UNL     1       5.569   4.287  17.228  0.00  0.00    +0.000 A 
ATOM     14  C   UNL     1       4.923   4.115  15.982  0.00  0.00    +0.000 A 
BRANCH   9  16
ATOM     15  C   UNL     1       5.974   3.430  12.573  0.00  0.00    +0.000 C 
ATOM     16  O   UNL     1       5.127   4.070  13.512  0.00  0.00    +0.000 OA
ENDBRANCH   9  16
BRANCH  12  17
ATOM     17  O   UNL     1       7.591   4.727  18.431  0.00  0.00    +0.000 OA
ATOM     18  C   UNL     1       7.736   6.046  18.950  0.00  0.00    +0.000 C 
ENDBRANCH  12  17
ENDBRANCH   7  13
ENDBRANCH   1   7
BRANCH   6  19
ATOM     19  N   UNL     1       2.193   5.451  18.402  0.00  0.00    +0.000 N 
ATOM     20  H   UNL     1       1.301   5.702  17.983  0.00  0.00    +0.000 HD
BRANCH  19  21
ATOM     21  S   UNL     1       2.585   6.418  19.701  0.00  0.00    +0.000 S 
ATOM     22  O   UNL     1       1.920   5.868  20.866  0.00  0.00    +0.000 OA
ATOM     23  O   UNL     1       4.023   6.577  19.673  0.00  0.00    +0.000 OA
BRANCH  21  24
ATOM     24  C   UNL     1       1.912   8.052  19.398  0.00  0.00    +0.000 A 
ATOM     25  C   UNL     1       1.858   8.532  18.080  0.00  0.00    +0.000 A 
ATOM     26  C   UNL     1       1.184   9.722  17.789  0.00  0.00    +0.000 A 
ATOM     27  C   UNL     1       0.557  10.439  18.807  0.00  0.00    +0.000 A 
ATOM     28  C   UNL     1       0.603   9.957  20.124  0.00  0.00    +0.000 A 
ATOM     29  C   UNL     1       1.275   8.757  20.430  0.00  0.00    +0.000 A 
BRANCH  28  30
ATOM     30  N   UNL     1      -0.084  10.710  21.182  0.00  0.00    +0.000 N 
ATOM     31  O   UNL     1      -1.105  11.350  20.864  0.00  0.00    +0.000 OA
ATOM     32  O   UNL     1       0.395  10.667  22.324  0.00  0.00    +0.000 OA
ENDBRANCH  28  30
ENDBRANCH  21  24
ENDBRANCH  19  21
ENDBRANCH   6  19
TORSDOF 8
ENDMDL
MODEL 4
REMARK VINA RESULT:      -7.8      1.563      1.801
REMARK  Name = 
REMARK  10 active torsions:
REMARK  status: ('A' for Active; 'I' for Inactive)
REMARK    1  A    between atoms: C_1  and  O_2
REMARK    2  A    between atoms: O_2  and  C_3
REMARK    3  A    between atoms: C_6  and  O_7
REMARK    4  A    between atoms: O_7  and  C_8
REMARK    5  A    between atoms: C_9  and  N_10
REMARK    6  A    between atoms: N_10  and  C_11
REMARK    7  A    between atoms: C_16  and  N_17
REMARK    8  A    between atoms: N_17  and  S_18
REMARK    9  A    between atoms: S_18  and  C_21
REMARK   10  A    between atoms: C_25  and  N_26
REMARK                            x       y       z     vdW  Elec       q    Type
REMARK                         _______ _______ _______ _____ _____    ______ ____
ROOT
ATOM      1  C   UNL     1       3.624   3.367  19.440  0.00  0.00    +0.000 A 
ATOM      2  N   UNL     1       2.989   2.167  19.450  0.00  0.00    +0.000 NA
ATOM      3  C   UNL     1       1.672   2.169  19.761  0.00  0.00    +0.000 A 
ATOM      4  C   UNL     1       0.989   3.320  20.108  0.00  0.00    +0.000 A 
ATOM      5  N   UNL     1       1.590   4.527  20.171  0.00  0.00    +0.000 NA
ATOM      6  C   UNL     1       2.895   4.524  19.820  0.00  0.00    +0.000 A 
ENDROOT
BRANCH   1   7
ATOM      7  N   UNL     1       4.951   3.460  18.953  0.00  0.00    +0.000 N 
ATOM      8  H   UNL     1       5.474   2.614  19.158  0.00  0.00    +0.000 HD
BRANCH   7  13
ATOM      9  C   UNL     1       5.500   4.435  15.386  0.00  0.00    +0.000 A 
ATOM     10  C   UNL     1       6.303   5.563  15.521  0.00  0.00    +0.000 A 
ATOM     11  C   UNL     1       6.666   6.021  16.784  0.00  0.00    +0.000 A 
ATOM     12  C   UNL     1       6.259   5.331  17.937  0.00  0.00    +0.000 A 
ATOM     13  C   UNL     1       5.414   4.198  17.827  0.00  0.00    +0.000 A 
ATOM     14  C   UNL     1       5.039   3.774  16.532  0.00  0.00    +0.000 A 
BRANCH   9  16
ATOM     15  C   UNL     1       6.384   3.871  13.248  0.00  0.00    +0.000 C 
ATOM     16  O   UNL     1       5.260   4.091  14.084  0.00  0.00    +0.000 OA
ENDBRANCH   9  16
BRANCH  12  17
ATOM     17  O   UNL     1       6.689   5.698  19.191  0.00  0.00    +0.000 OA
ATOM     18  C   UNL     1       8.101   5.797  19.348  0.00  0.00    +0.000 C 
ENDBRANCH  12  17
ENDBRANCH   7  13
ENDBRANCH   1   7
BRANCH   6  19
ATOM     19  N   UNL     1       3.399   5.842  19.802  0.00  0.00    +0.000 N 
ATOM     20  H   UNL     1       4.412   5.871  19.879  0.00  0.00    +0.000 HD
BRANCH  19  21
ATOM     21  S   UNL     1       2.813   6.898  18.653  0.00  0.00    +0.000 S 
ATOM     22  O   UNL     1       3.950   7.593  18.085  0.00  0.00    +0.000 OA
ATOM     23  O   UNL     1       1.917   6.130  17.815  0.00  0.00    +0.000 OA
BRANCH  21  24
ATOM     24  C   UNL     1       1.782   8.104  19.486  0.00  0.00    +0.000 A 
ATOM     25  C   UNL     1       1.540   7.962  20.861  0.00  0.00    +0.000 A 
ATOM     26  C   UNL     1       0.890   8.974  21.573  0.00  0.00    +0.000 A 
ATOM     27  C   UNL     1       0.478  10.135  20.921  0.00  0.00    +0.000 A 
ATOM     28  C   UNL     1       0.724  10.283  19.548  0.00  0.00    +0.000 A 
ATOM     29  C   UNL     1       1.383   9.274  18.820  0.00  0.00    +0.000 A 
BRANCH  28  30
ATOM     30  N   UNL     1       0.307  11.524  18.879  0.00  0.00    +0.000 N 
ATOM     31  O   UNL     1       1.202  12.292  18.478  0.00  0.00    +0.000 OA
ATOM     32  O   UNL     1      -0.909  11.733  18.758  0.00  0.00    +0.000 OA
ENDBRANCH  28  30
ENDBRANCH  21  24
ENDBRANCH  19  21
ENDBRANCH   6  19
TORSDOF 8
ENDMDL
MODEL 5
REMARK VINA RESULT:      -7.7      1.946      3.319
REMARK  Name = 
REMARK  10 active torsions:
REMARK  status: ('A' for Active; 'I' for Inactive)
REMARK    1  A    between atoms: C_1  and  O_2
REMARK    2  A    between atoms: O_2  and  C_3
REMARK    3  A    between atoms: C_6  and  O_7
REMARK    4  A    between atoms: O_7  and  C_8
REMARK    5  A    between atoms: C_9  and  N_10
REMARK    6  A    between atoms: N_10  and  C_11
REMARK    7  A    between atoms: C_16  and  N_17
REMARK    8  A    between atoms: N_17  and  S_18
REMARK    9  A    between atoms: S_18  and  C_21
REMARK   10  A    between atoms: C_25  and  N_26
REMARK                            x       y       z     vdW  Elec       q    Type
REMARK                         _______ _______ _______ _____ _____    ______ ____
ROOT
ATOM      1  C   UNL     1       2.815   3.303  17.563  0.00  0.00    +0.000 A 
ATOM      2  N   UNL     1       2.748   2.014  17.979  0.00  0.00    +0.000 NA
ATOM      3  C   UNL     1       1.852   1.724  18.952  0.00  0.00    +0.000 A 
ATOM      4  C   UNL     1       1.064   2.691  19.551  0.00  0.00    +0.000 A 
ATOM      5  N   UNL     1       1.137   3.995  19.214  0.00  0.00    +0.000 NA
ATOM      6  C   UNL     1       2.004   4.270  18.215  0.00  0.00    +0.000 A 
ENDROOT
BRANCH   1   7
ATOM      7  N   UNL     1       3.598   3.641  16.433  0.00  0.00    +0.000 N 
ATOM      8  H   UNL     1       3.028   4.066  15.708  0.00  0.00    +0.000 HD
BRANCH   7  13
ATOM      9  C   UNL     1       7.011   4.542  17.668  0.00  0.00    +0.000 A 
ATOM     10  C   UNL     1       7.696   4.755  16.477  0.00  0.00    +0.000 A 
ATOM     11  C   UNL     1       7.048   4.597  15.255  0.00  0.00    +0.000 A 
ATOM     12  C   UNL     1       5.687   4.258  15.208  0.00  0.00    +0.000 A 
ATOM     13  C   UNL     1       4.975   4.004  16.406  0.00  0.00    +0.000 A 
ATOM     14  C   UNL     1       5.667   4.145  17.631  0.00  0.00    +0.000 A 
BRANCH   9  16
ATOM     15  C   UNL     1       7.828   6.100  19.273  0.00  0.00    +0.000 C 
ATOM     16  O   UNL     1       7.771   4.770  18.781  0.00  0.00    +0.000 OA
ENDBRANCH   9  16
BRANCH  12  17
ATOM     17  O   UNL     1       4.996   4.198  14.020  0.00  0.00    +0.000 OA
ATOM     18  C   UNL     1       5.718   3.652  12.920  0.00  0.00    +0.000 C 
ENDBRANCH  12  17
ENDBRANCH   7  13
ENDBRANCH   1   7
BRANCH   6  19
ATOM     19  N   UNL     1       1.921   5.633  17.857  0.00  0.00    +0.000 N 
ATOM     20  H   UNL     1       0.961   5.961  17.801  0.00  0.00    +0.000 HD
BRANCH  19  21
ATOM     21  S   UNL     1       2.924   6.716  18.629  0.00  0.00    +0.000 S 
ATOM     22  O   UNL     1       3.645   5.986  19.652  0.00  0.00    +0.000 OA
ATOM     23  O   UNL     1       3.633   7.429  17.587  0.00  0.00    +0.000 OA
BRANCH  21  24
ATOM     24  C   UNL     1       1.897   7.941  19.439  0.00  0.00    +0.000 A 
ATOM     25  C   UNL     1       1.574   7.771  20.794  0.00  0.00    +0.000 A 
ATOM     26  C   UNL     1       0.925   8.788  21.499  0.00  0.00    +0.000 A 
ATOM     27  C   UNL     1       0.597   9.983  20.861  0.00  0.00    +0.000 A 
ATOM     28  C   UNL     1       0.925  10.159  19.508  0.00  0.00    +0.000 A 
ATOM     29  C   UNL     1       1.584   9.144  18.788  0.00  0.00    +0.000 A 
BRANCH  28  30
ATOM     30  N   UNL     1       0.596  11.434  18.856  0.00  0.00    +0.000 N 
ATOM     31  O   UNL     1      -0.610  11.717  18.717  0.00  0.00    +0.000 OA
ATOM     32  O   UNL     1       1.536  12.149  18.480  0.00  0.00    +0.000 OA
ENDBRANCH  28  30
ENDBRANCH  21  24
ENDBRANCH  19  21
ENDBRANCH   6  19
TORSDOF 8
ENDMDL
MODEL 6
REMARK VINA RESULT:      -7.6      1.149      2.472
REMARK  Name = 
REMARK  10 active torsions:
REMARK  status: ('A' for Active; 'I' for Inactive)
REMARK    1  A    between atoms: C_1  and  O_2
REMARK    2  A    between atoms: O_2  and  C_3
REMARK    3  A    between atoms: C_6  and  O_7
REMARK    4  A    between atoms: O_7  and  C_8
REMARK    5  A    between atoms: C_9  and  N_10
REMARK    6  A    between atoms: N_10  and  C_11
REMARK    7  A    between atoms: C_16  and  N_17
REMARK    8  A    between atoms: N_17  and  S_18
REMARK    9  A    between atoms: S_18  and  C_21
REMARK   10  A    between atoms: C_25  and  N_26
REMARK                            x       y       z     vdW  Elec       q    Type
REMARK                         _______ _______ _______ _____ _____    ______ ____
ROOT
ATOM      1  C   UNL     1       4.222   3.464  19.498  0.00  0.00    +0.000 A 
ATOM      2  N   UNL     1       3.796   2.178  19.432  0.00  0.00    +0.000 NA
ATOM      3  C   UNL     1       2.461   1.973  19.341  0.00  0.00    +0.000 A 
ATOM      4  C   UNL     1       1.545   3.009  19.365  0.00  0.00    +0.000 A 
ATOM      5  N   UNL     1       1.916   4.301  19.490  0.00  0.00    +0.000 NA
ATOM      6  C   UNL     1       3.252   4.500  19.540  0.00  0.00    +0.000 A 
ENDROOT
BRANCH   1   7
ATOM      7  N   UNL     1       5.606   3.756  19.416  0.00  0.00    +0.000 N 
ATOM      8  H   UNL     1       6.164   2.950  19.682  0.00  0.00    +0.000 HD
BRANCH   7  13
ATOM      9  C   UNL     1       7.629   6.687  18.278  0.00  0.00    +0.000 A 
ATOM     10  C   UNL     1       7.542   6.572  16.894  0.00  0.00    +0.000 A 
ATOM     11  C   UNL     1       6.824   5.526  16.320  0.00  0.00    +0.000 A 
ATOM     12  C   UNL     1       6.150   4.596  17.126  0.00  0.00    +0.000 A 
ATOM     13  C   UNL     1       6.250   4.673  18.538  0.00  0.00    +0.000 A 
ATOM     14  C   UNL     1       7.009   5.728  19.092  0.00  0.00    +0.000 A 
BRANCH   9  16
ATOM     15  C   UNL     1       8.221   8.964  17.913  0.00  0.00    +0.000 C 
ATOM     16  O   UNL     1       8.337   7.782  18.689  0.00  0.00    +0.000 OA
ENDBRANCH   9  16
BRANCH  12  17
ATOM     17  O   UNL     1       5.348   3.617  16.587  0.00  0.00    +0.000 OA
ATOM     18  C   UNL     1       4.209   4.084  15.872  0.00  0.00    +0.000 C 
ENDBRANCH  12  17
ENDBRANCH   7  13
ENDBRANCH   1   7
BRANCH   6  19
ATOM     19  N   UNL     1       3.540   5.881  19.549  0.00  0.00    +0.000 N 
ATOM     20  H   UNL     1       4.514   6.073  19.766  0.00  0.00    +0.000 HD
BRANCH  19  21
ATOM     21  S   UNL     1       2.968   6.817  18.294  0.00  0.00    +0.000 S 
ATOM     22  O   UNL     1       4.118   7.366  17.605  0.00  0.00    +0.000 OA
ATOM     23  O   UNL     1       1.998   6.006  17.590  0.00  0.00    +0.000 OA
BRANCH  21  24
ATOM     24  C   UNL     1       2.039   8.179  18.998  0.00  0.00    +0.000 A 
ATOM     25  C   UNL     1       1.482   9.140  18.141  0.00  0.00    +0.000 A 
ATOM     26  C   UNL     1       0.610  10.111  18.639  0.00  0.00    +0.000 A 
ATOM     27  C   UNL     1       0.284  10.131  19.995  0.00  0.00    +0.000 A 
ATOM     28  C   UNL     1       0.833   9.167  20.853  0.00  0.00    +0.000 A 
ATOM     29  C   UNL     1       1.709   8.179  20.362  0.00  0.00    +0.000 A 
BRANCH  28  30
ATOM     30  N   UNL     1       0.460   9.184  22.275  0.00  0.00    +0.000 N 
ATOM     31  O   UNL     1       1.323   9.555  23.093  0.00  0.00    +0.000 OA
ATOM     32  O   UNL     1      -0.688   8.824  22.573  0.00  0.00    +0.000 OA
ENDBRANCH  28  30
ENDBRANCH  21  24
ENDBRANCH  19  21
ENDBRANCH   6  19
TORSDOF 8
ENDMDL
MODEL 7
REMARK VINA RESULT:      -7.6      1.807      6.457
REMARK  Name = 
REMARK  10 active torsions:
REMARK  status: ('A' for Active; 'I' for Inactive)
REMARK    1  A    between atoms: C_1  and  O_2
REMARK    2  A    between atoms: O_2  and  C_3
REMARK    3  A    between atoms: C_6  and  O_7
REMARK    4  A    between atoms: O_7  and  C_8
REMARK    5  A    between atoms: C_9  and  N_10
REMARK    6  A    between atoms: N_10  and  C_11
REMARK    7  A    between atoms: C_16  and  N_17
REMARK    8  A    between atoms: N_17  and  S_18
REMARK    9  A    between atoms: S_18  and  C_21
REMARK   10  A    between atoms: C_25  and  N_26
REMARK                            x       y       z     vdW  Elec       q    Type
REMARK                         _______ _______ _______ _____ _____    ______ ____
ROOT
ATOM      1  C   UNL     1       2.398   4.857  20.465  0.00  0.00    +0.000 A 
ATOM      2  N   UNL     1       2.224   4.445  21.746  0.00  0.00    +0.000 NA
ATOM      3  C   UNL     1       1.849   3.158  21.935  0.00  0.00    +0.000 A 
ATOM      4  C   UNL     1       1.598   2.293  20.886  0.00  0.00    +0.000 A 
ATOM      5  N   UNL     1       1.700   2.672  19.595  0.00  0.00    +0.000 NA
ATOM      6  C   UNL     1       2.112   3.946  19.414  0.00  0.00    +0.000 A 
ENDROOT
BRANCH   1   7
ATOM      7  N   UNL     1       2.958   6.131  20.202  0.00  0.00    +0.000 N 
ATOM      8  H   UNL     1       3.897   6.046  19.825  0.00  0.00    +0.000 HD
BRANCH   7  13
ATOM      9  C   UNL     1       0.815   9.177  20.537  0.00  0.00    +0.000 A 
ATOM     10  C   UNL     1       0.839   9.684  19.242  0.00  0.00    +0.000 A 
ATOM     11  C   UNL     1       1.565   9.036  18.247  0.00  0.00    +0.000 A 
ATOM     12  C   UNL     1       2.252   7.844  18.526  0.00  0.00    +0.000 A 
ATOM     13  C   UNL     1       2.270   7.325  19.844  0.00  0.00    +0.000 A 
ATOM     14  C   UNL     1       1.547   8.020  20.840  0.00  0.00    +0.000 A 
BRANCH   9  16
ATOM     15  C   UNL     1      -0.309   9.307  22.632  0.00  0.00    +0.000 C 
ATOM     16  O   UNL     1       0.032   9.903  21.391  0.00  0.00    +0.000 OA
ENDBRANCH   9  16
BRANCH  12  17
ATOM     17  O   UNL     1       2.889   7.127  17.540  0.00  0.00    +0.000 OA
ATOM     18  C   UNL     1       4.136   7.660  17.105  0.00  0.00    +0.000 C 
ENDBRANCH  12  17
ENDBRANCH   7  13
ENDBRANCH   1   7
BRANCH   6  19
ATOM     19  N   UNL     1       2.301   4.207  18.040  0.00  0.00    +0.000 N 
ATOM     20  H   UNL     1       2.495   5.188  17.855  0.00  0.00    +0.000 HD
BRANCH  19  21
ATOM     21  S   UNL     1       3.287   3.184  17.168  0.00  0.00    +0.000 S 
ATOM     22  O   UNL     1       3.507   2.002  17.977  0.00  0.00    +0.000 OA
ATOM     23  O   UNL     1       2.703   3.083  15.848  0.00  0.00    +0.000 OA
BRANCH  21  24
ATOM     24  C   UNL     1       4.865   4.002  16.937  0.00  0.00    +0.000 A 
ATOM     25  C   UNL     1       5.295   4.298  15.634  0.00  0.00    +0.000 A 
ATOM     26  C   UNL     1       6.430   5.086  15.427  0.00  0.00    +0.000 A 
ATOM     27  C   UNL     1       7.144   5.587  16.515  0.00  0.00    +0.000 A 
ATOM     28  C   UNL     1       6.713   5.298  17.818  0.00  0.00    +0.000 A 
ATOM     29  C   UNL     1       5.567   4.509  18.041  0.00  0.00    +0.000 A 
BRANCH  28  30
ATOM     30  N   UNL     1       7.461   5.854  18.955  0.00  0.00    +0.000 N 
ATOM     31  O   UNL     1       8.177   6.851  18.742  0.00  0.00    +0.000 OA
ATOM     32  O   UNL     1       7.336   5.295  20.054  0.00  0.00    +0.000 OA
ENDBRANCH  28  30
ENDBRANCH  21  24
ENDBRANCH  19  21
ENDBRANCH   6  19
TORSDOF 8
ENDMDL
MODEL 8
REMARK VINA RESULT:      -7.4      2.108      7.020
REMARK  Name = 
REMARK  10 active torsions:
REMARK  status: ('A' for Active; 'I' for Inactive)
REMARK    1  A    between atoms: C_1  and  O_2
REMARK    2  A    between atoms: O_2  and  C_3
REMARK    3  A    between atoms: C_6  and  O_7
REMARK    4  A    between atoms: O_7  and  C_8
REMARK    5  A    between atoms: C_9  and  N_10
REMARK    6  A    between atoms: N_10  and  C_11
REMARK    7  A    between atoms: C_16  and  N_17
REMARK    8  A    between atoms: N_17  and  S_18
REMARK    9  A    between atoms: S_18  and  C_21
REMARK   10  A    between atoms: C_25  and  N_26
REMARK                            x       y       z     vdW  Elec       q    Type
REMARK                         _______ _______ _______ _____ _____    ______ ____
ROOT
ATOM      1  C   UNL     1       2.398   4.838  20.500  0.00  0.00    +0.000 A 
ATOM      2  N   UNL     1       2.200   4.439  21.782  0.00  0.00    +0.000 NA
ATOM      3  C   UNL     1       1.791   3.163  21.974  0.00  0.00    +0.000 A 
ATOM      4  C   UNL     1       1.529   2.298  20.927  0.00  0.00    +0.000 A 
ATOM      5  N   UNL     1       1.653   2.667  19.635  0.00  0.00    +0.000 NA
ATOM      6  C   UNL     1       2.099   3.929  19.451  0.00  0.00    +0.000 A 
ENDROOT
BRANCH   1   7
ATOM      7  N   UNL     1       2.992   6.096  20.236  0.00  0.00    +0.000 N 
ATOM      8  H   UNL     1       3.969   5.992  19.982  0.00  0.00    +0.000 HD
BRANCH   7  13
ATOM      9  C   UNL     1       0.891   9.188  20.154  0.00  0.00    +0.000 A 
ATOM     10  C   UNL     1       1.028   9.589  18.830  0.00  0.00    +0.000 A 
ATOM     11  C   UNL     1       1.818   8.854  17.951  0.00  0.00    +0.000 A 
ATOM     12  C   UNL     1       2.456   7.679  18.378  0.00  0.00    +0.000 A 
ATOM     13  C   UNL     1       2.359   7.267  19.731  0.00  0.00    +0.000 A 
ATOM     14  C   UNL     1       1.573   8.050  20.606  0.00  0.00    +0.000 A 
BRANCH   9  16
ATOM     15  C   UNL     1      -0.573  11.066  20.203  0.00  0.00    +0.000 C 
ATOM     16  O   UNL     1       0.057   9.992  20.882  0.00  0.00    +0.000 OA
ENDBRANCH   9  16
BRANCH  12  17
ATOM     17  O   UNL     1       3.156   6.877  17.507  0.00  0.00    +0.000 OA
ATOM     18  C   UNL     1       4.457   7.341  17.159  0.00  0.00    +0.000 C 
ENDBRANCH  12  17
ENDBRANCH   7  13
ENDBRANCH   1   7
BRANCH   6  19
ATOM     19  N   UNL     1       2.309   4.178  18.078  0.00  0.00    +0.000 N 
ATOM     20  H   UNL     1       2.551   5.147  17.893  0.00  0.00    +0.000 HD
BRANCH  19  21
ATOM     21  S   UNL     1       3.248   3.106  17.214  0.00  0.00    +0.000 S 
ATOM     22  O   UNL     1       3.487   1.958  18.064  0.00  0.00    +0.000 OA
ATOM     23  O   UNL     1       2.611   2.955  15.924  0.00  0.00    +0.000 OA
BRANCH  21  24
ATOM     24  C   UNL     1       4.824   3.893  16.886  0.00  0.00    +0.000 A 
ATOM     25  C   UNL     1       5.700   4.139  17.955  0.00  0.00    +0.000 A 
ATOM     26  C   UNL     1       7.001   4.588  17.714  0.00  0.00    +0.000 A 
ATOM     27  C   UNL     1       7.441   4.792  16.407  0.00  0.00    +0.000 A 
ATOM     28  C   UNL     1       6.571   4.540  15.336  0.00  0.00    +0.000 A 
ATOM     29  C   UNL     1       5.259   4.082  15.565  0.00  0.00    +0.000 A 
BRANCH  28  30
ATOM     30  N   UNL     1       7.058   4.735  13.963  0.00  0.00    +0.000 N 
ATOM     31  O   UNL     1       7.874   5.655  13.765  0.00  0.00    +0.000 OA
ATOM     32  O   UNL     1       6.624   3.975  13.085  0.00  0.00    +0.000 OA
ENDBRANCH  28  30
ENDBRANCH  21  24
ENDBRANCH  19  21
ENDBRANCH   6  19
TORSDOF 8
ENDMDL
MODEL 9
REMARK VINA RESULT:      -7.4      2.006      2.963
REMARK  Name = 
REMARK  10 active torsions:
REMARK  status: ('A' for Active; 'I' for Inactive)
REMARK    1  A    between atoms: C_1  and  O_2
REMARK    2  A    between atoms: O_2  and  C_3
REMARK    3  A    between atoms: C_6  and  O_7
REMARK    4  A    between atoms: O_7  and  C_8
REMARK    5  A    between atoms: C_9  and  N_10
REMARK    6  A    between atoms: N_10  and  C_11
REMARK    7  A    between atoms: C_16  and  N_17
REMARK    8  A    between atoms: N_17  and  S_18
REMARK    9  A    between atoms: S_18  and  C_21
REMARK   10  A    between atoms: C_25  and  N_26
REMARK                            x       y       z     vdW  Elec       q    Type
REMARK                         _______ _______ _______ _____ _____    ______ ____
ROOT
ATOM      1  C   UNL     1       3.866   3.739  19.994  0.00  0.00    +0.000 A 
ATOM      2  N   UNL     1       3.328   2.524  20.273  0.00  0.00    +0.000 NA
ATOM      3  C   UNL     1       2.029   2.496  20.651  0.00  0.00    +0.000 A 
ATOM      4  C   UNL     1       1.273   3.644  20.806  0.00  0.00    +0.000 A 
ATOM      5  N   UNL     1       1.779   4.878  20.600  0.00  0.00    +0.000 NA
ATOM      6  C   UNL     1       3.065   4.896  20.184  0.00  0.00    +0.000 A 
ENDROOT
BRANCH   1   7
ATOM      7  N   UNL     1       5.159   3.825  19.425  0.00  0.00    +0.000 N 
ATOM      8  H   UNL     1       5.767   3.096  19.787  0.00  0.00    +0.000 HD
BRANCH   7  13
ATOM      9  C   UNL     1       6.797   5.926  16.800  0.00  0.00    +0.000 A 
ATOM     10  C   UNL     1       6.255   5.396  15.634  0.00  0.00    +0.000 A 
ATOM     11  C   UNL     1       5.352   4.338  15.696  0.00  0.00    +0.000 A 
ATOM     12  C   UNL     1       4.948   3.816  16.935  0.00  0.00    +0.000 A 
ATOM     13  C   UNL     1       5.511   4.317  18.136  0.00  0.00    +0.000 A 
ATOM     14  C   UNL     1       6.446   5.372  18.040  0.00  0.00    +0.000 A 
BRANCH   9  16
ATOM     15  C   UNL     1       7.721   7.974  17.588  0.00  0.00    +0.000 C 
ATOM     16  O   UNL     1       7.638   6.981  16.579  0.00  0.00    +0.000 OA
ENDBRANCH   9  16
BRANCH  12  17
ATOM     17  O   UNL     1       3.980   2.843  17.030  0.00  0.00    +0.000 OA
ATOM     18  C   UNL     1       2.643   3.290  16.830  0.00  0.00    +0.000 C 
ENDBRANCH  12  17
ENDBRANCH   7  13
ENDBRANCH   1   7
BRANCH   6  19
ATOM     19  N   UNL     1       3.462   6.216  19.882  0.00  0.00    +0.000 N 
ATOM     20  H   UNL     1       4.473   6.321  19.860  0.00  0.00    +0.000 HD
BRANCH  19  21
ATOM     21  S   UNL     1       2.709   6.999  18.619  0.00  0.00    +0.000 S 
ATOM     22  O   UNL     1       3.747   7.542  17.766  0.00  0.00    +0.000 OA
ATOM     23  O   UNL     1       1.725   6.077  18.095  0.00  0.00    +0.000 OA
BRANCH  21  24
ATOM     24  C   UNL     1       1.774   8.370  19.297  0.00  0.00    +0.000 A 
ATOM     25  C   UNL     1       1.269   8.271  20.602  0.00  0.00    +0.000 A 
ATOM     26  C   UNL     1       0.689   9.381  21.222  0.00  0.00    +0.000 A 
ATOM     27  C   UNL     1       0.612  10.599  20.548  0.00  0.00    +0.000 A 
ATOM     28  C   UNL     1       1.124  10.703  19.246  0.00  0.00    +0.000 A 
ATOM     29  C   UNL     1       1.715   9.593  18.612  0.00  0.00    +0.000 A 
BRANCH  28  30
ATOM     30  N   UNL     1       1.059  12.000  18.557  0.00  0.00    +0.000 N 
ATOM     31  O   UNL     1       2.122  12.465  18.102  0.00  0.00    +0.000 OA
ATOM     32  O   UNL     1      -0.046  12.554  18.475  0.00  0.00    +0.000 OA
ENDBRANCH  28  30
ENDBRANCH  21  24
ENDBRANCH  19  21
ENDBRANCH   6  19
TORSDOF 8
ENDMDL
