MODEL 1
REMARK VINA RESULT:      -7.9      0.000      0.000
REMARK  Name = 
REMARK  6 active torsions:
REMARK  status: ('A' for Active; 'I' for Inactive)
REMARK    1  A    between atoms: C_1  and  S_2
REMARK    2  A    between atoms: S_2  and  C_3
REMARK    3  A    between atoms: C_3  and  N_4
REMARK    4  A    between atoms: N_4  and  C_5
REMARK    5  A    between atoms: N_14  and  C_15
REMARK    6  A    between atoms: C_22  and  C_23
REMARK                            x       y       z     vdW  Elec       q    Type
REMARK                         _______ _______ _______ _____ _____    ______ ____
ROOT
ATOM      1  C   UNL     1       3.733   4.490  18.510  0.00  0.00    +0.000 C 
ATOM      2  C   UNL     1       2.874   5.195  19.277  0.00  0.00    +0.000 C 
ATOM      3  C   UNL     1       2.518   6.605  18.961  0.00  0.00    +0.000 C 
ATOM      4  O   UNL     1       2.681   7.176  17.897  0.00  0.00    +0.000 OA
ATOM      5  N   UNL     1       1.874   7.037  20.127  0.00  0.00    +0.000 N 
ATOM      6  N   UNL     1       1.618   6.019  21.040  0.00  0.00    +0.000 NA
ATOM      7  C   UNL     1       2.139   4.931  20.534  0.00  0.00    +0.000 C 
ATOM      8  C   UNL     1       1.970   3.603  21.198  0.00  0.00    +0.000 C 
ENDROOT
BRANCH   5   9
ATOM      9  C   UNL     1       1.383   8.338  20.390  0.00  0.00    +0.000 A 
ATOM     10  C   UNL     1       1.221   9.283  19.367  0.00  0.00    +0.000 A 
ATOM     11  C   UNL     1       0.734  10.562  19.636  0.00  0.00    +0.000 A 
ATOM     12  C   UNL     1       0.422  10.929  20.940  0.00  0.00    +0.000 A 
ATOM     13  C   UNL     1       0.594  10.013  21.975  0.00  0.00    +0.000 A 
ATOM     14  C   UNL     1       1.066   8.724  21.699  0.00  0.00    +0.000 A 
ENDBRANCH   5   9
BRANCH   1  16
ATOM     15  C   UNL     1       2.511   2.184  17.773  0.00  0.00    +0.000 C 
ATOM     16  S   UNL     1       3.921   2.755  18.757  0.00  0.00    +0.000 S 
ENDBRANCH   1  16
BRANCH   1  17
ATOM     17  N   UNL     1       4.516   5.067  17.503  0.00  0.00    +0.000 N 
ATOM     18  H   UNL     1       4.701   4.375  16.778  0.00  0.00    +0.000 HD
BRANCH  17  19
ATOM     19  C   UNL     1       5.766   5.705  17.779  0.00  0.00    +0.000 A 
ATOM     20  C   UNL     1       6.183   6.883  17.138  0.00  0.00    +0.000 A 
ATOM     21  C   UNL     1       7.366   7.524  17.518  0.00  0.00    +0.000 A 
ATOM     22  C   UNL     1       8.146   7.003  18.548  0.00  0.00    +0.000 A 
ATOM     23  C   UNL     1       7.746   5.834  19.193  0.00  0.00    +0.000 A 
ATOM     24  C   UNL     1       6.560   5.196  18.814  0.00  0.00    +0.000 A 
ENDBRANCH  17  19
ENDBRANCH   1  17
TORSDOF 4
ENDMDL
MODEL 2
REMARK VINA RESULT:      -7.9      1.542      2.220
REMARK  Name = 
REMARK  6 active torsions:
REMARK  status: ('A' for Active; 'I' for Inactive)
REMARK    1  A    between atoms: C_1  and  S_2
REMARK    2  A    between atoms: S_2  and  C_3
REMARK    3  A    between atoms: C_3  and  N_4
REMARK    4  A    between atoms: N_4  and  C_5
REMARK    5  A    between atoms: N_14  and  C_15
REMARK    6  A    between atoms: C_22  and  C_23
REMARK                            x       y       z     vdW  Elec       q    Type
REMARK                         _______ _______ _______ _____ _____    ______ ____
ROOT
ATOM      1  C   UNL     1       4.406   3.924  19.459  0.00  0.00    +0.000 C 
ATOM      2  C   UNL     1       3.339   4.701  19.744  0.00  0.00    +0.000 C 
ATOM      3  C   UNL     1       3.256   6.115  19.285  0.00  0.00    +0.000 C 
ATOM      4  O   UNL     1       3.918   6.634  18.405  0.00  0.00    +0.000 OA
ATOM      5  N   UNL     1       2.182   6.624  20.027  0.00  0.00    +0.000 N 
ATOM      6  N   UNL     1       1.477   5.656  20.736  0.00  0.00    +0.000 NA
ATOM      7  C   UNL     1       2.100   4.524  20.533  0.00  0.00    +0.000 C 
ATOM      8  C   UNL     1       1.565   3.233  21.063  0.00  0.00    +0.000 C 
ENDROOT
BRANCH   5   9
ATOM      9  C   UNL     1       1.709   7.957  20.024  0.00  0.00    +0.000 A 
ATOM     10  C   UNL     1       1.248   8.576  21.196  0.00  0.00    +0.000 A 
ATOM     11  C   UNL     1       0.784   9.892  21.184  0.00  0.00    +0.000 A 
ATOM     12  C   UNL     1       0.751  10.608  19.992  0.00  0.00    +0.000 A 
ATOM     13  C   UNL     1       1.186  10.006  18.813  0.00  0.00    +0.000 A 
ATOM     14  C   UNL     1       1.667   8.691  18.832  0.00  0.00    +0.000 A 
ENDBRANCH   5   9
BRANCH   1  16
ATOM     15  C   UNL     1       3.365   1.676  18.354  0.00  0.00    +0.000 C 
ATOM     16  S   UNL     1       4.351   2.192  19.784  0.00  0.00    +0.000 S 
ENDBRANCH   1  16
BRANCH   1  17
ATOM     17  N   UNL     1       5.594   4.420  18.911  0.00  0.00    +0.000 N 
ATOM     18  H   UNL     1       5.716   5.393  19.191  0.00  0.00    +0.000 HD
BRANCH  17  19
ATOM     19  C   UNL     1       5.871   4.368  17.509  0.00  0.00    +0.000 A 
ATOM     20  C   UNL     1       4.887   4.108  16.543  0.00  0.00    +0.000 A 
ATOM     21  C   UNL     1       5.188   4.170  15.179  0.00  0.00    +0.000 A 
ATOM     22  C   UNL     1       6.474   4.502  14.760  0.00  0.00    +0.000 A 
ATOM     23  C   UNL     1       7.463   4.761  15.707  0.00  0.00    +0.000 A 
ATOM     24  C   UNL     1       7.159   4.702  17.071  0.00  0.00    +0.000 A 
ENDBRANCH  17  19
ENDBRANCH   1  17
TORSDOF 4
ENDMDL
MODEL 3
REMARK VINA RESULT:      -7.9      0.074      1.006
REMARK  Name = 
REMARK  6 active torsions:
REMARK  status: ('A' for Active; 'I' for Inactive)
REMARK    1  A    between atoms: C_1  and  S_2
REMARK    2  A    between atoms: S_2  and  C_3
REMARK    3  A    between atoms: C_3  and  N_4
REMARK    4  A    between atoms: N_4  and  C_5
REMARK    5  A    between atoms: N_14  and  C_15
REMARK    6  A    between atoms: C_22  and  C_23
REMARK                            x       y       z     vdW  Elec       q    Type
REMARK                         _______ _______ _______ _____ _____    ______ ____
ROOT
ATOM      1  C   UNL     1       3.706   4.540  18.467  0.00  0.00    +0.000 C 
ATOM      2  C   UNL     1       2.852   5.251  19.236  0.00  0.00    +0.000 C 
ATOM      3  C   UNL     1       2.520   6.669  18.931  0.00  0.00    +0.000 C 
ATOM      4  O   UNL     1       2.699   7.247  17.874  0.00  0.00    +0.000 OA
ATOM      5  N   UNL     1       1.876   7.100  20.098  0.00  0.00    +0.000 N 
ATOM      6  N   UNL     1       1.599   6.077  21.000  0.00  0.00    +0.000 NA
ATOM      7  C   UNL     1       2.106   4.986  20.486  0.00  0.00    +0.000 C 
ATOM      8  C   UNL     1       1.913   3.655  21.137  0.00  0.00    +0.000 C 
ENDROOT
BRANCH   5   9
ATOM      9  C   UNL     1       1.403   8.405  20.371  0.00  0.00    +0.000 A 
ATOM     10  C   UNL     1       1.091   8.816  21.675  0.00  0.00    +0.000 A 
ATOM     11  C   UNL     1       0.627  10.106  21.935  0.00  0.00    +0.000 A 
ATOM     12  C   UNL     1       0.444  11.004  20.889  0.00  0.00    +0.000 A 
ATOM     13  C   UNL     1       0.730  10.611  19.583  0.00  0.00    +0.000 A 
ATOM     14  C   UNL     1       1.212   9.321  19.328  0.00  0.00    +0.000 A 
ENDBRANCH   5   9
BRANCH   1  16
ATOM     15  C   UNL     1       2.461   2.259  17.690  0.00  0.00    +0.000 C 
ATOM     16  S   UNL     1       3.865   2.800  18.700  0.00  0.00    +0.000 S 
ENDBRANCH   1  16
BRANCH   1  17
ATOM     17  N   UNL     1       4.503   5.114  17.471  0.00  0.00    +0.000 N 
ATOM     18  H   UNL     1       4.681   4.427  16.740  0.00  0.00    +0.000 HD
BRANCH  17  19
ATOM     19  C   UNL     1       5.762   5.730  17.760  0.00  0.00    +0.000 A 
ATOM     20  C   UNL     1       6.217   6.886  17.107  0.00  0.00    +0.000 A 
ATOM     21  C   UNL     1       7.406   7.507  17.498  0.00  0.00    +0.000 A 
ATOM     22  C   UNL     1       8.154   6.988  18.553  0.00  0.00    +0.000 A 
ATOM     23  C   UNL     1       7.716   5.840  19.210  0.00  0.00    +0.000 A 
ATOM     24  C   UNL     1       6.524   5.222  18.820  0.00  0.00    +0.000 A 
ENDBRANCH  17  19
ENDBRANCH   1  17
TORSDOF 4
ENDMDL
MODEL 4
REMARK VINA RESULT:      -7.9      1.513      1.950
REMARK  Name = 
REMARK  6 active torsions:
REMARK  status: ('A' for Active; 'I' for Inactive)
REMARK    1  A    between atoms: C_1  and  S_2
REMARK    2  A    between atoms: S_2  and  C_3
REMARK    3  A    between atoms: C_3  and  N_4
REMARK    4  A    between atoms: N_4  and  C_5
REMARK    5  A    between atoms: N_14  and  C_15
REMARK    6  A    between atoms: C_22  and  C_23
REMARK                            x       y       z     vdW  Elec       q    Type
REMARK                         _______ _______ _______ _____ _____    ______ ____
ROOT
ATOM      1  C   UNL     1       4.370   3.962  19.470  0.00  0.00    +0.000 C 
ATOM      2  C   UNL     1       3.301   4.730  19.773  0.00  0.00    +0.000 C 
ATOM      3  C   UNL     1       3.207   6.149  19.334  0.00  0.00    +0.000 C 
ATOM      4  O   UNL     1       3.860   6.684  18.456  0.00  0.00    +0.000 OA
ATOM      5  N   UNL     1       2.136   6.642  20.090  0.00  0.00    +0.000 N 
ATOM      6  N   UNL     1       1.440   5.661  20.790  0.00  0.00    +0.000 NA
ATOM      7  C   UNL     1       2.068   4.535  20.568  0.00  0.00    +0.000 C 
ATOM      8  C   UNL     1       1.544   3.234  21.084  0.00  0.00    +0.000 C 
ENDROOT
BRANCH   5   9
ATOM      9  C   UNL     1       1.655   7.973  20.108  0.00  0.00    +0.000 A 
ATOM     10  C   UNL     1       1.583   8.744  18.939  0.00  0.00    +0.000 A 
ATOM     11  C   UNL     1       1.106  10.055  18.966  0.00  0.00    +0.000 A 
ATOM     12  C   UNL     1       0.712  10.628  20.170  0.00  0.00    +0.000 A 
ATOM     13  C   UNL     1       0.793   9.886  21.347  0.00  0.00    +0.000 A 
ATOM     14  C   UNL     1       1.256   8.565  21.313  0.00  0.00    +0.000 A 
ENDBRANCH   5   9
BRANCH   1  16
ATOM     15  C   UNL     1       3.320   1.726  18.351  0.00  0.00    +0.000 C 
ATOM     16  S   UNL     1       4.327   2.226  19.772  0.00  0.00    +0.000 S 
ENDBRANCH   1  16
BRANCH   1  17
ATOM     17  N   UNL     1       5.552   4.473  18.921  0.00  0.00    +0.000 N 
ATOM     18  H   UNL     1       5.656   5.450  19.190  0.00  0.00    +0.000 HD
BRANCH  17  19
ATOM     19  C   UNL     1       5.834   4.409  17.520  0.00  0.00    +0.000 A 
ATOM     20  C   UNL     1       4.843   4.207  16.546  0.00  0.00    +0.000 A 
ATOM     21  C   UNL     1       5.157   4.256  15.185  0.00  0.00    +0.000 A 
ATOM     22  C   UNL     1       6.462   4.517  14.776  0.00  0.00    +0.000 A 
ATOM     23  C   UNL     1       7.458   4.718  15.730  0.00  0.00    +0.000 A 
ATOM     24  C   UNL     1       7.142   4.672  17.092  0.00  0.00    +0.000 A 
ENDBRANCH  17  19
ENDBRANCH   1  17
TORSDOF 4
ENDMDL
MODEL 5
REMARK VINA RESULT:      -7.9      0.115      1.422
REMARK  Name = 
REMARK  6 active torsions:
REMARK  status: ('A' for Active; 'I' for Inactive)
REMARK    1  A    between atoms: C_1  and  S_2
REMARK    2  A    between atoms: S_2  and  C_3
REMARK    3  A    between atoms: C_3  and  N_4
REMARK    4  A    between atoms: N_4  and  C_5
REMARK    5  A    between atoms: N_14  and  C_15
REMARK    6  A    between atoms: C_22  and  C_23
REMARK                            x       y       z     vdW  Elec       q    Type
REMARK                         _______ _______ _______ _____ _____    ______ ____
ROOT
ATOM      1  C   UNL     1       3.708   4.424  18.585  0.00  0.00    +0.000 C 
ATOM      2  C   UNL     1       2.833   5.140  19.324  0.00  0.00    +0.000 C 
ATOM      3  C   UNL     1       2.532   6.565  19.019  0.00  0.00    +0.000 C 
ATOM      4  O   UNL     1       2.762   7.150  17.976  0.00  0.00    +0.000 OA
ATOM      5  N   UNL     1       1.845   6.994  20.162  0.00  0.00    +0.000 N 
ATOM      6  N   UNL     1       1.518   5.967  21.042  0.00  0.00    +0.000 NA
ATOM      7  C   UNL     1       2.031   4.874  20.540  0.00  0.00    +0.000 C 
ATOM      8  C   UNL     1       1.794   3.540  21.169  0.00  0.00    +0.000 C 
ENDROOT
BRANCH   5   9
ATOM      9  C   UNL     1       1.379   8.303  20.427  0.00  0.00    +0.000 A 
ATOM     10  C   UNL     1       1.070   8.724  21.730  0.00  0.00    +0.000 A 
ATOM     11  C   UNL     1       0.613  10.017  21.982  0.00  0.00    +0.000 A 
ATOM     12  C   UNL     1       0.432  10.909  20.931  0.00  0.00    +0.000 A 
ATOM     13  C   UNL     1       0.713  10.507  19.627  0.00  0.00    +0.000 A 
ATOM     14  C   UNL     1       1.189   9.213  19.380  0.00  0.00    +0.000 A 
ENDBRANCH   5   9
BRANCH   1  16
ATOM     15  C   UNL     1       2.457   2.168  17.747  0.00  0.00    +0.000 C 
ATOM     16  S   UNL     1       3.835   2.680  18.807  0.00  0.00    +0.000 S 
ENDBRANCH   1  16
BRANCH   1  17
ATOM     17  N   UNL     1       4.553   4.997  17.629  0.00  0.00    +0.000 N 
ATOM     18  H   UNL     1       4.833   4.286  16.954  0.00  0.00    +0.000 HD
BRANCH  17  19
ATOM     19  C   UNL     1       5.745   5.703  17.986  0.00  0.00    +0.000 A 
ATOM     20  C   UNL     1       6.610   5.280  19.007  0.00  0.00    +0.000 A 
ATOM     21  C   UNL     1       7.814   5.948  19.247  0.00  0.00    +0.000 A 
ATOM     22  C   UNL     1       8.176   7.043  18.466  0.00  0.00    +0.000 A 
ATOM     23  C   UNL     1       7.327   7.476  17.450  0.00  0.00    +0.000 A 
ATOM     24  C   UNL     1       6.124   6.804  17.208  0.00  0.00    +0.000 A 
ENDBRANCH  17  19
ENDBRANCH   1  17
TORSDOF 4
ENDMDL
MODEL 6
REMARK VINA RESULT:      -7.8      0.130      1.010
REMARK  Name = 
REMARK  6 active torsions:
REMARK  status: ('A' for Active; 'I' for Inactive)
REMARK    1  A    between atoms: C_1  and  S_2
REMARK    2  A    between atoms: S_2  and  C_3
REMARK    3  A    between atoms: C_3  and  N_4
REMARK    4  A    between atoms: N_4  and  C_5
REMARK    5  A    between atoms: N_14  and  C_15
REMARK    6  A    between atoms: C_22  and  C_23
REMARK                            x       y       z     vdW  Elec       q    Type
REMARK                         _______ _______ _______ _____ _____    ______ ____
ROOT
ATOM      1  C   UNL     1       3.721   4.415  18.617  0.00  0.00    +0.000 C 
ATOM      2  C   UNL     1       2.841   5.148  19.333  0.00  0.00    +0.000 C 
ATOM      3  C   UNL     1       2.539   6.564  18.990  0.00  0.00    +0.000 C 
ATOM      4  O   UNL     1       2.772   7.122  17.932  0.00  0.00    +0.000 OA
ATOM      5  N   UNL     1       1.846   7.021  20.118  0.00  0.00    +0.000 N 
ATOM      6  N   UNL     1       1.516   6.017  21.023  0.00  0.00    +0.000 NA
ATOM      7  C   UNL     1       2.034   4.912  20.551  0.00  0.00    +0.000 C 
ATOM      8  C   UNL     1       1.796   3.594  21.214  0.00  0.00    +0.000 C 
ENDROOT
BRANCH   5   9
ATOM      9  C   UNL     1       1.375   8.336  20.347  0.00  0.00    +0.000 A 
ATOM     10  C   UNL     1       1.265   9.269  19.305  0.00  0.00    +0.000 A 
ATOM     11  C   UNL     1       0.798  10.562  19.539  0.00  0.00    +0.000 A 
ATOM     12  C   UNL     1       0.454  10.956  20.828  0.00  0.00    +0.000 A 
ATOM     13  C   UNL     1       0.574  10.052  21.881  0.00  0.00    +0.000 A 
ATOM     14  C   UNL     1       1.027   8.749  21.639  0.00  0.00    +0.000 A 
ENDBRANCH   5   9
BRANCH   1  16
ATOM     15  C   UNL     1       2.612   2.122  17.684  0.00  0.00    +0.000 C 
ATOM     16  S   UNL     1       3.850   2.678  18.885  0.00  0.00    +0.000 S 
ENDBRANCH   1  16
BRANCH   1  17
ATOM     17  N   UNL     1       4.570   4.965  17.650  0.00  0.00    +0.000 N 
ATOM     18  H   UNL     1       4.856   4.236  16.996  0.00  0.00    +0.000 HD
BRANCH  17  19
ATOM     19  C   UNL     1       5.757   5.684  17.995  0.00  0.00    +0.000 A 
ATOM     20  C   UNL     1       6.638   5.270  19.005  0.00  0.00    +0.000 A 
ATOM     21  C   UNL     1       7.838   5.950  19.233  0.00  0.00    +0.000 A 
ATOM     22  C   UNL     1       8.179   7.050  18.448  0.00  0.00    +0.000 A 
ATOM     23  C   UNL     1       7.314   7.474  17.442  0.00  0.00    +0.000 A 
ATOM     24  C   UNL     1       6.116   6.790  17.213  0.00  0.00    +0.000 A 
ENDBRANCH  17  19
ENDBRANCH   1  17
TORSDOF 4
ENDMDL
MODEL 7
REMARK VINA RESULT:      -7.7      2.205      6.430
REMARK  Name = 
REMARK  6 active torsions:
REMARK  status: ('A' for Active; 'I' for Inactive)
REMARK    1  A    between atoms: C_1  and  S_2
REMARK    2  A    between atoms: S_2  and  C_3
REMARK    3  A    between atoms: C_3  and  N_4
REMARK    4  A    between atoms: N_4  and  C_5
REMARK    5  A    between atoms: N_14  and  C_15
REMARK    6  A    between atoms: C_22  and  C_23
REMARK                            x       y       z     vdW  Elec       q    Type
REMARK                         _______ _______ _______ _____ _____    ______ ____
ROOT
ATOM      1  C   UNL     1       2.491   5.149  19.710  0.00  0.00    +0.000 C 
ATOM      2  C   UNL     1       3.077   4.509  18.675  0.00  0.00    +0.000 C 
ATOM      3  C   UNL     1       4.302   5.042  18.019  0.00  0.00    +0.000 C 
ATOM      4  O   UNL     1       5.065   5.877  18.470  0.00  0.00    +0.000 OA
ATOM      5  N   UNL     1       4.392   4.275  16.850  0.00  0.00    +0.000 N 
ATOM      6  N   UNL     1       3.494   3.214  16.801  0.00  0.00    +0.000 NA
ATOM      7  C   UNL     1       2.763   3.299  17.883  0.00  0.00    +0.000 C 
ATOM      8  C   UNL     1       1.747   2.258  18.223  0.00  0.00    +0.000 C 
ENDROOT
BRANCH   5   9
ATOM      9  C   UNL     1       5.351   4.414  15.819  0.00  0.00    +0.000 A 
ATOM     10  C   UNL     1       5.128   3.897  14.534  0.00  0.00    +0.000 A 
ATOM     11  C   UNL     1       6.079   4.041  13.523  0.00  0.00    +0.000 A 
ATOM     12  C   UNL     1       7.283   4.684  13.785  0.00  0.00    +0.000 A 
ATOM     13  C   UNL     1       7.534   5.188  15.059  0.00  0.00    +0.000 A 
ATOM     14  C   UNL     1       6.570   5.058  16.067  0.00  0.00    +0.000 A 
ENDBRANCH   5   9
BRANCH   1  16
ATOM     15  C   UNL     1       2.243   3.315  21.694  0.00  0.00    +0.000 C 
ATOM     16  S   UNL     1       1.211   4.357  20.629  0.00  0.00    +0.000 S 
ENDBRANCH   1  16
BRANCH   1  17
ATOM     17  N   UNL     1       2.839   6.444  20.110  0.00  0.00    +0.000 N 
ATOM     18  H   UNL     1       2.906   6.479  21.126  0.00  0.00    +0.000 HD
BRANCH  17  19
ATOM     19  C   UNL     1       2.084   7.594  19.717  0.00  0.00    +0.000 A 
ATOM     20  C   UNL     1       1.307   8.344  20.613  0.00  0.00    +0.000 A 
ATOM     21  C   UNL     1       0.673   9.519  20.200  0.00  0.00    +0.000 A 
ATOM     22  C   UNL     1       0.812   9.967  18.888  0.00  0.00    +0.000 A 
ATOM     23  C   UNL     1       1.578   9.233  17.986  0.00  0.00    +0.000 A 
ATOM     24  C   UNL     1       2.216   8.059  18.402  0.00  0.00    +0.000 A 
ENDBRANCH  17  19
ENDBRANCH   1  17
TORSDOF 4
ENDMDL
MODEL 8
REMARK VINA RESULT:      -7.7      3.450      7.762
REMARK  Name = 
REMARK  6 active torsions:
REMARK  status: ('A' for Active; 'I' for Inactive)
REMARK    1  A    between atoms: C_1  and  S_2
REMARK    2  A    between atoms: S_2  and  C_3
REMARK    3  A    between atoms: C_3  and  N_4
REMARK    4  A    between atoms: N_4  and  C_5
REMARK    5  A    between atoms: N_14  and  C_15
REMARK    6  A    between atoms: C_22  and  C_23
REMARK                            x       y       z     vdW  Elec       q    Type
REMARK                         _______ _______ _______ _____ _____    ______ ____
ROOT
ATOM      1  C   UNL     1       0.199  10.582  19.500  0.00  0.00    +0.000 C 
ATOM      2  C   UNL     1       1.002   9.505  19.636  0.00  0.00    +0.000 C 
ATOM      3  C   UNL     1       1.683   8.883  18.467  0.00  0.00    +0.000 C 
ATOM      4  O   UNL     1       1.856   9.389  17.373  0.00  0.00    +0.000 OA
ATOM      5  N   UNL     1       2.145   7.666  18.983  0.00  0.00    +0.000 N 
ATOM      6  N   UNL     1       2.004   7.547  20.362  0.00  0.00    +0.000 NA
ATOM      7  C   UNL     1       1.398   8.634  20.765  0.00  0.00    +0.000 C 
ATOM      8  C   UNL     1       1.164   8.905  22.216  0.00  0.00    +0.000 C 
ENDROOT
BRANCH   5   9
ATOM      9  C   UNL     1       2.815   6.644  18.269  0.00  0.00    +0.000 A 
ATOM     10  C   UNL     1       2.331   5.328  18.241  0.00  0.00    +0.000 A 
ATOM     11  C   UNL     1       2.997   4.328  17.532  0.00  0.00    +0.000 A 
ATOM     12  C   UNL     1       4.176   4.621  16.856  0.00  0.00    +0.000 A 
ATOM     13  C   UNL     1       4.686   5.918  16.886  0.00  0.00    +0.000 A 
ATOM     14  C   UNL     1       4.005   6.923  17.584  0.00  0.00    +0.000 A 
ENDBRANCH   5   9
BRANCH   1  16
ATOM     15  C   UNL     1       0.782  12.845  20.876  0.00  0.00    +0.000 C 
ATOM     16  S   UNL     1      -0.370  11.447  20.926  0.00  0.00    +0.000 S 
ENDBRANCH   1  16
BRANCH   1  17
ATOM     17  N   UNL     1      -0.233  11.067  18.260  0.00  0.00    +0.000 N 
ATOM     18  H   UNL     1      -0.032  12.064  18.197  0.00  0.00    +0.000 HD
BRANCH  17  19
ATOM     19  C   UNL     1      -1.576  10.897  17.798  0.00  0.00    +0.000 A 
ATOM     20  C   UNL     1      -2.638  11.717  18.210  0.00  0.00    +0.000 A 
ATOM     21  C   UNL     1      -3.910  11.576  17.650  0.00  0.00    +0.000 A 
ATOM     22  C   UNL     1      -4.140  10.620  16.663  0.00  0.00    +0.000 A 
ATOM     23  C   UNL     1      -3.096   9.797  16.244  0.00  0.00    +0.000 A 
ATOM     24  C   UNL     1      -1.822   9.942  16.803  0.00  0.00    +0.000 A 
ENDBRANCH  17  19
ENDBRANCH   1  17
TORSDOF 4
ENDMDL
MODEL 9
REMARK VINA RESULT:      -7.7      2.204      6.424
REMARK  Name = 
REMARK  6 active torsions:
REMARK  status: ('A' for Active; 'I' for Inactive)
REMARK    1  A    between atoms: C_1  and  S_2
REMARK    2  A    between atoms: S_2  and  C_3
REMARK    3  A    between atoms: C_3  and  N_4
REMARK    4  A    between atoms: N_4  and  C_5
REMARK    5  A    between atoms: N_14  and  C_15
REMARK    6  A    between atoms: C_22  and  C_23
REMARK                            x       y       z     vdW  Elec       q    Type
REMARK                         _______ _______ _______ _____ _____    ______ ____
ROOT
ATOM      1  C   UNL     1       2.484   5.158  19.735  0.00  0.00    +0.000 C 
ATOM      2  C   UNL     1       3.063   4.520  18.695  0.00  0.00    +0.000 C 
ATOM      3  C   UNL     1       4.308   5.030  18.059  0.00  0.00    +0.000 C 
ATOM      4  O   UNL     1       5.089   5.836  18.532  0.00  0.00    +0.000 OA
ATOM      5  N   UNL     1       4.388   4.281  16.878  0.00  0.00    +0.000 N 
ATOM      6  N   UNL     1       3.461   3.246  16.802  0.00  0.00    +0.000 NA
ATOM      7  C   UNL     1       2.723   3.333  17.879  0.00  0.00    +0.000 C 
ATOM      8  C   UNL     1       1.675   2.315  18.191  0.00  0.00    +0.000 C 
ENDROOT
BRANCH   5   9
ATOM      9  C   UNL     1       5.360   4.410  15.858  0.00  0.00    +0.000 A 
ATOM     10  C   UNL     1       6.579   5.067  16.083  0.00  0.00    +0.000 A 
ATOM     11  C   UNL     1       7.532   5.188  15.073  0.00  0.00    +0.000 A 
ATOM     12  C   UNL     1       7.275   4.674  13.807  0.00  0.00    +0.000 A 
ATOM     13  C   UNL     1       6.063   4.034  13.555  0.00  0.00    +0.000 A 
ATOM     14  C   UNL     1       5.115   3.899  14.577  0.00  0.00    +0.000 A 
ENDBRANCH   5   9
BRANCH   1  16
ATOM     15  C   UNL     1       2.167   3.311  21.696  0.00  0.00    +0.000 C 
ATOM     16  S   UNL     1       1.175   4.387  20.628  0.00  0.00    +0.000 S 
ENDBRANCH   1  16
BRANCH   1  17
ATOM     17  N   UNL     1       2.864   6.436  20.160  0.00  0.00    +0.000 N 
ATOM     18  H   UNL     1       2.861   6.470  21.179  0.00  0.00    +0.000 HD
BRANCH  17  19
ATOM     19  C   UNL     1       2.193   7.620  19.717  0.00  0.00    +0.000 A 
ATOM     20  C   UNL     1       2.228   8.068  18.387  0.00  0.00    +0.000 A 
ATOM     21  C   UNL     1       1.472   9.171  17.984  0.00  0.00    +0.000 A 
ATOM     22  C   UNL     1       0.662   9.839  18.900  0.00  0.00    +0.000 A 
ATOM     23  C   UNL     1       0.617   9.407  20.224  0.00  0.00    +0.000 A 
ATOM     24  C   UNL     1       1.373   8.299  20.626  0.00  0.00    +0.000 A 
ENDBRANCH  17  19
ENDBRANCH   1  17
TORSDOF 4
ENDMDL
