MODEL 1
REMARK VINA RESULT:      -8.5      0.000      0.000
REMARK  Name = 
REMARK  7 active torsions:
REMARK  status: ('A' for Active; 'I' for Inactive)
REMARK    1  A    between atoms: C_1  and  O_2
REMARK    2  A    between atoms: O_2  and  C_3
REMARK    3  A    between atoms: C_3  and  C_4
REMARK    4  A    between atoms: C_4  and  N_5
REMARK    5  A    between atoms: C_6  and  C_8
REMARK    6  A    between atoms: C_11  and  C_12
REMARK    7  A    between atoms: C_16  and  C_17
REMARK                            x       y       z     vdW  Elec       q    Type
REMARK                         _______ _______ _______ _____ _____    ______ ____
ROOT
ATOM      1  C   UNL     1       5.289   5.415  16.190  0.00  0.00    +0.000 A 
ATOM      2  C   UNL     1       5.403   6.792  16.370  0.00  0.00    +0.000 A 
ATOM      3  C   UNL     1       4.495   7.464  17.200  0.00  0.00    +0.000 A 
ATOM      4  C   UNL     1       3.424   6.802  17.850  0.00  0.00    +0.000 A 
ATOM      5  C   UNL     1       3.325   5.408  17.626  0.00  0.00    +0.000 A 
ATOM      6 CL   UNL     1       2.023   4.425  18.220  0.00  0.00    +0.000 Cl
ATOM      7  C   UNL     1       4.257   4.727  16.828  0.00  0.00    +0.000 A 
ENDROOT
BRANCH   4   8
ATOM      8  C   UNL     1       2.488   7.600  18.698  0.00  0.00    +0.000 A 
ATOM      9  C   UNL     1       2.230   7.280  20.040  0.00  0.00    +0.000 A 
ATOM     10  C   UNL     1       1.348   8.030  20.835  0.00  0.00    +0.000 A 
ATOM     11  C   UNL     1       0.736   9.182  20.342  0.00  0.00    +0.000 A 
ATOM     12  C   UNL     1      -0.152  10.053  21.145  0.00  0.00    +0.000 A 
ATOM     13  C   UNL     1      -0.492   9.757  22.579  0.00  0.00    +0.000 C 
ATOM     14  C   UNL     1      -0.655  11.163  20.571  0.00  0.00    +0.000 A 
ATOM     15  C   UNL     1      -0.364  11.541  19.177  0.00  0.00    +0.000 A 
ATOM     16  O   UNL     1      -0.830  12.567  18.687  0.00  0.00    +0.000 OA
ATOM     17  N   UNL     1       0.448  10.700  18.471  0.00  0.00    +0.000 N 
ATOM     18  C   UNL     1       1.007   9.533  19.011  0.00  0.00    +0.000 A 
ATOM     19  C   UNL     1       1.844   8.749  18.199  0.00  0.00    +0.000 A 
ATOM     20  H   UNL     1       0.646  10.976  17.520  0.00  0.00    +0.000 HD
ENDBRANCH   4   8
BRANCH   1  22
ATOM     21  N   UNL     1       5.597   4.160  14.114  0.00  0.00    +0.000 N 
ATOM     22  C   UNL     1       6.169   4.658  15.263  0.00  0.00    +0.000 C 
ATOM     23  O   UNL     1       7.358   4.521  15.535  0.00  0.00    +0.000 OA
ATOM     24  H   UNL     1       4.750   4.596  13.768  0.00  0.00    +0.000 HD
BRANCH  21  25
ATOM     25  C   UNL     1       6.447   3.532  13.117  0.00  0.00    +0.000 C 
BRANCH  25  26
ATOM     26  C   UNL     1       5.635   2.871  12.005  0.00  0.00    +0.000 C 
BRANCH  26  28
ATOM     27  C   UNL     1       3.785   3.448  10.661  0.00  0.00    +0.000 C 
ATOM     28  O   UNL     1       4.332   3.462  11.973  0.00  0.00    +0.000 OA
ENDBRANCH  26  28
ENDBRANCH  25  26
ENDBRANCH  21  25
ENDBRANCH   1  22
TORSDOF 5
ENDMDL
MODEL 2
REMARK VINA RESULT:      -8.2      1.601      2.119
REMARK  Name = 
REMARK  7 active torsions:
REMARK  status: ('A' for Active; 'I' for Inactive)
REMARK    1  A    between atoms: C_1  and  O_2
REMARK    2  A    between atoms: O_2  and  C_3
REMARK    3  A    between atoms: C_3  and  C_4
REMARK    4  A    between atoms: C_4  and  N_5
REMARK    5  A    between atoms: C_6  and  C_8
REMARK    6  A    between atoms: C_11  and  C_12
REMARK    7  A    between atoms: C_16  and  C_17
REMARK                            x       y       z     vdW  Elec       q    Type
REMARK                         _______ _______ _______ _____ _____    ______ ____
ROOT
ATOM      1  C   UNL     1       4.814   5.344  16.383  0.00  0.00    +0.000 A 
ATOM      2  C   UNL     1       4.905   6.725  16.221  0.00  0.00    +0.000 A 
ATOM      3  C   UNL     1       4.047   7.569  16.941  0.00  0.00    +0.000 A 
ATOM      4  C   UNL     1       3.048   7.073  17.815  0.00  0.00    +0.000 A 
ATOM      5  C   UNL     1       2.970   5.665  17.938  0.00  0.00    +0.000 A 
ATOM      6 CL   UNL     1       1.746   4.843  18.855  0.00  0.00    +0.000 Cl
ATOM      7  C   UNL     1       3.855   4.821  17.250  0.00  0.00    +0.000 A 
ENDROOT
BRANCH   4   8
ATOM      8  C   UNL     1       2.161   8.043  18.525  0.00  0.00    +0.000 A 
ATOM      9  C   UNL     1       1.339   8.951  17.839  0.00  0.00    +0.000 A 
ATOM     10  C   UNL     1       0.508   9.865  18.507  0.00  0.00    +0.000 A 
ATOM     11  C   UNL     1       0.406   9.863  19.898  0.00  0.00    +0.000 A 
ATOM     12  C   UNL     1      -0.498  10.752  20.661  0.00  0.00    +0.000 A 
ATOM     13  C   UNL     1      -1.386  11.766  19.994  0.00  0.00    +0.000 C 
ATOM     14  C   UNL     1      -0.539  10.632  22.002  0.00  0.00    +0.000 A 
ATOM     15  C   UNL     1       0.283   9.656  22.740  0.00  0.00    +0.000 A 
ATOM     16  O   UNL     1       0.213   9.563  23.963  0.00  0.00    +0.000 OA
ATOM     17  N   UNL     1       1.112   8.867  21.995  0.00  0.00    +0.000 N 
ATOM     18  C   UNL     1       1.198   8.939  20.598  0.00  0.00    +0.000 A 
ATOM     19  C   UNL     1       2.073   8.066  19.930  0.00  0.00    +0.000 A 
ATOM     20  H   UNL     1       1.663   8.197  22.513  0.00  0.00    +0.000 HD
ENDBRANCH   4   8
BRANCH   1  22
ATOM     21  N   UNL     1       5.591   4.507  14.221  0.00  0.00    +0.000 N 
ATOM     22  C   UNL     1       5.639   4.394  15.593  0.00  0.00    +0.000 C 
ATOM     23  O   UNL     1       6.337   3.570  16.175  0.00  0.00    +0.000 OA
ATOM     24  H   UNL     1       5.313   5.395  13.820  0.00  0.00    +0.000 HD
BRANCH  21  25
ATOM     25  C   UNL     1       6.483   3.691  13.415  0.00  0.00    +0.000 C 
BRANCH  25  26
ATOM     26  C   UNL     1       5.823   3.233  12.116  0.00  0.00    +0.000 C 
BRANCH  26  28
ATOM     27  C   UNL     1       3.777   3.334  10.948  0.00  0.00    +0.000 C 
ATOM     28  O   UNL     1       4.412   3.451  12.215  0.00  0.00    +0.000 OA
ENDBRANCH  26  28
ENDBRANCH  25  26
ENDBRANCH  21  25
ENDBRANCH   1  22
TORSDOF 5
ENDMDL
MODEL 3
REMARK VINA RESULT:      -7.6      2.784      9.819
REMARK  Name = 
REMARK  7 active torsions:
REMARK  status: ('A' for Active; 'I' for Inactive)
REMARK    1  A    between atoms: C_1  and  O_2
REMARK    2  A    between atoms: O_2  and  C_3
REMARK    3  A    between atoms: C_3  and  C_4
REMARK    4  A    between atoms: C_4  and  N_5
REMARK    5  A    between atoms: C_6  and  C_8
REMARK    6  A    between atoms: C_11  and  C_12
REMARK    7  A    between atoms: C_16  and  C_17
REMARK                            x       y       z     vdW  Elec       q    Type
REMARK                         _______ _______ _______ _____ _____    ______ ____
ROOT
ATOM      1  C   UNL     1      -0.014  10.614  21.545  0.00  0.00    +0.000 A 
ATOM      2  C   UNL     1       0.340   9.523  22.335  0.00  0.00    +0.000 A 
ATOM      3  C   UNL     1       1.010   8.434  21.760  0.00  0.00    +0.000 A 
ATOM      4  C   UNL     1       1.320   8.374  20.379  0.00  0.00    +0.000 A 
ATOM      5  C   UNL     1       0.926   9.490  19.602  0.00  0.00    +0.000 A 
ATOM      6 CL   UNL     1       1.094   9.573  17.876  0.00  0.00    +0.000 Cl
ATOM      7  C   UNL     1       0.291  10.598  20.184  0.00  0.00    +0.000 A 
ENDROOT
BRANCH   4   8
ATOM      8  C   UNL     1       2.016   7.164  19.845  0.00  0.00    +0.000 A 
ATOM      9  C   UNL     1       1.808   5.882  20.376  0.00  0.00    +0.000 A 
ATOM     10  C   UNL     1       2.465   4.746  19.875  0.00  0.00    +0.000 A 
ATOM     11  C   UNL     1       3.308   4.831  18.767  0.00  0.00    +0.000 A 
ATOM     12  C   UNL     1       3.980   3.666  18.149  0.00  0.00    +0.000 A 
ATOM     13  C   UNL     1       3.824   2.268  18.681  0.00  0.00    +0.000 C 
ATOM     14  C   UNL     1       4.741   3.866  17.057  0.00  0.00    +0.000 A 
ATOM     15  C   UNL     1       4.939   5.198  16.457  0.00  0.00    +0.000 A 
ATOM     16  O   UNL     1       5.631   5.345  15.452  0.00  0.00    +0.000 OA
ATOM     17  N   UNL     1       4.312   6.245  17.069  0.00  0.00    +0.000 N 
ATOM     18  C   UNL     1       3.502   6.102  18.205  0.00  0.00    +0.000 A 
ATOM     19  C   UNL     1       2.890   7.246  18.744  0.00  0.00    +0.000 A 
ATOM     20  H   UNL     1       4.449   7.150  16.642  0.00  0.00    +0.000 HD
ENDBRANCH   4   8
BRANCH   1  22
ATOM     21  N   UNL     1      -1.759  12.303  21.256  0.00  0.00    +0.000 N 
ATOM     22  C   UNL     1      -0.793  11.762  22.076  0.00  0.00    +0.000 C 
ATOM     23  O   UNL     1      -0.571  12.171  23.211  0.00  0.00    +0.000 OA
ATOM     24  H   UNL     1      -2.144  11.725  20.518  0.00  0.00    +0.000 HD
BRANCH  21  25
ATOM     25  C   UNL     1      -2.634  13.336  21.784  0.00  0.00    +0.000 C 
BRANCH  25  26
ATOM     26  C   UNL     1      -4.076  12.851  21.920  0.00  0.00    +0.000 C 
BRANCH  26  28
ATOM     27  C   UNL     1      -3.861  13.111  24.254  0.00  0.00    +0.000 C 
ATOM     28  O   UNL     1      -4.235  12.232  23.200  0.00  0.00    +0.000 OA
ENDBRANCH  26  28
ENDBRANCH  25  26
ENDBRANCH  21  25
ENDBRANCH   1  22
TORSDOF 5
ENDMDL
MODEL 4
REMARK VINA RESULT:      -7.6      3.442     10.301
REMARK  Name = 
REMARK  7 active torsions:
REMARK  status: ('A' for Active; 'I' for Inactive)
REMARK    1  A    between atoms: C_1  and  O_2
REMARK    2  A    between atoms: O_2  and  C_3
REMARK    3  A    between atoms: C_3  and  C_4
REMARK    4  A    between atoms: C_4  and  N_5
REMARK    5  A    between atoms: C_6  and  C_8
REMARK    6  A    between atoms: C_11  and  C_12
REMARK    7  A    between atoms: C_16  and  C_17
REMARK                            x       y       z     vdW  Elec       q    Type
REMARK                         _______ _______ _______ _____ _____    ______ ____
ROOT
ATOM      1  C   UNL     1      -0.733  11.062  22.290  0.00  0.00    +0.000 A 
ATOM      2  C   UNL     1      -0.159  10.020  23.015  0.00  0.00    +0.000 A 
ATOM      3  C   UNL     1       0.561   9.019  22.346  0.00  0.00    +0.000 A 
ATOM      4  C   UNL     1       0.706   8.998  20.937  0.00  0.00    +0.000 A 
ATOM      5  C   UNL     1       0.091  10.060  20.231  0.00  0.00    +0.000 A 
ATOM      6 CL   UNL     1       0.037  10.164  18.499  0.00  0.00    +0.000 Cl
ATOM      7  C   UNL     1      -0.595  11.083  20.902  0.00  0.00    +0.000 A 
ENDROOT
BRANCH   4   8
ATOM      8  C   UNL     1       1.470   7.881  20.304  0.00  0.00    +0.000 A 
ATOM      9  C   UNL     1       1.342   6.549  20.727  0.00  0.00    +0.000 A 
ATOM     10  C   UNL     1       2.064   5.500  20.134  0.00  0.00    +0.000 A 
ATOM     11  C   UNL     1       2.894   5.727  19.037  0.00  0.00    +0.000 A 
ATOM     12  C   UNL     1       3.631   4.659  18.325  0.00  0.00    +0.000 A 
ATOM     13  C   UNL     1       3.562   3.215  18.739  0.00  0.00    +0.000 C 
ATOM     14  C   UNL     1       4.373   4.994  17.252  0.00  0.00    +0.000 A 
ATOM     15  C   UNL     1       4.487   6.381  16.764  0.00  0.00    +0.000 A 
ATOM     16  O   UNL     1       5.164   6.652  15.774  0.00  0.00    +0.000 OA
ATOM     17  N   UNL     1       3.802   7.333  17.461  0.00  0.00    +0.000 N 
ATOM     18  C   UNL     1       3.008   7.049  18.582  0.00  0.00    +0.000 A 
ATOM     19  C   UNL     1       2.332   8.106  19.214  0.00  0.00    +0.000 A 
ATOM     20  H   UNL     1       3.882   8.278  17.111  0.00  0.00    +0.000 HD
ENDBRANCH   4   8
BRANCH   1  22
ATOM     21  N   UNL     1      -2.939  11.941  22.875  0.00  0.00    +0.000 N 
ATOM     22  C   UNL     1      -1.573  12.107  22.929  0.00  0.00    +0.000 C 
ATOM     23  O   UNL     1      -1.034  13.057  23.490  0.00  0.00    +0.000 OA
ATOM     24  H   UNL     1      -3.305  11.006  22.741  0.00  0.00    +0.000 HD
BRANCH  21  25
ATOM     25  C   UNL     1      -3.792  12.866  23.601  0.00  0.00    +0.000 C 
BRANCH  25  26
ATOM     26  C   UNL     1      -4.498  12.192  24.776  0.00  0.00    +0.000 C 
BRANCH  26  28
ATOM     27  C   UNL     1      -6.311  13.123  23.589  0.00  0.00    +0.000 C 
ATOM     28  O   UNL     1      -5.894  12.093  24.477  0.00  0.00    +0.000 OA
ENDBRANCH  26  28
ENDBRANCH  25  26
ENDBRANCH  21  25
ENDBRANCH   1  22
TORSDOF 5
ENDMDL
MODEL 5
REMARK VINA RESULT:      -7.5      1.462      2.068
REMARK  Name = 
REMARK  7 active torsions:
REMARK  status: ('A' for Active; 'I' for Inactive)
REMARK    1  A    between atoms: C_1  and  O_2
REMARK    2  A    between atoms: O_2  and  C_3
REMARK    3  A    between atoms: C_3  and  C_4
REMARK    4  A    between atoms: C_4  and  N_5
REMARK    5  A    between atoms: C_6  and  C_8
REMARK    6  A    between atoms: C_11  and  C_12
REMARK    7  A    between atoms: C_16  and  C_17
REMARK                            x       y       z     vdW  Elec       q    Type
REMARK                         _______ _______ _______ _____ _____    ______ ____
ROOT
ATOM      1  C   UNL     1       4.061   5.702  17.703  0.00  0.00    +0.000 A 
ATOM      2  C   UNL     1       3.921   7.029  17.299  0.00  0.00    +0.000 A 
ATOM      3  C   UNL     1       3.087   7.893  18.022  0.00  0.00    +0.000 A 
ATOM      4  C   UNL     1       2.337   7.464  19.146  0.00  0.00    +0.000 A 
ATOM      5  C   UNL     1       2.486   6.105  19.513  0.00  0.00    +0.000 A 
ATOM      6 CL   UNL     1       1.572   5.341  20.775  0.00  0.00    +0.000 Cl
ATOM      7  C   UNL     1       3.352   5.250  18.815  0.00  0.00    +0.000 A 
ENDROOT
BRANCH   4   8
ATOM      8  C   UNL     1       1.454   8.447  19.844  0.00  0.00    +0.000 A 
ATOM      9  C   UNL     1       0.983   8.239  21.149  0.00  0.00    +0.000 A 
ATOM     10  C   UNL     1       0.150   9.162  21.803  0.00  0.00    +0.000 A 
ATOM     11  C   UNL     1      -0.191  10.375  21.204  0.00  0.00    +0.000 A 
ATOM     12  C   UNL     1      -1.009  11.418  21.862  0.00  0.00    +0.000 A 
ATOM     13  C   UNL     1      -1.569  11.253  23.247  0.00  0.00    +0.000 C 
ATOM     14  C   UNL     1      -1.241  12.568  21.198  0.00  0.00    +0.000 A 
ATOM     15  C   UNL     1      -0.720  12.824  19.843  0.00  0.00    +0.000 A 
ATOM     16  O   UNL     1      -0.940  13.889  19.270  0.00  0.00    +0.000 OA
ATOM     17  N   UNL     1       0.017  11.827  19.272  0.00  0.00    +0.000 N 
ATOM     18  C   UNL     1       0.298  10.611  19.911  0.00  0.00    +0.000 A 
ATOM     19  C   UNL     1       1.082   9.661  19.235  0.00  0.00    +0.000 A 
ATOM     20  H   UNL     1       0.375  12.020  18.347  0.00  0.00    +0.000 HD
ENDBRANCH   4   8
BRANCH   1  22
ATOM     21  N   UNL     1       5.887   5.211  16.153  0.00  0.00    +0.000 N 
ATOM     22  C   UNL     1       4.866   4.718  16.935  0.00  0.00    +0.000 C 
ATOM     23  O   UNL     1       4.614   3.521  17.034  0.00  0.00    +0.000 OA
ATOM     24  H   UNL     1       6.277   6.117  16.383  0.00  0.00    +0.000 HD
BRANCH  21  25
ATOM     25  C   UNL     1       6.783   4.277  15.492  0.00  0.00    +0.000 C 
BRANCH  25  26
ATOM     26  C   UNL     1       6.797   4.470  13.977  0.00  0.00    +0.000 C 
BRANCH  26  28
ATOM     27  C   UNL     1       6.058   3.191  12.139  0.00  0.00    +0.000 C 
ATOM     28  O   UNL     1       5.713   3.728  13.410  0.00  0.00    +0.000 OA
ENDBRANCH  26  28
ENDBRANCH  25  26
ENDBRANCH  21  25
ENDBRANCH   1  22
TORSDOF 5
ENDMDL
MODEL 6
REMARK VINA RESULT:      -7.5      3.642     10.202
REMARK  Name = 
REMARK  7 active torsions:
REMARK  status: ('A' for Active; 'I' for Inactive)
REMARK    1  A    between atoms: C_1  and  O_2
REMARK    2  A    between atoms: O_2  and  C_3
REMARK    3  A    between atoms: C_3  and  C_4
REMARK    4  A    between atoms: C_4  and  N_5
REMARK    5  A    between atoms: C_6  and  C_8
REMARK    6  A    between atoms: C_11  and  C_12
REMARK    7  A    between atoms: C_16  and  C_17
REMARK                            x       y       z     vdW  Elec       q    Type
REMARK                         _______ _______ _______ _____ _____    ______ ____
ROOT
ATOM      1  C   UNL     1      -0.567  11.020  22.051  0.00  0.00    +0.000 A 
ATOM      2  C   UNL     1       0.296  10.125  22.679  0.00  0.00    +0.000 A 
ATOM      3  C   UNL     1       1.021   9.201  21.912  0.00  0.00    +0.000 A 
ATOM      4  C   UNL     1       0.889   9.111  20.505  0.00  0.00    +0.000 A 
ATOM      5  C   UNL     1      -0.013  10.021  19.903  0.00  0.00    +0.000 A 
ATOM      6 CL   UNL     1      -0.420  10.003  18.215  0.00  0.00    +0.000 Cl
ATOM      7  C   UNL     1      -0.708  10.972  20.664  0.00  0.00    +0.000 A 
ENDROOT
BRANCH   4   8
ATOM      8  C   UNL     1       1.682   8.080  19.768  0.00  0.00    +0.000 A 
ATOM      9  C   UNL     1       2.301   8.345  18.537  0.00  0.00    +0.000 A 
ATOM     10  C   UNL     1       3.043   7.374  17.845  0.00  0.00    +0.000 A 
ATOM     11  C   UNL     1       3.262   6.110  18.391  0.00  0.00    +0.000 A 
ATOM     12  C   UNL     1       4.088   5.065  17.746  0.00  0.00    +0.000 A 
ATOM     13  C   UNL     1       4.758   5.270  16.416  0.00  0.00    +0.000 C 
ATOM     14  C   UNL     1       4.260   3.893  18.388  0.00  0.00    +0.000 A 
ATOM     15  C   UNL     1       3.655   3.609  19.702  0.00  0.00    +0.000 A 
ATOM     16  O   UNL     1       3.842   2.534  20.268  0.00  0.00    +0.000 OA
ATOM     17  N   UNL     1       2.890   4.597  20.251  0.00  0.00    +0.000 N 
ATOM     18  C   UNL     1       2.676   5.840  19.637  0.00  0.00    +0.000 A 
ATOM     19  C   UNL     1       1.885   6.792  20.300  0.00  0.00    +0.000 A 
ATOM     20  H   UNL     1       2.489   4.392  21.155  0.00  0.00    +0.000 HD
ENDBRANCH   4   8
BRANCH   1  22
ATOM     21  N   UNL     1      -2.781  11.761  22.777  0.00  0.00    +0.000 N 
ATOM     22  C   UNL     1      -1.420  11.969  22.812  0.00  0.00    +0.000 C 
ATOM     23  O   UNL     1      -0.896  12.877  23.449  0.00  0.00    +0.000 OA
ATOM     24  H   UNL     1      -3.121  10.831  22.561  0.00  0.00    +0.000 HD
BRANCH  21  25
ATOM     25  C   UNL     1      -3.642  12.580  23.613  0.00  0.00    +0.000 C 
BRANCH  25  26
ATOM     26  C   UNL     1      -4.719  13.295  22.800  0.00  0.00    +0.000 C 
BRANCH  26  28
ATOM     27  C   UNL     1      -6.181  12.228  21.288  0.00  0.00    +0.000 C 
ATOM     28  O   UNL     1      -5.842  12.421  22.656  0.00  0.00    +0.000 OA
ENDBRANCH  26  28
ENDBRANCH  25  26
ENDBRANCH  21  25
ENDBRANCH   1  22
TORSDOF 5
ENDMDL
MODEL 7
REMARK VINA RESULT:      -7.5      2.977      9.838
REMARK  Name = 
REMARK  7 active torsions:
REMARK  status: ('A' for Active; 'I' for Inactive)
REMARK    1  A    between atoms: C_1  and  O_2
REMARK    2  A    between atoms: O_2  and  C_3
REMARK    3  A    between atoms: C_3  and  C_4
REMARK    4  A    between atoms: C_4  and  N_5
REMARK    5  A    between atoms: C_6  and  C_8
REMARK    6  A    between atoms: C_11  and  C_12
REMARK    7  A    between atoms: C_16  and  C_17
REMARK                            x       y       z     vdW  Elec       q    Type
REMARK                         _______ _______ _______ _____ _____    ______ ____
ROOT
ATOM      1  C   UNL     1      -0.217  10.732  21.885  0.00  0.00    +0.000 A 
ATOM      2  C   UNL     1       0.379   9.701  22.609  0.00  0.00    +0.000 A 
ATOM      3  C   UNL     1       1.066   8.682  21.933  0.00  0.00    +0.000 A 
ATOM      4  C   UNL     1       1.154   8.631  20.520  0.00  0.00    +0.000 A 
ATOM      5  C   UNL     1       0.518   9.682  19.816  0.00  0.00    +0.000 A 
ATOM      6 CL   UNL     1       0.396   9.750  18.086  0.00  0.00    +0.000 Cl
ATOM      7  C   UNL     1      -0.135  10.724  20.492  0.00  0.00    +0.000 A 
ENDROOT
BRANCH   4   8
ATOM      8  C   UNL     1       1.886   7.495  19.881  0.00  0.00    +0.000 A 
ATOM      9  C   UNL     1       1.705   6.163  20.283  0.00  0.00    +0.000 A 
ATOM     10  C   UNL     1       2.396   5.097  19.684  0.00  0.00    +0.000 A 
ATOM     11  C   UNL     1       3.249   5.309  18.602  0.00  0.00    +0.000 A 
ATOM     12  C   UNL     1       3.956   4.225  17.884  0.00  0.00    +0.000 A 
ATOM     13  C   UNL     1       3.829   2.779  18.276  0.00  0.00    +0.000 C 
ATOM     14  C   UNL     1       4.725   4.548  16.826  0.00  0.00    +0.000 A 
ATOM     15  C   UNL     1       4.895   5.936  16.359  0.00  0.00    +0.000 A 
ATOM     16  O   UNL     1       5.595   6.196  15.383  0.00  0.00    +0.000 OA
ATOM     17  N   UNL     1       4.236   6.903  17.062  0.00  0.00    +0.000 N 
ATOM     18  C   UNL     1       3.417   6.633  18.167  0.00  0.00    +0.000 A 
ATOM     19  C   UNL     1       2.770   7.704  18.806  0.00  0.00    +0.000 A 
ATOM     20  H   UNL     1       4.355   7.849  16.726  0.00  0.00    +0.000 HD
ENDBRANCH   4   8
BRANCH   1  22
ATOM     21  N   UNL     1      -2.379  11.803  22.284  0.00  0.00    +0.000 N 
ATOM     22  C   UNL     1      -1.024  11.796  22.534  0.00  0.00    +0.000 C 
ATOM     23  O   UNL     1      -0.475  12.607  23.273  0.00  0.00    +0.000 OA
ATOM     24  H   UNL     1      -2.819  10.939  21.990  0.00  0.00    +0.000 HD
BRANCH  21  25
ATOM     25  C   UNL     1      -3.224  12.741  23.003  0.00  0.00    +0.000 C 
BRANCH  25  26
ATOM     26  C   UNL     1      -4.421  13.191  22.168  0.00  0.00    +0.000 C 
BRANCH  26  28
ATOM     27  C   UNL     1      -6.411  12.345  21.226  0.00  0.00    +0.000 C 
ATOM     28  O   UNL     1      -5.446  12.197  22.260  0.00  0.00    +0.000 OA
ENDBRANCH  26  28
ENDBRANCH  25  26
ENDBRANCH  21  25
ENDBRANCH   1  22
TORSDOF 5
ENDMDL
MODEL 8
REMARK VINA RESULT:      -7.5      3.891     10.557
REMARK  Name = 
REMARK  7 active torsions:
REMARK  status: ('A' for Active; 'I' for Inactive)
REMARK    1  A    between atoms: C_1  and  O_2
REMARK    2  A    between atoms: O_2  and  C_3
REMARK    3  A    between atoms: C_3  and  C_4
REMARK    4  A    between atoms: C_4  and  N_5
REMARK    5  A    between atoms: C_6  and  C_8
REMARK    6  A    between atoms: C_11  and  C_12
REMARK    7  A    between atoms: C_16  and  C_17
REMARK                            x       y       z     vdW  Elec       q    Type
REMARK                         _______ _______ _______ _____ _____    ______ ____
ROOT
ATOM      1  C   UNL     1      -0.860  11.116  22.371  0.00  0.00    +0.000 A 
ATOM      2  C   UNL     1      -0.249  10.037  23.006  0.00  0.00    +0.000 A 
ATOM      3  C   UNL     1       0.487   9.112  22.253  0.00  0.00    +0.000 A 
ATOM      4  C   UNL     1       0.612   9.204  20.844  0.00  0.00    +0.000 A 
ATOM      5  C   UNL     1      -0.041  10.300  20.231  0.00  0.00    +0.000 A 
ATOM      6 CL   UNL     1      -0.122  10.536  18.513  0.00  0.00    +0.000 Cl
ATOM      7  C   UNL     1      -0.743  11.249  20.988  0.00  0.00    +0.000 A 
ENDROOT
BRANCH   4   8
ATOM      8  C   UNL     1       1.396   8.160  20.117  0.00  0.00    +0.000 A 
ATOM      9  C   UNL     1       2.043   8.418  18.899  0.00  0.00    +0.000 A 
ATOM     10  C   UNL     1       2.777   7.434  18.215  0.00  0.00    +0.000 A 
ATOM     11  C   UNL     1       2.958   6.163  18.759  0.00  0.00    +0.000 A 
ATOM     12  C   UNL     1       3.772   5.102  18.124  0.00  0.00    +0.000 A 
ATOM     13  C   UNL     1       4.471   5.299  16.807  0.00  0.00    +0.000 C 
ATOM     14  C   UNL     1       3.907   3.924  18.763  0.00  0.00    +0.000 A 
ATOM     15  C   UNL     1       3.272   3.647  20.064  0.00  0.00    +0.000 A 
ATOM     16  O   UNL     1       3.424   2.565  20.627  0.00  0.00    +0.000 OA
ATOM     17  N   UNL     1       2.519   4.649  20.604  0.00  0.00    +0.000 N 
ATOM     18  C   UNL     1       2.343   5.899  19.992  0.00  0.00    +0.000 A 
ATOM     19  C   UNL     1       1.561   6.865  20.646  0.00  0.00    +0.000 A 
ATOM     20  H   UNL     1       2.096   4.449  21.500  0.00  0.00    +0.000 HD
ENDBRANCH   4   8
BRANCH   1  22
ATOM     21  N   UNL     1      -2.987  11.674  23.442  0.00  0.00    +0.000 N 
ATOM     22  C   UNL     1      -1.718  12.086  23.100  0.00  0.00    +0.000 C 
ATOM     23  O   UNL     1      -1.272  13.193  23.386  0.00  0.00    +0.000 OA
ATOM     24  H   UNL     1      -3.168  10.680  23.516  0.00  0.00    +0.000 HD
BRANCH  21  25
ATOM     25  C   UNL     1      -3.810  12.538  24.271  0.00  0.00    +0.000 C 
BRANCH  25  26
ATOM     26  C   UNL     1      -4.905  13.232  23.465  0.00  0.00    +0.000 C 
BRANCH  26  28
ATOM     27  C   UNL     1      -4.080  15.308  22.710  0.00  0.00    +0.000 C 
ATOM     28  O   UNL     1      -4.836  14.640  23.712  0.00  0.00    +0.000 OA
ENDBRANCH  26  28
ENDBRANCH  25  26
ENDBRANCH  21  25
ENDBRANCH   1  22
TORSDOF 5
ENDMDL
MODEL 9
REMARK VINA RESULT:      -7.4      3.687     10.587
REMARK  Name = 
REMARK  7 active torsions:
REMARK  status: ('A' for Active; 'I' for Inactive)
REMARK    1  A    between atoms: C_1  and  O_2
REMARK    2  A    between atoms: O_2  and  C_3
REMARK    3  A    between atoms: C_3  and  C_4
REMARK    4  A    between atoms: C_4  and  N_5
REMARK    5  A    between atoms: C_6  and  C_8
REMARK    6  A    between atoms: C_11  and  C_12
REMARK    7  A    between atoms: C_16  and  C_17
REMARK                            x       y       z     vdW  Elec       q    Type
REMARK                         _______ _______ _______ _____ _____    ______ ____
ROOT
ATOM      1  C   UNL     1      -0.716  10.887  22.251  0.00  0.00    +0.000 A 
ATOM      2  C   UNL     1       0.060   9.882  22.824  0.00  0.00    +0.000 A 
ATOM      3  C   UNL     1       0.840   9.052  22.006  0.00  0.00    +0.000 A 
ATOM      4  C   UNL     1       0.850   9.166  20.594  0.00  0.00    +0.000 A 
ATOM      5  C   UNL     1       0.033  10.183  20.045  0.00  0.00    +0.000 A 
ATOM      6 CL   UNL     1      -0.201  10.419  18.341  0.00  0.00    +0.000 Cl
ATOM      7  C   UNL     1      -0.717  11.041  20.865  0.00  0.00    +0.000 A 
ENDROOT
BRANCH   4   8
ATOM      8  C   UNL     1       1.693   8.224  19.797  0.00  0.00    +0.000 A 
ATOM      9  C   UNL     1       2.283   8.589  18.578  0.00  0.00    +0.000 A 
ATOM     10  C   UNL     1       3.072   7.701  17.829  0.00  0.00    +0.000 A 
ATOM     11  C   UNL     1       3.368   6.424  18.304  0.00  0.00    +0.000 A 
ATOM     12  C   UNL     1       4.244   5.463  17.598  0.00  0.00    +0.000 A 
ATOM     13  C   UNL     1       4.888   5.778  16.276  0.00  0.00    +0.000 C 
ATOM     14  C   UNL     1       4.489   4.271  18.175  0.00  0.00    +0.000 A 
ATOM     15  C   UNL     1       3.915   3.882  19.475  0.00  0.00    +0.000 A 
ATOM     16  O   UNL     1       4.168   2.791  19.980  0.00  0.00    +0.000 OA
ATOM     17  N   UNL     1       3.101   4.795  20.082  0.00  0.00    +0.000 N 
ATOM     18  C   UNL     1       2.811   6.054  19.538  0.00  0.00    +0.000 A 
ATOM     19  C   UNL     1       1.973   6.923  20.257  0.00  0.00    +0.000 A 
ATOM     20  H   UNL     1       2.721   4.519  20.977  0.00  0.00    +0.000 HD
ENDBRANCH   4   8
BRANCH   1  22
ATOM     21  N   UNL     1      -1.246  13.059  23.243  0.00  0.00    +0.000 N 
ATOM     22  C   UNL     1      -1.622  11.747  23.054  0.00  0.00    +0.000 C 
ATOM     23  O   UNL     1      -2.666  11.278  23.498  0.00  0.00    +0.000 OA
ATOM     24  H   UNL     1      -0.604  13.476  22.579  0.00  0.00    +0.000 HD
BRANCH  21  25
ATOM     25  C   UNL     1      -2.164  13.968  23.905  0.00  0.00    +0.000 C 
BRANCH  25  26
ATOM     26  C   UNL     1      -1.582  15.374  24.040  0.00  0.00    +0.000 C 
BRANCH  26  28
ATOM     27  C   UNL     1      -0.521  16.288  25.937  0.00  0.00    +0.000 C 
ATOM     28  O   UNL     1      -0.441  15.318  24.901  0.00  0.00    +0.000 OA
ENDBRANCH  26  28
ENDBRANCH  25  26
ENDBRANCH  21  25
ENDBRANCH   1  22
TORSDOF 5
ENDMDL
