MODEL 1
REMARK VINA RESULT:      -7.4      0.000      0.000
REMARK  Name = 
REMARK  8 active torsions:
REMARK  status: ('A' for Active; 'I' for Inactive)
REMARK    1  A    between atoms: C_2  and  C_4
REMARK    2  A    between atoms: C_4  and  N_5
REMARK    3  A    between atoms: N_5  and  C_6
REMARK    4  A    between atoms: C_6  and  C_7
REMARK    5  A    between atoms: C_8  and  C_10
REMARK    6  A    between atoms: C_10  and  C_11
REMARK    7  A    between atoms: C_22  and  C_23
REMARK    8  A    between atoms: C_23  and  N_24
REMARK                            x       y       z     vdW  Elec       q    Type
REMARK                         _______ _______ _______ _____ _____    ______ ____
ROOT
ATOM      1  C   UNL     1       4.761   5.745  17.881  0.00  0.00    +0.000 C 
ATOM      2  C   UNL     1       6.150   6.401  17.767  0.00  0.00    +0.000 C 
ATOM      3  C   UNL     1       5.466   5.948  16.514  0.00  0.00    +0.000 C 
ENDROOT
BRANCH   1   4
ATOM      4  C   UNL     1       3.612   6.713  18.246  0.00  0.00    +0.000 A 
ATOM      5  C   UNL     1       3.189   7.723  17.355  0.00  0.00    +0.000 A 
ATOM      6  C   UNL     1       2.243   8.685  17.719  0.00  0.00    +0.000 A 
ATOM      7  C   UNL     1       1.687   8.658  18.991  0.00  0.00    +0.000 A 
ATOM      8  C   UNL     1       2.023   7.629  19.872  0.00  0.00    +0.000 A 
ATOM      9  C   UNL     1       2.970   6.666  19.500  0.00  0.00    +0.000 A 
ATOM     10  O   UNL     1       1.493   7.526  21.134  0.00  0.00    +0.000 OA
ATOM     11  C   UNL     1       0.372   8.401  21.318  0.00  0.00    +0.000 C 
ATOM     12  C   UNL     1       0.639   9.773  20.723  0.00  0.00    +0.000 C 
ATOM     13  O   UNL     1       0.828   9.677  19.307  0.00  0.00    +0.000 OA
ENDBRANCH   1   4
BRANCH   1  15
ATOM     14  N   UNL     1       3.837   3.397  18.112  0.00  0.00    +0.000 N 
ATOM     15  C   UNL     1       4.750   4.373  18.563  0.00  0.00    +0.000 C 
ATOM     16  O   UNL     1       5.522   4.174  19.496  0.00  0.00    +0.000 OA
BRANCH  14  17
ATOM     17  C   UNL     1       2.786   3.744  17.155  0.00  0.00    +0.000 C 
ATOM     18  C   UNL     1       1.423   4.151  17.690  0.00  0.00    +0.000 C 
ENDBRANCH  14  17
BRANCH  14  19
ATOM     19  C   UNL     1       3.750   2.166  18.890  0.00  0.00    +0.000 C 
BRANCH  19  21
ATOM     20  C   UNL     1       2.628   2.900  21.027  0.00  0.00    +0.000 C 
ATOM     21  C   UNL     1       2.609   2.218  19.878  0.00  0.00    +0.000 C 
ATOM     22  F   UNL     1       1.456   1.580  19.557  0.00  0.00    +0.000 F 
ENDBRANCH  19  21
ENDBRANCH  14  19
ENDBRANCH   1  15
BRANCH   3  23
ATOM     23  C   UNL     1       5.875   4.777  15.682  0.00  0.00    +0.000 C 
BRANCH  23  24
ATOM     24  N   UNL     1       7.311   4.690  15.489  0.00  0.00    +0.000 NA
ATOM     25  H   UNL     1       7.670   3.857  15.950  0.00  0.00    +0.000 HD
ATOM     26  H   UNL     1       7.788   5.493  15.890  0.00  0.00    +0.000 HD
ENDBRANCH  23  24
ENDBRANCH   3  23
TORSDOF 7
ENDMDL
MODEL 2
REMARK VINA RESULT:      -7.4      2.192      3.898
REMARK  Name = 
REMARK  8 active torsions:
REMARK  status: ('A' for Active; 'I' for Inactive)
REMARK    1  A    between atoms: C_2  and  C_4
REMARK    2  A    between atoms: C_4  and  N_5
REMARK    3  A    between atoms: N_5  and  C_6
REMARK    4  A    between atoms: C_6  and  C_7
REMARK    5  A    between atoms: C_8  and  C_10
REMARK    6  A    between atoms: C_10  and  C_11
REMARK    7  A    between atoms: C_22  and  C_23
REMARK    8  A    between atoms: C_23  and  N_24
REMARK                            x       y       z     vdW  Elec       q    Type
REMARK                         _______ _______ _______ _____ _____    ______ ____
ROOT
ATOM      1  C   UNL     1       3.492   5.302  18.617  0.00  0.00    +0.000 C 
ATOM      2  C   UNL     1       2.948   4.418  17.479  0.00  0.00    +0.000 C 
ATOM      3  C   UNL     1       2.772   3.956  18.893  0.00  0.00    +0.000 C 
ENDROOT
BRANCH   1   4
ATOM      4  C   UNL     1       2.697   6.605  18.865  0.00  0.00    +0.000 A 
ATOM      5  C   UNL     1       2.488   7.547  17.833  0.00  0.00    +0.000 A 
ATOM      6  C   UNL     1       1.884   8.784  18.070  0.00  0.00    +0.000 A 
ATOM      7  C   UNL     1       1.467   9.113  19.353  0.00  0.00    +0.000 A 
ATOM      8  C   UNL     1       1.587   8.178  20.382  0.00  0.00    +0.000 A 
ATOM      9  C   UNL     1       2.190   6.937  20.137  0.00  0.00    +0.000 A 
ATOM     10  O   UNL     1       1.172   8.425  21.667  0.00  0.00    +0.000 OA
ATOM     11  C   UNL     1       0.361   9.604  21.751  0.00  0.00    +0.000 C 
ATOM     12  C   UNL     1       0.939  10.734  20.915  0.00  0.00    +0.000 C 
ATOM     13  O   UNL     1       0.958  10.373  19.529  0.00  0.00    +0.000 OA
ENDBRANCH   1   4
BRANCH   1  15
ATOM     14  N   UNL     1       5.734   5.661  17.492  0.00  0.00    +0.000 N 
ATOM     15  C   UNL     1       5.019   5.403  18.681  0.00  0.00    +0.000 C 
ATOM     16  O   UNL     1       5.576   5.234  19.762  0.00  0.00    +0.000 OA
BRANCH  14  17
ATOM     17  C   UNL     1       5.057   5.633  16.194  0.00  0.00    +0.000 C 
ATOM     18  C   UNL     1       5.854   5.214  14.970  0.00  0.00    +0.000 C 
ENDBRANCH  14  17
BRANCH  14  19
ATOM     19  C   UNL     1       7.189   5.590  17.568  0.00  0.00    +0.000 C 
BRANCH  19  21
ATOM     20  C   UNL     1       7.563   8.082  17.446  0.00  0.00    +0.000 C 
ATOM     21  C   UNL     1       7.781   6.900  18.031  0.00  0.00    +0.000 C 
ATOM     22  F   UNL     1       8.539   6.898  19.155  0.00  0.00    +0.000 F 
ENDBRANCH  19  21
ENDBRANCH  14  19
ENDBRANCH   1  15
BRANCH   3  23
ATOM     23  C   UNL     1       3.499   2.815  19.526  0.00  0.00    +0.000 C 
BRANCH  23  24
ATOM     24  N   UNL     1       3.968   1.835  18.564  0.00  0.00    +0.000 NA
ATOM     25  H   UNL     1       3.251   1.671  17.861  0.00  0.00    +0.000 HD
ATOM     26  H   UNL     1       4.172   0.945  19.010  0.00  0.00    +0.000 HD
ENDBRANCH  23  24
ENDBRANCH   3  23
TORSDOF 7
ENDMDL
MODEL 3
REMARK VINA RESULT:      -7.3      1.221      1.317
REMARK  Name = 
REMARK  8 active torsions:
REMARK  status: ('A' for Active; 'I' for Inactive)
REMARK    1  A    between atoms: C_2  and  C_4
REMARK    2  A    between atoms: C_4  and  N_5
REMARK    3  A    between atoms: N_5  and  C_6
REMARK    4  A    between atoms: C_6  and  C_7
REMARK    5  A    between atoms: C_8  and  C_10
REMARK    6  A    between atoms: C_10  and  C_11
REMARK    7  A    between atoms: C_22  and  C_23
REMARK    8  A    between atoms: C_23  and  N_24
REMARK                            x       y       z     vdW  Elec       q    Type
REMARK                         _______ _______ _______ _____ _____    ______ ____
ROOT
ATOM      1  C   UNL     1       4.163   5.925  18.136  0.00  0.00    +0.000 C 
ATOM      2  C   UNL     1       5.507   6.437  17.583  0.00  0.00    +0.000 C 
ATOM      3  C   UNL     1       4.583   5.703  16.660  0.00  0.00    +0.000 C 
ENDROOT
BRANCH   1   4
ATOM      4  C   UNL     1       3.118   7.027  18.426  0.00  0.00    +0.000 A 
ATOM      5  C   UNL     1       2.822   8.029  17.476  0.00  0.00    +0.000 A 
ATOM      6  C   UNL     1       1.977   9.103  17.770  0.00  0.00    +0.000 A 
ATOM      7  C   UNL     1       1.399   9.202  19.028  0.00  0.00    +0.000 A 
ATOM      8  C   UNL     1       1.607   8.190  19.967  0.00  0.00    +0.000 A 
ATOM      9  C   UNL     1       2.453   7.114  19.665  0.00  0.00    +0.000 A 
ATOM     10  O   UNL     1       1.047   8.209  21.220  0.00  0.00    +0.000 OA
ATOM     11  C   UNL     1       0.023   9.206  21.334  0.00  0.00    +0.000 C 
ATOM     12  C   UNL     1       0.446  10.510  20.678  0.00  0.00    +0.000 C 
ATOM     13  O   UNL     1       0.648  10.321  19.273  0.00  0.00    +0.000 OA
ENDBRANCH   1   4
BRANCH   1  15
ATOM     14  N   UNL     1       3.266   3.812  19.208  0.00  0.00    +0.000 N 
ATOM     15  C   UNL     1       4.277   4.795  19.163  0.00  0.00    +0.000 C 
ATOM     16  O   UNL     1       5.234   4.793  19.932  0.00  0.00    +0.000 OA
BRANCH  14  17
ATOM     17  C   UNL     1       2.035   3.973  18.434  0.00  0.00    +0.000 C 
ATOM     18  C   UNL     1       1.114   2.773  18.278  0.00  0.00    +0.000 C 
ENDBRANCH  14  17
BRANCH  14  19
ATOM     19  C   UNL     1       3.331   2.849  20.302  0.00  0.00    +0.000 C 
BRANCH  19  21
ATOM     20  C   UNL     1       1.499   2.374  21.971  0.00  0.00    +0.000 C 
ATOM     21  C   UNL     1       2.377   3.215  21.415  0.00  0.00    +0.000 C 
ATOM     22  F   UNL     1       2.451   4.464  21.936  0.00  0.00    +0.000 F 
ENDBRANCH  19  21
ENDBRANCH  14  19
ENDBRANCH   1  15
BRANCH   3  23
ATOM     23  C   UNL     1       4.809   4.326  16.126  0.00  0.00    +0.000 C 
BRANCH  23  24
ATOM     24  N   UNL     1       6.191   3.895  16.230  0.00  0.00    +0.000 NA
ATOM     25  H   UNL     1       6.577   4.189  17.124  0.00  0.00    +0.000 HD
ATOM     26  H   UNL     1       6.763   4.305  15.498  0.00  0.00    +0.000 HD
ENDBRANCH  23  24
ENDBRANCH   3  23
TORSDOF 7
ENDMDL
MODEL 4
REMARK VINA RESULT:      -7.3      2.140      4.021
REMARK  Name = 
REMARK  8 active torsions:
REMARK  status: ('A' for Active; 'I' for Inactive)
REMARK    1  A    between atoms: C_2  and  C_4
REMARK    2  A    between atoms: C_4  and  N_5
REMARK    3  A    between atoms: N_5  and  C_6
REMARK    4  A    between atoms: C_6  and  C_7
REMARK    5  A    between atoms: C_8  and  C_10
REMARK    6  A    between atoms: C_10  and  C_11
REMARK    7  A    between atoms: C_22  and  C_23
REMARK    8  A    between atoms: C_23  and  N_24
REMARK                            x       y       z     vdW  Elec       q    Type
REMARK                         _______ _______ _______ _____ _____    ______ ____
ROOT
ATOM      1  C   UNL     1       3.264   4.753  18.637  0.00  0.00    +0.000 C 
ATOM      2  C   UNL     1       2.611   4.143  17.383  0.00  0.00    +0.000 C 
ATOM      3  C   UNL     1       2.309   3.534  18.717  0.00  0.00    +0.000 C 
ENDROOT
BRANCH   1   4
ATOM      4  C   UNL     1       2.704   6.132  19.056  0.00  0.00    +0.000 A 
ATOM      5  C   UNL     1       2.124   6.335  20.328  0.00  0.00    +0.000 A 
ATOM      6  C   UNL     1       1.500   7.537  20.675  0.00  0.00    +0.000 A 
ATOM      7  C   UNL     1       1.443   8.575  19.754  0.00  0.00    +0.000 A 
ATOM      8  C   UNL     1       2.073   8.438  18.516  0.00  0.00    +0.000 A 
ATOM      9  C   UNL     1       2.700   7.232  18.176  0.00  0.00    +0.000 A 
ATOM     10  O   UNL     1       2.078   9.432  17.569  0.00  0.00    +0.000 OA
ATOM     11  C   UNL     1       1.633  10.685  18.104  0.00  0.00    +0.000 C 
ATOM     12  C   UNL     1       0.418  10.503  18.998  0.00  0.00    +0.000 C 
ATOM     13  O   UNL     1       0.746   9.692  20.132  0.00  0.00    +0.000 OA
ENDBRANCH   1   4
BRANCH   1  15
ATOM     14  N   UNL     1       5.587   5.023  17.662  0.00  0.00    +0.000 N 
ATOM     15  C   UNL     1       4.782   4.568  18.728  0.00  0.00    +0.000 C 
ATOM     16  O   UNL     1       5.250   4.008  19.715  0.00  0.00    +0.000 OA
BRANCH  14  17
ATOM     17  C   UNL     1       4.980   5.478  16.410  0.00  0.00    +0.000 C 
ATOM     18  C   UNL     1       5.557   4.971  15.099  0.00  0.00    +0.000 C 
ENDBRANCH  14  17
BRANCH  14  19
ATOM     19  C   UNL     1       7.005   4.685  17.715  0.00  0.00    +0.000 C 
BRANCH  19  21
ATOM     20  C   UNL     1       7.830   7.036  18.110  0.00  0.00    +0.000 C 
ATOM     21  C   UNL     1       7.797   5.743  18.446  0.00  0.00    +0.000 C 
ATOM     22  F   UNL     1       8.476   5.377  19.561  0.00  0.00    +0.000 F 
ENDBRANCH  19  21
ENDBRANCH  14  19
ENDBRANCH   1  15
BRANCH   3  23
ATOM     23  C   UNL     1       2.800   2.205  19.192  0.00  0.00    +0.000 C 
BRANCH  23  24
ATOM     24  N   UNL     1       3.239   1.342  18.111  0.00  0.00    +0.000 NA
ATOM     25  H   UNL     1       3.258   0.375  18.428  0.00  0.00    +0.000 HD
ATOM     26  H   UNL     1       4.176   1.583  17.801  0.00  0.00    +0.000 HD
ENDBRANCH  23  24
ENDBRANCH   3  23
TORSDOF 7
ENDMDL
MODEL 5
REMARK VINA RESULT:      -7.2      2.238      4.306
REMARK  Name = 
REMARK  8 active torsions:
REMARK  status: ('A' for Active; 'I' for Inactive)
REMARK    1  A    between atoms: C_2  and  C_4
REMARK    2  A    between atoms: C_4  and  N_5
REMARK    3  A    between atoms: N_5  and  C_6
REMARK    4  A    between atoms: C_6  and  C_7
REMARK    5  A    between atoms: C_8  and  C_10
REMARK    6  A    between atoms: C_10  and  C_11
REMARK    7  A    between atoms: C_22  and  C_23
REMARK    8  A    between atoms: C_23  and  N_24
REMARK                            x       y       z     vdW  Elec       q    Type
REMARK                         _______ _______ _______ _____ _____    ______ ____
ROOT
ATOM      1  C   UNL     1       3.314   4.099  18.406  0.00  0.00    +0.000 C 
ATOM      2  C   UNL     1       2.168   3.104  18.139  0.00  0.00    +0.000 C 
ATOM      3  C   UNL     1       3.012   2.916  19.363  0.00  0.00    +0.000 C 
ENDROOT
BRANCH   1   4
ATOM      4  C   UNL     1       2.861   5.511  18.844  0.00  0.00    +0.000 A 
ATOM      5  C   UNL     1       2.372   5.755  20.146  0.00  0.00    +0.000 A 
ATOM      6  C   UNL     1       1.841   6.993  20.518  0.00  0.00    +0.000 A 
ATOM      7  C   UNL     1       1.788   8.027  19.593  0.00  0.00    +0.000 A 
ATOM      8  C   UNL     1       2.331   7.846  18.320  0.00  0.00    +0.000 A 
ATOM      9  C   UNL     1       2.866   6.603  17.954  0.00  0.00    +0.000 A 
ATOM     10  O   UNL     1       2.336   8.832  17.365  0.00  0.00    +0.000 OA
ATOM     11  C   UNL     1       1.997  10.112  17.914  0.00  0.00    +0.000 C 
ATOM     12  C   UNL     1       0.831  10.007  18.882  0.00  0.00    +0.000 C 
ATOM     13  O   UNL     1       1.180   9.185  20.001  0.00  0.00    +0.000 OA
ENDBRANCH   1   4
BRANCH   1  15
ATOM     14  N   UNL     1       5.767   4.390  17.843  0.00  0.00    +0.000 N 
ATOM     15  C   UNL     1       4.475   4.025  17.409  0.00  0.00    +0.000 C 
ATOM     16  O   UNL     1       4.241   3.673  16.257  0.00  0.00    +0.000 OA
BRANCH  14  17
ATOM     17  C   UNL     1       5.966   5.017  19.150  0.00  0.00    +0.000 C 
ATOM     18  C   UNL     1       7.299   5.687  19.438  0.00  0.00    +0.000 C 
ENDBRANCH  14  17
BRANCH  14  19
ATOM     19  C   UNL     1       6.810   4.459  16.825  0.00  0.00    +0.000 C 
BRANCH  19  21
ATOM     20  C   UNL     1       6.633   5.219  14.426  0.00  0.00    +0.000 C 
ATOM     21  C   UNL     1       6.448   5.436  15.731  0.00  0.00    +0.000 C 
ATOM     22  F   UNL     1       5.835   6.593  16.084  0.00  0.00    +0.000 F 
ENDBRANCH  19  21
ENDBRANCH  14  19
ENDBRANCH   1  15
BRANCH   3  23
ATOM     23  C   UNL     1       4.007   1.821  19.566  0.00  0.00    +0.000 C 
BRANCH  23  24
ATOM     24  N   UNL     1       3.928   0.786  18.552  0.00  0.00    +0.000 NA
ATOM     25  H   UNL     1       3.893   1.210  17.628  0.00  0.00    +0.000 HD
ATOM     26  H   UNL     1       3.090   0.221  18.663  0.00  0.00    +0.000 HD
ENDBRANCH  23  24
ENDBRANCH   3  23
TORSDOF 7
ENDMDL
MODEL 6
REMARK VINA RESULT:      -7.2      2.297      4.320
REMARK  Name = 
REMARK  8 active torsions:
REMARK  status: ('A' for Active; 'I' for Inactive)
REMARK    1  A    between atoms: C_2  and  C_4
REMARK    2  A    between atoms: C_4  and  N_5
REMARK    3  A    between atoms: N_5  and  C_6
REMARK    4  A    between atoms: C_6  and  C_7
REMARK    5  A    between atoms: C_8  and  C_10
REMARK    6  A    between atoms: C_10  and  C_11
REMARK    7  A    between atoms: C_22  and  C_23
REMARK    8  A    between atoms: C_23  and  N_24
REMARK                            x       y       z     vdW  Elec       q    Type
REMARK                         _______ _______ _______ _____ _____    ______ ____
ROOT
ATOM      1  C   UNL     1       2.846   4.147  18.887  0.00  0.00    +0.000 C 
ATOM      2  C   UNL     1       1.899   3.107  19.517  0.00  0.00    +0.000 C 
ATOM      3  C   UNL     1       3.287   3.239  20.065  0.00  0.00    +0.000 C 
ENDROOT
BRANCH   1   4
ATOM      4  C   UNL     1       2.500   5.620  19.207  0.00  0.00    +0.000 A 
ATOM      5  C   UNL     1       2.022   6.004  20.480  0.00  0.00    +0.000 A 
ATOM      6  C   UNL     1       1.585   7.304  20.746  0.00  0.00    +0.000 A 
ATOM      7  C   UNL     1       1.617   8.262  19.741  0.00  0.00    +0.000 A 
ATOM      8  C   UNL     1       2.154   7.939  18.494  0.00  0.00    +0.000 A 
ATOM      9  C   UNL     1       2.595   6.634  18.234  0.00  0.00    +0.000 A 
ATOM     10  O   UNL     1       2.242   8.843  17.464  0.00  0.00    +0.000 OA
ATOM     11  C   UNL     1       1.998  10.184  17.905  0.00  0.00    +0.000 C 
ATOM     12  C   UNL     1       0.820  10.246  18.863  0.00  0.00    +0.000 C 
ATOM     13  O   UNL     1       1.098   9.492  20.048  0.00  0.00    +0.000 OA
ENDBRANCH   1   4
BRANCH   1  15
ATOM     14  N   UNL     1       4.583   4.195  17.043  0.00  0.00    +0.000 N 
ATOM     15  C   UNL     1       3.280   3.837  17.452  0.00  0.00    +0.000 C 
ATOM     16  O   UNL     1       2.473   3.306  16.694  0.00  0.00    +0.000 OA
BRANCH  14  17
ATOM     17  C   UNL     1       5.432   5.023  17.900  0.00  0.00    +0.000 C 
ATOM     18  C   UNL     1       6.838   4.537  18.214  0.00  0.00    +0.000 C 
ENDBRANCH  14  17
BRANCH  14  19
ATOM     19  C   UNL     1       4.899   4.027  15.629  0.00  0.00    +0.000 C 
BRANCH  19  21
ATOM     20  C   UNL     1       6.867   5.155  14.525  0.00  0.00    +0.000 C 
ATOM     21  C   UNL     1       5.658   5.217  15.090  0.00  0.00    +0.000 C 
ATOM     22  F   UNL     1       5.052   6.429  15.120  0.00  0.00    +0.000 F 
ENDBRANCH  19  21
ENDBRANCH  14  19
ENDBRANCH   1  15
BRANCH   3  23
ATOM     23  C   UNL     1       4.383   2.239  19.893  0.00  0.00    +0.000 C 
BRANCH  23  24
ATOM     24  N   UNL     1       4.990   1.838  21.149  0.00  0.00    +0.000 NA
ATOM     25  H   UNL     1       5.355   0.892  21.069  0.00  0.00    +0.000 HD
ATOM     26  H   UNL     1       4.312   1.843  21.906  0.00  0.00    +0.000 HD
ENDBRANCH  23  24
ENDBRANCH   3  23
TORSDOF 7
ENDMDL
MODEL 7
REMARK VINA RESULT:      -6.9      1.217      1.855
REMARK  Name = 
REMARK  8 active torsions:
REMARK  status: ('A' for Active; 'I' for Inactive)
REMARK    1  A    between atoms: C_2  and  C_4
REMARK    2  A    between atoms: C_4  and  N_5
REMARK    3  A    between atoms: N_5  and  C_6
REMARK    4  A    between atoms: C_6  and  C_7
REMARK    5  A    between atoms: C_8  and  C_10
REMARK    6  A    between atoms: C_10  and  C_11
REMARK    7  A    between atoms: C_22  and  C_23
REMARK    8  A    between atoms: C_23  and  N_24
REMARK                            x       y       z     vdW  Elec       q    Type
REMARK                         _______ _______ _______ _____ _____    ______ ____
ROOT
ATOM      1  C   UNL     1       4.709   5.474  17.681  0.00  0.00    +0.000 C 
ATOM      2  C   UNL     1       6.069   6.048  17.239  0.00  0.00    +0.000 C 
ATOM      3  C   UNL     1       5.078   5.656  16.186  0.00  0.00    +0.000 C 
ENDROOT
BRANCH   1   4
ATOM      4  C   UNL     1       3.744   6.503  18.313  0.00  0.00    +0.000 A 
ATOM      5  C   UNL     1       3.113   6.256  19.552  0.00  0.00    +0.000 A 
ATOM      6  C   UNL     1       2.143   7.116  20.074  0.00  0.00    +0.000 A 
ATOM      7  C   UNL     1       1.778   8.254  19.368  0.00  0.00    +0.000 A 
ATOM      8  C   UNL     1       2.435   8.571  18.178  0.00  0.00    +0.000 A 
ATOM      9  C   UNL     1       3.410   7.707  17.661  0.00  0.00    +0.000 A 
ATOM     10  O   UNL     1       2.144   9.693  17.442  0.00  0.00    +0.000 OA
ATOM     11  C   UNL     1       1.325  10.615  18.171  0.00  0.00    +0.000 C 
ATOM     12  C   UNL     1       0.215   9.897  18.919  0.00  0.00    +0.000 C 
ATOM     13  O   UNL     1       0.764   9.008  19.898  0.00  0.00    +0.000 OA
ENDBRANCH   1   4
BRANCH   1  15
ATOM     14  N   UNL     1       3.723   3.182  18.126  0.00  0.00    +0.000 N 
ATOM     15  C   UNL     1       4.778   4.095  18.344  0.00  0.00    +0.000 C 
ATOM     16  O   UNL     1       5.737   3.834  19.064  0.00  0.00    +0.000 OA
BRANCH  14  17
ATOM     17  C   UNL     1       2.497   3.608  17.450  0.00  0.00    +0.000 C 
ATOM     18  C   UNL     1       1.170   3.408  18.162  0.00  0.00    +0.000 C 
ENDBRANCH  14  17
BRANCH  14  19
ATOM     19  C   UNL     1       3.749   1.946  18.900  0.00  0.00    +0.000 C 
BRANCH  19  21
ATOM     20  C   UNL     1       2.772   2.798  21.064  0.00  0.00    +0.000 C 
ATOM     21  C   UNL     1       3.770   2.227  20.384  0.00  0.00    +0.000 C 
ATOM     22  F   UNL     1       4.848   1.817  21.097  0.00  0.00    +0.000 F 
ENDBRANCH  19  21
ENDBRANCH  14  19
ENDBRANCH   1  15
BRANCH   3  23
ATOM     23  C   UNL     1       5.203   4.476  15.278  0.00  0.00    +0.000 C 
BRANCH  23  24
ATOM     24  N   UNL     1       6.570   4.220  14.863  0.00  0.00    +0.000 NA
ATOM     25  H   UNL     1       7.133   3.962  15.670  0.00  0.00    +0.000 HD
ATOM     26  H   UNL     1       6.991   5.045  14.445  0.00  0.00    +0.000 HD
ENDBRANCH  23  24
ENDBRANCH   3  23
TORSDOF 7
ENDMDL
MODEL 8
REMARK VINA RESULT:      -6.9      2.348      4.434
REMARK  Name = 
REMARK  8 active torsions:
REMARK  status: ('A' for Active; 'I' for Inactive)
REMARK    1  A    between atoms: C_2  and  C_4
REMARK    2  A    between atoms: C_4  and  N_5
REMARK    3  A    between atoms: N_5  and  C_6
REMARK    4  A    between atoms: C_6  and  C_7
REMARK    5  A    between atoms: C_8  and  C_10
REMARK    6  A    between atoms: C_10  and  C_11
REMARK    7  A    between atoms: C_22  and  C_23
REMARK    8  A    between atoms: C_23  and  N_24
REMARK                            x       y       z     vdW  Elec       q    Type
REMARK                         _______ _______ _______ _____ _____    ______ ____
ROOT
ATOM      1  C   UNL     1       2.094   4.948  19.428  0.00  0.00    +0.000 C 
ATOM      2  C   UNL     1       0.935   4.108  19.999  0.00  0.00    +0.000 C 
ATOM      3  C   UNL     1       2.252   4.094  20.714  0.00  0.00    +0.000 C 
ENDROOT
BRANCH   1   4
ATOM      4  C   UNL     1       1.935   6.476  19.597  0.00  0.00    +0.000 A 
ATOM      5  C   UNL     1       1.503   7.041  20.817  0.00  0.00    +0.000 A 
ATOM      6  C   UNL     1       1.232   8.405  20.948  0.00  0.00    +0.000 A 
ATOM      7  C   UNL     1       1.390   9.247  19.856  0.00  0.00    +0.000 A 
ATOM      8  C   UNL     1       1.888   8.739  18.655  0.00  0.00    +0.000 A 
ATOM      9  C   UNL     1       2.162   7.370  18.532  0.00  0.00    +0.000 A 
ATOM     10  O   UNL     1       2.094   9.518  17.544  0.00  0.00    +0.000 OA
ATOM     11  C   UNL     1       2.020  10.916  17.849  0.00  0.00    +0.000 C 
ATOM     12  C   UNL     1       0.854  11.219  18.775  0.00  0.00    +0.000 C 
ATOM     13  O   UNL     1       1.028  10.557  20.033  0.00  0.00    +0.000 OA
ENDBRANCH   1   4
BRANCH   1  15
ATOM     14  N   UNL     1       4.016   4.642  17.806  0.00  0.00    +0.000 N 
ATOM     15  C   UNL     1       2.646   4.456  18.087  0.00  0.00    +0.000 C 
ATOM     16  O   UNL     1       1.874   3.935  17.287  0.00  0.00    +0.000 OA
BRANCH  14  17
ATOM     17  C   UNL     1       4.852   5.463  18.682  0.00  0.00    +0.000 C 
ATOM     18  C   UNL     1       6.101   4.841  19.285  0.00  0.00    +0.000 C 
ENDBRANCH  14  17
BRANCH  14  19
ATOM     19  C   UNL     1       4.465   4.305  16.459  0.00  0.00    +0.000 C 
BRANCH  19  21
ATOM     20  C   UNL     1       6.613   5.207  15.492  0.00  0.00    +0.000 C 
ATOM     21  C   UNL     1       5.350   5.388  15.887  0.00  0.00    +0.000 C 
ATOM     22  F   UNL     1       4.813   6.619  15.698  0.00  0.00    +0.000 F 
ENDBRANCH  19  21
ENDBRANCH  14  19
ENDBRANCH   1  15
BRANCH   3  23
ATOM     23  C   UNL     1       3.199   2.940  20.756  0.00  0.00    +0.000 C 
BRANCH  23  24
ATOM     24  N   UNL     1       3.033   2.110  21.935  0.00  0.00    +0.000 NA
ATOM     25  H   UNL     1       3.450   2.570  22.742  0.00  0.00    +0.000 HD
ATOM     26  H   UNL     1       3.491   1.210  21.823  0.00  0.00    +0.000 HD
ENDBRANCH  23  24
ENDBRANCH   3  23
TORSDOF 7
ENDMDL
MODEL 9
REMARK VINA RESULT:      -6.7      3.202      5.042
REMARK  Name = 
REMARK  8 active torsions:
REMARK  status: ('A' for Active; 'I' for Inactive)
REMARK    1  A    between atoms: C_2  and  C_4
REMARK    2  A    between atoms: C_4  and  N_5
REMARK    3  A    between atoms: N_5  and  C_6
REMARK    4  A    between atoms: C_6  and  C_7
REMARK    5  A    between atoms: C_8  and  C_10
REMARK    6  A    between atoms: C_10  and  C_11
REMARK    7  A    between atoms: C_22  and  C_23
REMARK    8  A    between atoms: C_23  and  N_24
REMARK                            x       y       z     vdW  Elec       q    Type
REMARK                         _______ _______ _______ _____ _____    ______ ____
ROOT
ATOM      1  C   UNL     1       6.565   5.543  18.261  0.00  0.00    +0.000 C 
ATOM      2  C   UNL     1       7.612   5.870  19.343  0.00  0.00    +0.000 C 
ATOM      3  C   UNL     1       7.099   6.983  18.482  0.00  0.00    +0.000 C 
ENDROOT
BRANCH   1   4
ATOM      4  C   UNL     1       5.155   5.210  18.799  0.00  0.00    +0.000 A 
ATOM      5  C   UNL     1       4.202   6.224  19.042  0.00  0.00    +0.000 A 
ATOM      6  C   UNL     1       2.971   5.954  19.647  0.00  0.00    +0.000 A 
ATOM      7  C   UNL     1       2.658   4.655  20.024  0.00  0.00    +0.000 A 
ATOM      8  C   UNL     1       3.542   3.616  19.730  0.00  0.00    +0.000 A 
ATOM      9  C   UNL     1       4.773   3.892  19.120  0.00  0.00    +0.000 A 
ATOM     10  O   UNL     1       3.285   2.306  20.050  0.00  0.00    +0.000 OA
ATOM     11  C   UNL     1       1.920   2.107  20.438  0.00  0.00    +0.000 C 
ATOM     12  C   UNL     1       1.440   3.215  21.360  0.00  0.00    +0.000 C 
ATOM     13  O   UNL     1       1.471   4.477  20.685  0.00  0.00    +0.000 OA
ENDBRANCH   1   4
BRANCH   1  15
ATOM     14  N   UNL     1       6.359   4.666  15.893  0.00  0.00    +0.000 N 
ATOM     15  C   UNL     1       7.083   4.684  17.104  0.00  0.00    +0.000 C 
ATOM     16  O   UNL     1       8.100   4.017  17.273  0.00  0.00    +0.000 OA
BRANCH  14  17
ATOM     17  C   UNL     1       5.038   5.291  15.805  0.00  0.00    +0.000 C 
ATOM     18  C   UNL     1       4.955   6.757  15.414  0.00  0.00    +0.000 C 
ENDBRANCH  14  17
BRANCH  14  19
ATOM     19  C   UNL     1       6.795   3.715  14.877  0.00  0.00    +0.000 C 
BRANCH  19  21
ATOM     20  C   UNL     1       6.256   3.883  12.418  0.00  0.00    +0.000 C 
ATOM     21  C   UNL     1       6.859   4.358  13.511  0.00  0.00    +0.000 C 
ATOM     22  F   UNL     1       7.523   5.534  13.389  0.00  0.00    +0.000 F 
ENDBRANCH  19  21
ENDBRANCH  14  19
ENDBRANCH   1  15
BRANCH   3  23
ATOM     23  C   UNL     1       7.881   7.682  17.418  0.00  0.00    +0.000 C 
BRANCH  23  24
ATOM     24  N   UNL     1       8.223   9.048  17.769  0.00  0.00    +0.000 NA
ATOM     25  H   UNL     1       8.307   9.134  18.779  0.00  0.00    +0.000 HD
ATOM     26  H   UNL     1       7.506   9.700  17.463  0.00  0.00    +0.000 HD
ENDBRANCH  23  24
ENDBRANCH   3  23
TORSDOF 7
ENDMDL
