MODEL 1
REMARK VINA RESULT:      -7.6      0.000      0.000
REMARK  Name = 
REMARK  3 active torsions:
REMARK  status: ('A' for Active; 'I' for Inactive)
REMARK    1  A    between atoms: C_5  and  C_6
REMARK    2  A    between atoms: C_6  and  C_7
REMARK    3  A    between atoms: C_9  and  C_10
REMARK                            x       y       z     vdW  Elec       q    Type
REMARK                         _______ _______ _______ _____ _____    ______ ____
ROOT
ATOM      1  C   UNL     1       2.441   4.909  18.836  0.00  0.00    +0.000 C 
ATOM      2  C   UNL     1       1.581   3.791  19.429  0.00  0.00    +0.000 C 
ATOM      3  C   UNL     1       1.472   4.092  17.978  0.00  0.00    +0.000 C 
ENDROOT
BRANCH   1   8
ATOM      4  F   UNL     1       1.245  10.329  19.983  0.00  0.00    +0.000 F 
ATOM      5  C   UNL     1       1.517   9.048  19.712  0.00  0.00    +0.000 A 
ATOM      6  C   UNL     1       1.429   8.094  20.716  0.00  0.00    +0.000 A 
ATOM      7  C   UNL     1       1.717   6.758  20.438  0.00  0.00    +0.000 A 
ATOM      8  C   UNL     1       2.106   6.348  19.145  0.00  0.00    +0.000 A 
ATOM      9  C   UNL     1       2.178   7.346  18.147  0.00  0.00    +0.000 A 
ATOM     10  C   UNL     1       1.894   8.686  18.426  0.00  0.00    +0.000 A 
ENDBRANCH   1   8
BRANCH   1  11
ATOM     11  C   UNL     1       3.926   4.584  18.600  0.00  0.00    +0.000 A 
ATOM     12  N   UNL     1       4.393   4.411  17.386  0.00  0.00    +0.000 NA
ATOM     13  C   UNL     1       5.738   4.324  17.583  0.00  0.00    +0.000 A 
ATOM     14  N   UNL     1       6.127   4.404  18.861  0.00  0.00    +0.000 NA
ATOM     15  O   UNL     1       4.908   4.541  19.554  0.00  0.00    +0.000 OA
BRANCH  13  16
ATOM     16  C   UNL     1       6.606   4.332  16.395  0.00  0.00    +0.000 C 
ATOM     17  C   UNL     1       5.817   4.025  15.139  0.00  0.00    +0.000 C 
ATOM     18  C   UNL     1       6.784   4.437  14.060  0.00  0.00    +0.000 C 
ATOM     19  O   UNL     1       7.558   5.526  14.592  0.00  0.00    +0.000 OA
ATOM     20  C   UNL     1       7.313   5.611  16.013  0.00  0.00    +0.000 C 
ENDBRANCH  13  16
ENDBRANCH   1  11
TORSDOF 3
ENDMDL
MODEL 2
REMARK VINA RESULT:      -7.6      0.157      1.087
REMARK  Name = 
REMARK  3 active torsions:
REMARK  status: ('A' for Active; 'I' for Inactive)
REMARK    1  A    between atoms: C_5  and  C_6
REMARK    2  A    between atoms: C_6  and  C_7
REMARK    3  A    between atoms: C_9  and  C_10
REMARK                            x       y       z     vdW  Elec       q    Type
REMARK                         _______ _______ _______ _____ _____    ______ ____
ROOT
ATOM      1  C   UNL     1       2.511   4.847  18.790  0.00  0.00    +0.000 C 
ATOM      2  C   UNL     1       1.670   3.700  19.355  0.00  0.00    +0.000 C 
ATOM      3  C   UNL     1       1.533   4.055  17.919  0.00  0.00    +0.000 C 
ENDROOT
BRANCH   1   8
ATOM      4  F   UNL     1       1.168  10.173  20.189  0.00  0.00    +0.000 F 
ATOM      5  C   UNL     1       1.495   8.918  19.859  0.00  0.00    +0.000 A 
ATOM      6  C   UNL     1       1.950   8.634  18.579  0.00  0.00    +0.000 A 
ATOM      7  C   UNL     1       2.287   7.327  18.232  0.00  0.00    +0.000 A 
ATOM      8  C   UNL     1       2.170   6.270  19.160  0.00  0.00    +0.000 A 
ATOM      9  C   UNL     1       1.710   6.599  20.455  0.00  0.00    +0.000 A 
ATOM     10  C   UNL     1       1.368   7.909  20.803  0.00  0.00    +0.000 A 
ENDBRANCH   1   8
BRANCH   1  11
ATOM     11  C   UNL     1       3.993   4.543  18.517  0.00  0.00    +0.000 A 
ATOM     12  N   UNL     1       4.430   4.371  17.291  0.00  0.00    +0.000 NA
ATOM     13  C   UNL     1       5.781   4.306  17.453  0.00  0.00    +0.000 A 
ATOM     14  N   UNL     1       6.204   4.399  18.720  0.00  0.00    +0.000 NA
ATOM     15  O   UNL     1       5.002   4.521  19.444  0.00  0.00    +0.000 OA
BRANCH  13  16
ATOM     16  C   UNL     1       6.618   4.320  16.242  0.00  0.00    +0.000 C 
ATOM     17  C   UNL     1       5.783   4.095  14.999  0.00  0.00    +0.000 C 
ATOM     18  C   UNL     1       6.738   4.504  13.908  0.00  0.00    +0.000 C 
ATOM     19  O   UNL     1       7.572   5.539  14.457  0.00  0.00    +0.000 OA
ATOM     20  C   UNL     1       7.369   5.582  15.886  0.00  0.00    +0.000 C 
ENDBRANCH  13  16
ENDBRANCH   1  11
TORSDOF 3
ENDMDL
MODEL 3
REMARK VINA RESULT:      -7.4      3.020      4.977
REMARK  Name = 
REMARK  3 active torsions:
REMARK  status: ('A' for Active; 'I' for Inactive)
REMARK    1  A    between atoms: C_5  and  C_6
REMARK    2  A    between atoms: C_6  and  C_7
REMARK    3  A    between atoms: C_9  and  C_10
REMARK                            x       y       z     vdW  Elec       q    Type
REMARK                         _______ _______ _______ _____ _____    ______ ____
ROOT
ATOM      1  C   UNL     1       6.543   5.042  16.817  0.00  0.00    +0.000 C 
ATOM      2  C   UNL     1       7.364   6.023  17.656  0.00  0.00    +0.000 C 
ATOM      3  C   UNL     1       7.608   4.566  17.807  0.00  0.00    +0.000 C 
ENDROOT
BRANCH   1   8
ATOM      4  F   UNL     1       1.068   4.174  17.999  0.00  0.00    +0.000 F 
ATOM      5  C   UNL     1       2.363   4.380  17.730  0.00  0.00    +0.000 A 
ATOM      6  C   UNL     1       2.866   5.673  17.702  0.00  0.00    +0.000 A 
ATOM      7  C   UNL     1       4.213   5.892  17.416  0.00  0.00    +0.000 A 
ATOM      8  C   UNL     1       5.088   4.817  17.148  0.00  0.00    +0.000 A 
ATOM      9  C   UNL     1       4.540   3.515  17.193  0.00  0.00    +0.000 A 
ATOM     10  C   UNL     1       3.189   3.296  17.475  0.00  0.00    +0.000 A 
ENDBRANCH   1   8
BRANCH   1  11
ATOM     11  C   UNL     1       6.942   4.899  15.339  0.00  0.00    +0.000 A 
ATOM     12  N   UNL     1       6.329   4.043  14.555  0.00  0.00    +0.000 NA
ATOM     13  C   UNL     1       6.832   4.339  13.324  0.00  0.00    +0.000 A 
ATOM     14  N   UNL     1       7.747   5.315  13.307  0.00  0.00    +0.000 NA
ATOM     15  O   UNL     1       7.854   5.670  14.666  0.00  0.00    +0.000 OA
BRANCH  13  16
ATOM     16  C   UNL     1       6.205   3.699  12.157  0.00  0.00    +0.000 C 
ATOM     17  C   UNL     1       6.599   2.241  12.055  0.00  0.00    +0.000 C 
ATOM     18  C   UNL     1       5.596   1.718  11.060  0.00  0.00    +0.000 C 
ATOM     19  O   UNL     1       4.394   2.486  11.243  0.00  0.00    +0.000 OA
ATOM     20  C   UNL     1       4.698   3.618  12.087  0.00  0.00    +0.000 C 
ENDBRANCH  13  16
ENDBRANCH   1  11
TORSDOF 3
ENDMDL
MODEL 4
REMARK VINA RESULT:      -7.3      3.580      6.830
REMARK  Name = 
REMARK  3 active torsions:
REMARK  status: ('A' for Active; 'I' for Inactive)
REMARK    1  A    between atoms: C_5  and  C_6
REMARK    2  A    between atoms: C_6  and  C_7
REMARK    3  A    between atoms: C_9  and  C_10
REMARK                            x       y       z     vdW  Elec       q    Type
REMARK                         _______ _______ _______ _____ _____    ______ ____
ROOT
ATOM      1  C   UNL     1       6.269   5.343  16.784  0.00  0.00    +0.000 C 
ATOM      2  C   UNL     1       7.182   4.783  17.878  0.00  0.00    +0.000 C 
ATOM      3  C   UNL     1       7.339   6.200  17.463  0.00  0.00    +0.000 C 
ENDROOT
BRANCH   1   8
ATOM      4  F   UNL     1       7.040   3.802  11.385  0.00  0.00    +0.000 F 
ATOM      5  C   UNL     1       6.862   4.156  12.662  0.00  0.00    +0.000 A 
ATOM      6  C   UNL     1       5.793   3.640  13.382  0.00  0.00    +0.000 A 
ATOM      7  C   UNL     1       5.602   4.011  14.712  0.00  0.00    +0.000 A 
ATOM      8  C   UNL     1       6.477   4.916  15.351  0.00  0.00    +0.000 A 
ATOM      9  C   UNL     1       7.557   5.415  14.589  0.00  0.00    +0.000 A 
ATOM     10  C   UNL     1       7.746   5.046  13.255  0.00  0.00    +0.000 A 
ENDBRANCH   1   8
BRANCH   1  11
ATOM     11  C   UNL     1       4.827   5.681  17.199  0.00  0.00    +0.000 A 
ATOM     12  N   UNL     1       3.949   4.731  17.420  0.00  0.00    +0.000 NA
ATOM     13  C   UNL     1       2.881   5.410  17.923  0.00  0.00    +0.000 A 
ATOM     14  N   UNL     1       3.040   6.737  17.998  0.00  0.00    +0.000 NA
ATOM     15  O   UNL     1       4.334   6.929  17.476  0.00  0.00    +0.000 OA
BRANCH  13  16
ATOM     16  C   UNL     1       1.770   4.623  18.481  0.00  0.00    +0.000 C 
ATOM     17  C   UNL     1       1.833   3.183  18.016  0.00  0.00    +0.000 C 
ATOM     18  C   UNL     1       0.870   2.512  18.960  0.00  0.00    +0.000 C 
ATOM     19  O   UNL     1       0.939   3.234  20.202  0.00  0.00    +0.000 OA
ATOM     20  C   UNL     1       1.668   4.461  19.980  0.00  0.00    +0.000 C 
ENDBRANCH  13  16
ENDBRANCH   1  11
TORSDOF 3
ENDMDL
MODEL 5
REMARK VINA RESULT:      -7.3      2.609      4.485
REMARK  Name = 
REMARK  3 active torsions:
REMARK  status: ('A' for Active; 'I' for Inactive)
REMARK    1  A    between atoms: C_5  and  C_6
REMARK    2  A    between atoms: C_6  and  C_7
REMARK    3  A    between atoms: C_9  and  C_10
REMARK                            x       y       z     vdW  Elec       q    Type
REMARK                         _______ _______ _______ _____ _____    ______ ____
ROOT
ATOM      1  C   UNL     1       6.655   5.557  17.620  0.00  0.00    +0.000 C 
ATOM      2  C   UNL     1       7.526   6.678  18.193  0.00  0.00    +0.000 C 
ATOM      3  C   UNL     1       7.824   5.272  18.565  0.00  0.00    +0.000 C 
ENDROOT
BRANCH   1   8
ATOM      4  F   UNL     1       1.360   4.820  19.502  0.00  0.00    +0.000 F 
ATOM      5  C   UNL     1       2.611   5.003  19.064  0.00  0.00    +0.000 A 
ATOM      6  C   UNL     1       2.878   5.986  18.121  0.00  0.00    +0.000 A 
ATOM      7  C   UNL     1       4.180   6.175  17.659  0.00  0.00    +0.000 A 
ATOM      8  C   UNL     1       5.246   5.377  18.128  0.00  0.00    +0.000 A 
ATOM      9  C   UNL     1       4.936   4.391  19.092  0.00  0.00    +0.000 A 
ATOM     10  C   UNL     1       3.631   4.199  19.553  0.00  0.00    +0.000 A 
ENDBRANCH   1   8
BRANCH   1  11
ATOM     11  C   UNL     1       6.914   5.166  16.155  0.00  0.00    +0.000 A 
ATOM     12  N   UNL     1       6.285   4.152  15.608  0.00  0.00    +0.000 NA
ATOM     13  C   UNL     1       6.641   4.240  14.297  0.00  0.00    +0.000 A 
ATOM     14  N   UNL     1       7.483   5.240  14.006  0.00  0.00    +0.000 NA
ATOM     15  O   UNL     1       7.700   5.843  15.261  0.00  0.00    +0.000 OA
BRANCH  13  16
ATOM     16  C   UNL     1       5.945   3.368  13.337  0.00  0.00    +0.000 C 
ATOM     17  C   UNL     1       4.764   4.079  12.710  0.00  0.00    +0.000 C 
ATOM     18  C   UNL     1       4.445   3.177  11.546  0.00  0.00    +0.000 C 
ATOM     19  O   UNL     1       5.690   2.600  11.118  0.00  0.00    +0.000 OA
ATOM     20  C   UNL     1       6.692   2.875  12.120  0.00  0.00    +0.000 C 
ENDBRANCH  13  16
ENDBRANCH   1  11
TORSDOF 3
ENDMDL
MODEL 6
REMARK VINA RESULT:      -7.3      3.600      6.856
REMARK  Name = 
REMARK  3 active torsions:
REMARK  status: ('A' for Active; 'I' for Inactive)
REMARK    1  A    between atoms: C_5  and  C_6
REMARK    2  A    between atoms: C_6  and  C_7
REMARK    3  A    between atoms: C_9  and  C_10
REMARK                            x       y       z     vdW  Elec       q    Type
REMARK                         _______ _______ _______ _____ _____    ______ ____
ROOT
ATOM      1  C   UNL     1       6.219   5.384  16.761  0.00  0.00    +0.000 C 
ATOM      2  C   UNL     1       7.149   4.846  17.850  0.00  0.00    +0.000 C 
ATOM      3  C   UNL     1       7.277   6.265  17.430  0.00  0.00    +0.000 C 
ENDROOT
BRANCH   1   8
ATOM      4  F   UNL     1       7.011   3.715  11.402  0.00  0.00    +0.000 F 
ATOM      5  C   UNL     1       6.820   4.118  12.664  0.00  0.00    +0.000 A 
ATOM      6  C   UNL     1       7.691   5.035  13.237  0.00  0.00    +0.000 A 
ATOM      7  C   UNL     1       7.497   5.453  14.553  0.00  0.00    +0.000 A 
ATOM      8  C   UNL     1       6.427   4.956  15.328  0.00  0.00    +0.000 A 
ATOM      9  C   UNL     1       5.559   4.030  14.708  0.00  0.00    +0.000 A 
ATOM     10  C   UNL     1       5.754   3.608  13.390  0.00  0.00    +0.000 A 
ENDBRANCH   1   8
BRANCH   1  11
ATOM     11  C   UNL     1       4.774   5.696  17.182  0.00  0.00    +0.000 A 
ATOM     12  N   UNL     1       3.908   4.731  17.385  0.00  0.00    +0.000 NA
ATOM     13  C   UNL     1       2.832   5.386  17.903  0.00  0.00    +0.000 A 
ATOM     14  N   UNL     1       2.974   6.713  18.004  0.00  0.00    +0.000 NA
ATOM     15  O   UNL     1       4.265   6.932  17.485  0.00  0.00    +0.000 OA
BRANCH  13  16
ATOM     16  C   UNL     1       1.732   4.574  18.446  0.00  0.00    +0.000 C 
ATOM     17  C   UNL     1       1.818   3.142  17.960  0.00  0.00    +0.000 C 
ATOM     18  C   UNL     1       0.863   2.443  18.891  0.00  0.00    +0.000 C 
ATOM     19  O   UNL     1       0.916   3.147  20.144  0.00  0.00    +0.000 OA
ATOM     20  C   UNL     1       1.627   4.388  19.941  0.00  0.00    +0.000 C 
ENDBRANCH  13  16
ENDBRANCH   1  11
TORSDOF 3
ENDMDL
MODEL 7
REMARK VINA RESULT:      -7.2      3.328      6.036
REMARK  Name = 
REMARK  3 active torsions:
REMARK  status: ('A' for Active; 'I' for Inactive)
REMARK    1  A    between atoms: C_5  and  C_6
REMARK    2  A    between atoms: C_6  and  C_7
REMARK    3  A    between atoms: C_9  and  C_10
REMARK                            x       y       z     vdW  Elec       q    Type
REMARK                         _______ _______ _______ _____ _____    ______ ____
ROOT
ATOM      1  C   UNL     1       5.427   4.949  16.582  0.00  0.00    +0.000 C 
ATOM      2  C   UNL     1       5.449   4.782  15.060  0.00  0.00    +0.000 C 
ATOM      3  C   UNL     1       5.941   3.671  15.915  0.00  0.00    +0.000 C 
ENDROOT
BRANCH   1   8
ATOM      4  F   UNL     1       9.112   8.429  19.119  0.00  0.00    +0.000 F 
ATOM      5  C   UNL     1       8.249   7.606  18.512  0.00  0.00    +0.000 A 
ATOM      6  C   UNL     1       7.498   8.061  17.436  0.00  0.00    +0.000 A 
ATOM      7  C   UNL     1       6.594   7.207  16.806  0.00  0.00    +0.000 A 
ATOM      8  C   UNL     1       6.418   5.877  17.242  0.00  0.00    +0.000 A 
ATOM      9  C   UNL     1       7.204   5.448  18.335  0.00  0.00    +0.000 A 
ATOM     10  C   UNL     1       8.107   6.304  18.971  0.00  0.00    +0.000 A 
ENDBRANCH   1   8
BRANCH   1  11
ATOM     11  C   UNL     1       4.060   4.799  17.270  0.00  0.00    +0.000 A 
ATOM     12  N   UNL     1       3.769   3.723  17.962  0.00  0.00    +0.000 NA
ATOM     13  C   UNL     1       2.579   4.042  18.542  0.00  0.00    +0.000 A 
ATOM     14  N   UNL     1       2.101   5.252  18.222  0.00  0.00    +0.000 NA
ATOM     15  O   UNL     1       3.076   5.750  17.335  0.00  0.00    +0.000 OA
BRANCH  13  16
ATOM     16  C   UNL     1       2.049   3.129  19.567  0.00  0.00    +0.000 C 
ATOM     17  C   UNL     1       3.123   2.744  20.563  0.00  0.00    +0.000 C 
ATOM     18  C   UNL     1       2.308   2.140  21.677  0.00  0.00    +0.000 C 
ATOM     19  O   UNL     1       1.046   2.828  21.685  0.00  0.00    +0.000 OA
ATOM     20  C   UNL     1       0.942   3.611  20.476  0.00  0.00    +0.000 C 
ENDBRANCH  13  16
ENDBRANCH   1  11
TORSDOF 3
ENDMDL
MODEL 8
REMARK VINA RESULT:      -7.2      3.323      5.957
REMARK  Name = 
REMARK  3 active torsions:
REMARK  status: ('A' for Active; 'I' for Inactive)
REMARK    1  A    between atoms: C_5  and  C_6
REMARK    2  A    between atoms: C_6  and  C_7
REMARK    3  A    between atoms: C_9  and  C_10
REMARK                            x       y       z     vdW  Elec       q    Type
REMARK                         _______ _______ _______ _____ _____    ______ ____
ROOT
ATOM      1  C   UNL     1       5.423   5.039  16.588  0.00  0.00    +0.000 C 
ATOM      2  C   UNL     1       5.452   4.910  15.063  0.00  0.00    +0.000 C 
ATOM      3  C   UNL     1       5.948   3.782  15.893  0.00  0.00    +0.000 C 
ENDROOT
BRANCH   1   8
ATOM      4  F   UNL     1       9.145   8.492  19.108  0.00  0.00    +0.000 F 
ATOM      5  C   UNL     1       8.260   7.678  18.522  0.00  0.00    +0.000 A 
ATOM      6  C   UNL     1       8.147   6.360  18.942  0.00  0.00    +0.000 A 
ATOM      7  C   UNL     1       7.229   5.508  18.329  0.00  0.00    +0.000 A 
ATOM      8  C   UNL     1       6.405   5.957  17.275  0.00  0.00    +0.000 A 
ATOM      9  C   UNL     1       6.545   7.307  16.879  0.00  0.00    +0.000 A 
ATOM     10  C   UNL     1       7.467   8.160  17.490  0.00  0.00    +0.000 A 
ENDBRANCH   1   8
BRANCH   1  11
ATOM     11  C   UNL     1       4.055   4.864  17.268  0.00  0.00    +0.000 A 
ATOM     12  N   UNL     1       3.777   3.779  17.953  0.00  0.00    +0.000 NA
ATOM     13  C   UNL     1       2.579   4.077  18.528  0.00  0.00    +0.000 A 
ATOM     14  N   UNL     1       2.083   5.280  18.211  0.00  0.00    +0.000 NA
ATOM     15  O   UNL     1       3.055   5.798  17.332  0.00  0.00    +0.000 OA
BRANCH  13  16
ATOM     16  C   UNL     1       2.058   3.151  19.545  0.00  0.00    +0.000 C 
ATOM     17  C   UNL     1       3.133   2.775  20.544  0.00  0.00    +0.000 C 
ATOM     18  C   UNL     1       2.323   2.153  21.651  0.00  0.00    +0.000 C 
ATOM     19  O   UNL     1       1.050   2.823  21.657  0.00  0.00    +0.000 OA
ATOM     20  C   UNL     1       0.940   3.611  20.451  0.00  0.00    +0.000 C 
ENDBRANCH  13  16
ENDBRANCH   1  11
TORSDOF 3
ENDMDL
MODEL 9
REMARK VINA RESULT:      -7.2      2.617      4.388
REMARK  Name = 
REMARK  3 active torsions:
REMARK  status: ('A' for Active; 'I' for Inactive)
REMARK    1  A    between atoms: C_5  and  C_6
REMARK    2  A    between atoms: C_6  and  C_7
REMARK    3  A    between atoms: C_9  and  C_10
REMARK                            x       y       z     vdW  Elec       q    Type
REMARK                         _______ _______ _______ _____ _____    ______ ____
ROOT
ATOM      1  C   UNL     1       6.590   5.765  17.551  0.00  0.00    +0.000 C 
ATOM      2  C   UNL     1       7.350   7.006  18.024  0.00  0.00    +0.000 C 
ATOM      3  C   UNL     1       7.780   5.670  18.509  0.00  0.00    +0.000 C 
ENDROOT
BRANCH   1   8
ATOM      4  F   UNL     1       1.380   4.816  19.572  0.00  0.00    +0.000 F 
ATOM      5  C   UNL     1       2.609   5.031  19.089  0.00  0.00    +0.000 A 
ATOM      6  C   UNL     1       3.680   4.287  19.564  0.00  0.00    +0.000 A 
ATOM      7  C   UNL     1       4.963   4.513  19.067  0.00  0.00    +0.000 A 
ATOM      8  C   UNL     1       5.203   5.496  18.083  0.00  0.00    +0.000 A 
ATOM      9  C   UNL     1       4.087   6.229  17.619  0.00  0.00    +0.000 A 
ATOM     10  C   UNL     1       2.802   6.005  18.120  0.00  0.00    +0.000 A 
ENDBRANCH   1   8
BRANCH   1  11
ATOM     11  C   UNL     1       6.885   5.280  16.122  0.00  0.00    +0.000 A 
ATOM     12  N   UNL     1       6.231   4.265  15.607  0.00  0.00    +0.000 NA
ATOM     13  C   UNL     1       6.640   4.264  14.308  0.00  0.00    +0.000 A 
ATOM     14  N   UNL     1       7.538   5.208  13.997  0.00  0.00    +0.000 NA
ATOM     15  O   UNL     1       7.735   5.871  15.224  0.00  0.00    +0.000 OA
BRANCH  13  16
ATOM     16  C   UNL     1       5.942   3.370  13.370  0.00  0.00    +0.000 C 
ATOM     17  C   UNL     1       4.772   4.073  12.714  0.00  0.00    +0.000 C 
ATOM     18  C   UNL     1       4.451   3.140  11.576  0.00  0.00    +0.000 C 
ATOM     19  O   UNL     1       5.692   2.538  11.173  0.00  0.00    +0.000 OA
ATOM     20  C   UNL     1       6.691   2.833  12.174  0.00  0.00    +0.000 C 
ENDBRANCH  13  16
ENDBRANCH   1  11
TORSDOF 3
ENDMDL
