MODEL 1
REMARK VINA RESULT:      -7.8      0.000      0.000
REMARK  Name = 
REMARK  8 active torsions:
REMARK  status: ('A' for Active; 'I' for Inactive)
REMARK    1  A    between atoms: C_1  and  O_2
REMARK    2  A    between atoms: O_2  and  C_3
REMARK    3  A    between atoms: C_6  and  C_7
REMARK    4  A    between atoms: C_12  and  O_14
REMARK    5  A    between atoms: O_14  and  C_15
REMARK    6  A    between atoms: C_15  and  C_16
REMARK    7  A    between atoms: N_25  and  C_26
REMARK    8  A    between atoms: C_26  and  C_27
REMARK                            x       y       z     vdW  Elec       q    Type
REMARK                         _______ _______ _______ _____ _____    ______ ____
ROOT
ATOM      1  C   UNL     1      -0.734  10.058  20.302  0.00  0.00    +0.000 C 
ATOM      2  C   UNL     1      -0.635  10.171  21.823  0.00  0.00    +0.000 C 
ATOM      3  C   UNL     1      -0.707  11.214  22.677  0.00  0.00    +0.000 C 
ATOM      4  C   UNL     1      -0.898  12.681  22.409  0.00  0.00    +0.000 C 
ATOM      5  N   UNL     1       0.291  13.249  21.795  0.00  0.00    +0.000 N 
ATOM      6  C   UNL     1       0.713  14.511  22.176  0.00  0.00    +0.000 C 
ATOM      7  O   UNL     1       0.174  15.180  23.056  0.00  0.00    +0.000 OA
ATOM      8  C   UNL     1       0.814  12.603  20.589  0.00  0.00    +0.000 C 
ATOM      9  C   UNL     1      -0.345  12.463  19.589  0.00  0.00    +0.000 C 
ATOM     10  O   UNL     1      -0.638  13.406  18.849  0.00  0.00    +0.000 OA
ATOM     11  N   UNL     1      -1.147  11.322  19.683  0.00  0.00    +0.000 N 
ENDROOT
BRANCH   1  15
ATOM     12  C   UNL     1       2.639   8.079  18.321  0.00  0.00    +0.000 A 
ATOM     13  C   UNL     1       1.950   9.118  17.696  0.00  0.00    +0.000 A 
ATOM     14  C   UNL     1       0.889   9.768  18.344  0.00  0.00    +0.000 A 
ATOM     15  C   UNL     1       0.485   9.388  19.638  0.00  0.00    +0.000 A 
ATOM     16  C   UNL     1       1.254   8.397  20.272  0.00  0.00    +0.000 A 
ATOM     17  C   UNL     1       2.283   7.723  19.614  0.00  0.00    +0.000 A 
BRANCH  12  19
ATOM     18  C   UNL     1       3.929   6.134  17.949  0.00  0.00    +0.000 C 
ATOM     19  O   UNL     1       3.624   7.478  17.585  0.00  0.00    +0.000 OA
ENDBRANCH  12  19
ENDBRANCH   1  15
BRANCH   6  20
ATOM     20  O   UNL     1       1.812  14.910  21.490  0.00  0.00    +0.000 OA
BRANCH  20  21
ATOM     21  C   UNL     1       1.784  16.198  20.867  0.00  0.00    +0.000 C 
BRANCH  21  22
ATOM     22  C   UNL     1       2.433  16.084  19.509  0.00  0.00    +0.000 A 
ATOM     23  C   UNL     1       2.228  17.062  18.525  0.00  0.00    +0.000 A 
ATOM     24  C   UNL     1       2.828  16.942  17.270  0.00  0.00    +0.000 A 
ATOM     25  C   UNL     1       3.632  15.840  16.981  0.00  0.00    +0.000 A 
ATOM     26  C   UNL     1       3.828  14.853  17.947  0.00  0.00    +0.000 A 
ATOM     27  C   UNL     1       3.228  14.972  19.201  0.00  0.00    +0.000 A 
ENDBRANCH  21  22
ENDBRANCH  20  21
ENDBRANCH   6  20
BRANCH  11  28
ATOM     28  C   UNL     1      -2.558  11.478  19.350  0.00  0.00    +0.000 C 
BRANCH  28  29
ATOM     29  C   UNL     1      -2.987  11.034  17.973  0.00  0.00    +0.000 A 
ATOM     30  C   UNL     1      -4.100  11.603  17.335  0.00  0.00    +0.000 A 
ATOM     31  C   UNL     1      -4.362  11.321  15.990  0.00  0.00    +0.000 A 
ATOM     32  C   UNL     1      -3.520  10.465  15.289  0.00  0.00    +0.000 A 
ATOM     33  F   UNL     1      -3.744  10.238  13.987  0.00  0.00    +0.000 F 
ATOM     34  C   UNL     1      -2.440   9.857  15.912  0.00  0.00    +0.000 A 
ATOM     35  C   UNL     1      -2.182  10.131  17.256  0.00  0.00    +0.000 A 
ENDBRANCH  28  29
ENDBRANCH  11  28
TORSDOF 7
ENDMDL
MODEL 2
REMARK VINA RESULT:      -7.7      1.424      1.834
REMARK  Name = 
REMARK  8 active torsions:
REMARK  status: ('A' for Active; 'I' for Inactive)
REMARK    1  A    between atoms: C_1  and  O_2
REMARK    2  A    between atoms: O_2  and  C_3
REMARK    3  A    between atoms: C_6  and  C_7
REMARK    4  A    between atoms: C_12  and  O_14
REMARK    5  A    between atoms: O_14  and  C_15
REMARK    6  A    between atoms: C_15  and  C_16
REMARK    7  A    between atoms: N_25  and  C_26
REMARK    8  A    between atoms: C_26  and  C_27
REMARK                            x       y       z     vdW  Elec       q    Type
REMARK                         _______ _______ _______ _____ _____    ______ ____
ROOT
ATOM      1  C   UNL     1      -0.456  10.597  19.535  0.00  0.00    +0.000 C 
ATOM      2  C   UNL     1      -0.876  10.791  20.991  0.00  0.00    +0.000 C 
ATOM      3  C   UNL     1      -0.914  11.867  21.806  0.00  0.00    +0.000 C 
ATOM      4  C   UNL     1      -0.520  13.295  21.552  0.00  0.00    +0.000 C 
ATOM      5  N   UNL     1       0.925  13.416  21.436  0.00  0.00    +0.000 N 
ATOM      6  C   UNL     1       1.560  14.509  21.998  0.00  0.00    +0.000 C 
ATOM      7  O   UNL     1       0.985  15.378  22.651  0.00  0.00    +0.000 OA
ATOM      8  C   UNL     1       1.610  12.548  20.475  0.00  0.00    +0.000 C 
ATOM      9  C   UNL     1       0.905  12.699  19.117  0.00  0.00    +0.000 C 
ATOM     10  O   UNL     1       1.211  13.627  18.363  0.00  0.00    +0.000 OA
ATOM     11  N   UNL     1      -0.196  11.876  18.864  0.00  0.00    +0.000 N 
ENDROOT
BRANCH   1  15
ATOM     12  C   UNL     1       2.559   7.485  18.874  0.00  0.00    +0.000 A 
ATOM     13  C   UNL     1       2.175   8.342  17.843  0.00  0.00    +0.000 A 
ATOM     14  C   UNL     1       1.231   9.356  18.065  0.00  0.00    +0.000 A 
ATOM     15  C   UNL     1       0.638   9.533  19.329  0.00  0.00    +0.000 A 
ATOM     16  C   UNL     1       1.109   8.708  20.366  0.00  0.00    +0.000 A 
ATOM     17  C   UNL     1       2.018   7.675  20.138  0.00  0.00    +0.000 A 
BRANCH  12  19
ATOM     18  C   UNL     1       3.635   5.484  19.526  0.00  0.00    +0.000 C 
ATOM     19  O   UNL     1       3.448   6.500  18.542  0.00  0.00    +0.000 OA
ENDBRANCH  12  19
ENDBRANCH   1  15
BRANCH   6  20
ATOM     20  O   UNL     1       2.898  14.492  21.776  0.00  0.00    +0.000 OA
BRANCH  20  21
ATOM     21  C   UNL     1       3.529  15.716  21.387  0.00  0.00    +0.000 C 
BRANCH  21  22
ATOM     22  C   UNL     1       3.540  15.787  19.880  0.00  0.00    +0.000 A 
ATOM     23  C   UNL     1       4.404  14.982  19.123  0.00  0.00    +0.000 A 
ATOM     24  C   UNL     1       4.409  15.063  17.729  0.00  0.00    +0.000 A 
ATOM     25  C   UNL     1       3.559  15.955  17.077  0.00  0.00    +0.000 A 
ATOM     26  C   UNL     1       2.709  16.773  17.820  0.00  0.00    +0.000 A 
ATOM     27  C   UNL     1       2.703  16.693  19.213  0.00  0.00    +0.000 A 
ENDBRANCH  21  22
ENDBRANCH  20  21
ENDBRANCH   6  20
BRANCH  11  28
ATOM     28  C   UNL     1      -1.267  12.438  18.049  0.00  0.00    +0.000 C 
BRANCH  28  29
ATOM     29  C   UNL     1      -2.639  11.831  18.214  0.00  0.00    +0.000 A 
ATOM     30  C   UNL     1      -3.542  12.317  19.172  0.00  0.00    +0.000 A 
ATOM     31  C   UNL     1      -4.870  11.875  19.175  0.00  0.00    +0.000 A 
ATOM     32  C   UNL     1      -5.290  10.945  18.232  0.00  0.00    +0.000 A 
ATOM     33  F   UNL     1      -6.575  10.563  18.206  0.00  0.00    +0.000 F 
ATOM     34  C   UNL     1      -4.402  10.419  17.305  0.00  0.00    +0.000 A 
ATOM     35  C   UNL     1      -3.076  10.852  17.304  0.00  0.00    +0.000 A 
ENDBRANCH  28  29
ENDBRANCH  11  28
TORSDOF 7
ENDMDL
MODEL 3
REMARK VINA RESULT:      -7.7      0.877      1.461
REMARK  Name = 
REMARK  8 active torsions:
REMARK  status: ('A' for Active; 'I' for Inactive)
REMARK    1  A    between atoms: C_1  and  O_2
REMARK    2  A    between atoms: O_2  and  C_3
REMARK    3  A    between atoms: C_6  and  C_7
REMARK    4  A    between atoms: C_12  and  O_14
REMARK    5  A    between atoms: O_14  and  C_15
REMARK    6  A    between atoms: C_15  and  C_16
REMARK    7  A    between atoms: N_25  and  C_26
REMARK    8  A    between atoms: C_26  and  C_27
REMARK                            x       y       z     vdW  Elec       q    Type
REMARK                         _______ _______ _______ _____ _____    ______ ____
ROOT
ATOM      1  C   UNL     1      -0.742  10.671  20.209  0.00  0.00    +0.000 C 
ATOM      2  C   UNL     1      -0.696  10.876  21.723  0.00  0.00    +0.000 C 
ATOM      3  C   UNL     1      -0.563  11.970  22.503  0.00  0.00    +0.000 C 
ATOM      4  C   UNL     1      -0.389  13.416  22.130  0.00  0.00    +0.000 C 
ATOM      5  N   UNL     1       0.930  13.644  21.563  0.00  0.00    +0.000 N 
ATOM      6  C   UNL     1       1.618  14.799  21.891  0.00  0.00    +0.000 C 
ATOM      7  O   UNL     1       1.209  15.641  22.688  0.00  0.00    +0.000 OA
ATOM      8  C   UNL     1       1.347  12.802  20.438  0.00  0.00    +0.000 C 
ATOM      9  C   UNL     1       0.240  12.858  19.373  0.00  0.00    +0.000 C 
ATOM     10  O   UNL     1       0.216  13.783  18.557  0.00  0.00    +0.000 OA
ATOM     11  N   UNL     1      -0.812  11.946  19.485  0.00  0.00    +0.000 N 
ENDROOT
BRANCH   1  15
ATOM     12  C   UNL     1       2.374   7.951  18.757  0.00  0.00    +0.000 A 
ATOM     13  C   UNL     1       1.926   7.889  20.076  0.00  0.00    +0.000 A 
ATOM     14  C   UNL     1       0.908   8.742  20.530  0.00  0.00    +0.000 A 
ATOM     15  C   UNL     1       0.316   9.688  19.672  0.00  0.00    +0.000 A 
ATOM     16  C   UNL     1       0.731   9.667  18.329  0.00  0.00    +0.000 A 
ATOM     17  C   UNL     1       1.770   8.847  17.887  0.00  0.00    +0.000 A 
BRANCH  12  19
ATOM     18  C   UNL     1       3.259   5.762  18.865  0.00  0.00    +0.000 C 
ATOM     19  O   UNL     1       3.403   7.112  18.428  0.00  0.00    +0.000 OA
ENDBRANCH  12  19
ENDBRANCH   1  15
BRANCH   6  20
ATOM     20  O   UNL     1       2.815  14.878  21.257  0.00  0.00    +0.000 OA
BRANCH  20  21
ATOM     21  C   UNL     1       3.348  16.179  20.988  0.00  0.00    +0.000 C 
BRANCH  21  22
ATOM     22  C   UNL     1       2.855  16.624  19.634  0.00  0.00    +0.000 A 
ATOM     23  C   UNL     1       3.528  16.254  18.460  0.00  0.00    +0.000 A 
ATOM     24  C   UNL     1       3.066  16.679  17.213  0.00  0.00    +0.000 A 
ATOM     25  C   UNL     1       1.932  17.486  17.125  0.00  0.00    +0.000 A 
ATOM     26  C   UNL     1       1.266  17.875  18.286  0.00  0.00    +0.000 A 
ATOM     27  C   UNL     1       1.727  17.452  19.533  0.00  0.00    +0.000 A 
ENDBRANCH  21  22
ENDBRANCH  20  21
ENDBRANCH   6  20
BRANCH  11  28
ATOM     28  C   UNL     1      -2.128  12.398  19.048  0.00  0.00    +0.000 C 
BRANCH  28  29
ATOM     29  C   UNL     1      -2.773  11.632  17.919  0.00  0.00    +0.000 A 
ATOM     30  C   UNL     1      -4.165  11.627  17.740  0.00  0.00    +0.000 A 
ATOM     31  C   UNL     1      -4.724  11.078  16.582  0.00  0.00    +0.000 A 
ATOM     32  C   UNL     1      -3.896  10.525  15.611  0.00  0.00    +0.000 A 
ATOM     33  F   UNL     1      -4.433  10.047  14.480  0.00  0.00    +0.000 F 
ATOM     34  C   UNL     1      -2.521  10.480  15.788  0.00  0.00    +0.000 A 
ATOM     35  C   UNL     1      -1.962  11.021  16.946  0.00  0.00    +0.000 A 
ENDBRANCH  28  29
ENDBRANCH  11  28
TORSDOF 7
ENDMDL
MODEL 4
REMARK VINA RESULT:      -7.6      0.735      1.498
REMARK  Name = 
REMARK  8 active torsions:
REMARK  status: ('A' for Active; 'I' for Inactive)
REMARK    1  A    between atoms: C_1  and  O_2
REMARK    2  A    between atoms: O_2  and  C_3
REMARK    3  A    between atoms: C_6  and  C_7
REMARK    4  A    between atoms: C_12  and  O_14
REMARK    5  A    between atoms: O_14  and  C_15
REMARK    6  A    between atoms: C_15  and  C_16
REMARK    7  A    between atoms: N_25  and  C_26
REMARK    8  A    between atoms: C_26  and  C_27
REMARK                            x       y       z     vdW  Elec       q    Type
REMARK                         _______ _______ _______ _____ _____    ______ ____
ROOT
ATOM      1  C   UNL     1      -0.470   9.947  20.130  0.00  0.00    +0.000 C 
ATOM      2  C   UNL     1      -0.295  10.171  21.632  0.00  0.00    +0.000 C 
ATOM      3  C   UNL     1      -0.254  11.281  22.401  0.00  0.00    +0.000 C 
ATOM      4  C   UNL     1      -0.352  12.732  22.022  0.00  0.00    +0.000 C 
ATOM      5  N   UNL     1       0.847  13.159  21.318  0.00  0.00    +0.000 N 
ATOM      6  C   UNL     1       1.374  14.412  21.578  0.00  0.00    +0.000 C 
ATOM      7  O   UNL     1       0.925  15.186  22.421  0.00  0.00    +0.000 OA
ATOM      8  C   UNL     1       1.268  12.383  20.149  0.00  0.00    +0.000 C 
ATOM      9  C   UNL     1       0.059  12.253  19.209  0.00  0.00    +0.000 C 
ATOM     10  O   UNL     1      -0.199  13.154  18.407  0.00  0.00    +0.000 OA
ATOM     11  N   UNL     1      -0.818  11.187  19.427  0.00  0.00    +0.000 N 
ENDROOT
BRANCH   1  15
ATOM     12  C   UNL     1       2.861   7.713  18.361  0.00  0.00    +0.000 A 
ATOM     13  C   UNL     1       2.378   7.395  19.630  0.00  0.00    +0.000 A 
ATOM     14  C   UNL     1       1.292   8.093  20.181  0.00  0.00    +0.000 A 
ATOM     15  C   UNL     1       0.666   9.138  19.476  0.00  0.00    +0.000 A 
ATOM     16  C   UNL     1       1.122   9.376  18.168  0.00  0.00    +0.000 A 
ATOM     17  C   UNL     1       2.225   8.710  17.634  0.00  0.00    +0.000 A 
BRANCH  12  19
ATOM     18  C   UNL     1       4.200   5.783  18.623  0.00  0.00    +0.000 C 
ATOM     19  O   UNL     1       3.953   7.008  17.935  0.00  0.00    +0.000 OA
ENDBRANCH  12  19
ENDBRANCH   1  15
BRANCH   6  20
ATOM     20  O   UNL     1       2.468  14.672  20.820  0.00  0.00    +0.000 OA
BRANCH  20  21
ATOM     21  C   UNL     1       2.944  16.021  20.768  0.00  0.00    +0.000 C 
BRANCH  21  22
ATOM     22  C   UNL     1       2.539  16.618  19.443  0.00  0.00    +0.000 A 
ATOM     23  C   UNL     1       1.394  17.420  19.330  0.00  0.00    +0.000 A 
ATOM     24  C   UNL     1       1.025  17.961  18.096  0.00  0.00    +0.000 A 
ATOM     25  C   UNL     1       1.791  17.699  16.961  0.00  0.00    +0.000 A 
ATOM     26  C   UNL     1       2.922  16.888  17.058  0.00  0.00    +0.000 A 
ATOM     27  C   UNL     1       3.290  16.347  18.290  0.00  0.00    +0.000 A 
ENDBRANCH  21  22
ENDBRANCH  20  21
ENDBRANCH   6  20
BRANCH  11  28
ATOM     28  C   UNL     1      -2.228  11.422  19.137  0.00  0.00    +0.000 C 
BRANCH  28  29
ATOM     29  C   UNL     1      -2.696  11.118  17.735  0.00  0.00    +0.000 A 
ATOM     30  C   UNL     1      -2.040  10.171  16.934  0.00  0.00    +0.000 A 
ATOM     31  C   UNL     1      -2.603   9.763  15.720  0.00  0.00    +0.000 A 
ATOM     32  C   UNL     1      -3.813  10.307  15.304  0.00  0.00    +0.000 A 
ATOM     33  F   UNL     1      -4.374   9.876  14.166  0.00  0.00    +0.000 F 
ATOM     34  C   UNL     1      -4.456  11.277  16.059  0.00  0.00    +0.000 A 
ATOM     35  C   UNL     1      -3.892  11.691  17.266  0.00  0.00    +0.000 A 
ENDBRANCH  28  29
ENDBRANCH  11  28
TORSDOF 7
ENDMDL
MODEL 5
REMARK VINA RESULT:      -7.6      0.894      1.277
REMARK  Name = 
REMARK  8 active torsions:
REMARK  status: ('A' for Active; 'I' for Inactive)
REMARK    1  A    between atoms: C_1  and  O_2
REMARK    2  A    between atoms: O_2  and  C_3
REMARK    3  A    between atoms: C_6  and  C_7
REMARK    4  A    between atoms: C_12  and  O_14
REMARK    5  A    between atoms: O_14  and  C_15
REMARK    6  A    between atoms: C_15  and  C_16
REMARK    7  A    between atoms: N_25  and  C_26
REMARK    8  A    between atoms: C_26  and  C_27
REMARK                            x       y       z     vdW  Elec       q    Type
REMARK                         _______ _______ _______ _____ _____    ______ ____
ROOT
ATOM      1  C   UNL     1      -1.096  10.885  20.817  0.00  0.00    +0.000 C 
ATOM      2  C   UNL     1      -1.149  11.159  22.319  0.00  0.00    +0.000 C 
ATOM      3  C   UNL     1      -1.093  12.291  23.054  0.00  0.00    +0.000 C 
ATOM      4  C   UNL     1      -0.933  13.723  22.625  0.00  0.00    +0.000 C 
ATOM      5  N   UNL     1       0.412  13.963  22.128  0.00  0.00    +0.000 N 
ATOM      6  C   UNL     1       1.049  15.151  22.442  0.00  0.00    +0.000 C 
ATOM      7  O   UNL     1       0.569  16.016  23.173  0.00  0.00    +0.000 OA
ATOM      8  C   UNL     1       0.919  13.083  21.071  0.00  0.00    +0.000 C 
ATOM      9  C   UNL     1      -0.121  13.059  19.940  0.00  0.00    +0.000 C 
ATOM     10  O   UNL     1      -0.119  13.945  19.081  0.00  0.00    +0.000 OA
ATOM     11  N   UNL     1      -1.155  12.123  20.030  0.00  0.00    +0.000 N 
ENDROOT
BRANCH   1  15
ATOM     12  C   UNL     1       1.973   8.035  19.523  0.00  0.00    +0.000 A 
ATOM     13  C   UNL     1       1.517   9.036  18.666  0.00  0.00    +0.000 A 
ATOM     14  C   UNL     1       0.555   9.965  19.092  0.00  0.00    +0.000 A 
ATOM     15  C   UNL     1       0.018   9.909  20.392  0.00  0.00    +0.000 A 
ATOM     16  C   UNL     1       0.560   8.943  21.257  0.00  0.00    +0.000 A 
ATOM     17  C   UNL     1       1.487   7.995  20.822  0.00  0.00    +0.000 A 
BRANCH  12  19
ATOM     18  C   UNL     1       2.879   5.853  19.586  0.00  0.00    +0.000 C 
ATOM     19  O   UNL     1       2.873   7.151  18.995  0.00  0.00    +0.000 OA
ENDBRANCH  12  19
ENDBRANCH   1  15
BRANCH   6  20
ATOM     20  O   UNL     1       2.279  15.234  21.878  0.00  0.00    +0.000 OA
BRANCH  20  21
ATOM     21  C   UNL     1       2.643  16.463  21.240  0.00  0.00    +0.000 C 
BRANCH  21  22
ATOM     22  C   UNL     1       2.957  16.171  19.793  0.00  0.00    +0.000 A 
ATOM     23  C   UNL     1       3.749  15.071  19.431  0.00  0.00    +0.000 A 
ATOM     24  C   UNL     1       4.038  14.816  18.089  0.00  0.00    +0.000 A 
ATOM     25  C   UNL     1       3.548  15.662  17.095  0.00  0.00    +0.000 A 
ATOM     26  C   UNL     1       2.776  16.770  17.444  0.00  0.00    +0.000 A 
ATOM     27  C   UNL     1       2.487  17.025  18.785  0.00  0.00    +0.000 A 
ENDBRANCH  21  22
ENDBRANCH  20  21
ENDBRANCH   6  20
BRANCH  11  28
ATOM     28  C   UNL     1      -2.452  12.517  19.494  0.00  0.00    +0.000 C 
BRANCH  28  29
ATOM     29  C   UNL     1      -2.961  11.745  18.302  0.00  0.00    +0.000 A 
ATOM     30  C   UNL     1      -4.335  11.621  18.043  0.00  0.00    +0.000 A 
ATOM     31  C   UNL     1      -4.778  11.073  16.835  0.00  0.00    +0.000 A 
ATOM     32  C   UNL     1      -3.851  10.642  15.892  0.00  0.00    +0.000 A 
ATOM     33  F   UNL     1      -4.278  10.166  14.714  0.00  0.00    +0.000 F 
ATOM     34  C   UNL     1      -2.489  10.715  16.146  0.00  0.00    +0.000 A 
ATOM     35  C   UNL     1      -2.045  11.254  17.355  0.00  0.00    +0.000 A 
ENDBRANCH  28  29
ENDBRANCH  11  28
TORSDOF 7
ENDMDL
MODEL 6
REMARK VINA RESULT:      -7.5      2.939      8.092
REMARK  Name = 
REMARK  8 active torsions:
REMARK  status: ('A' for Active; 'I' for Inactive)
REMARK    1  A    between atoms: C_1  and  O_2
REMARK    2  A    between atoms: O_2  and  C_3
REMARK    3  A    between atoms: C_6  and  C_7
REMARK    4  A    between atoms: C_12  and  O_14
REMARK    5  A    between atoms: O_14  and  C_15
REMARK    6  A    between atoms: C_15  and  C_16
REMARK    7  A    between atoms: N_25  and  C_26
REMARK    8  A    between atoms: C_26  and  C_27
REMARK                            x       y       z     vdW  Elec       q    Type
REMARK                         _______ _______ _______ _____ _____    ______ ____
ROOT
ATOM      1  C   UNL     1      -0.464  10.853  19.622  0.00  0.00    +0.000 C 
ATOM      2  C   UNL     1      -0.601   9.722  20.641  0.00  0.00    +0.000 C 
ATOM      3  C   UNL     1       0.257   8.788  21.105  0.00  0.00    +0.000 C 
ATOM      4  C   UNL     1       1.693   8.522  20.749  0.00  0.00    +0.000 C 
ATOM      5  N   UNL     1       1.794   7.967  19.408  0.00  0.00    +0.000 N 
ATOM      6  C   UNL     1       2.707   6.957  19.160  0.00  0.00    +0.000 C 
ATOM      7  O   UNL     1       3.417   6.445  20.023  0.00  0.00    +0.000 OA
ATOM      8  C   UNL     1       1.152   8.700  18.313  0.00  0.00    +0.000 C 
ATOM      9  C   UNL     1       1.636  10.158  18.375  0.00  0.00    +0.000 C 
ATOM     10  O   UNL     1       2.703  10.477  17.845  0.00  0.00    +0.000 OA
ATOM     11  N   UNL     1       0.928  11.041  19.195  0.00  0.00    +0.000 N 
ENDROOT
BRANCH   1  15
ATOM     12  C   UNL     1      -3.290  10.563  16.284  0.00  0.00    +0.000 A 
ATOM     13  C   UNL     1      -3.309   9.632  17.323  0.00  0.00    +0.000 A 
ATOM     14  C   UNL     1      -2.422   9.744  18.404  0.00  0.00    +0.000 A 
ATOM     15  C   UNL     1      -1.484  10.791  18.469  0.00  0.00    +0.000 A 
ATOM     16  C   UNL     1      -1.548  11.758  17.451  0.00  0.00    +0.000 A 
ATOM     17  C   UNL     1      -2.403  11.627  16.356  0.00  0.00    +0.000 A 
BRANCH  12  19
ATOM     18  C   UNL     1      -3.561  10.137  13.975  0.00  0.00    +0.000 C 
ATOM     19  O   UNL     1      -4.161  10.336  15.254  0.00  0.00    +0.000 OA
ENDBRANCH  12  19
ENDBRANCH   1  15
BRANCH   6  20
ATOM     20  O   UNL     1       2.701   6.572  17.860  0.00  0.00    +0.000 OA
BRANCH  20  21
ATOM     21  C   UNL     1       3.553   5.489  17.477  0.00  0.00    +0.000 C 
BRANCH  21  22
ATOM     22  C   UNL     1       2.941   4.202  17.975  0.00  0.00    +0.000 A 
ATOM     23  C   UNL     1       3.745   3.116  18.353  0.00  0.00    +0.000 A 
ATOM     24  C   UNL     1       3.166   1.929  18.806  0.00  0.00    +0.000 A 
ATOM     25  C   UNL     1       1.778   1.810  18.877  0.00  0.00    +0.000 A 
ATOM     26  C   UNL     1       0.969   2.877  18.487  0.00  0.00    +0.000 A 
ATOM     27  C   UNL     1       1.547   4.064  18.033  0.00  0.00    +0.000 A 
ENDBRANCH  21  22
ENDBRANCH  20  21
ENDBRANCH   6  20
BRANCH  11  28
ATOM     28  C   UNL     1       1.695  12.093  19.850  0.00  0.00    +0.000 C 
BRANCH  28  29
ATOM     29  C   UNL     1       1.666  13.459  19.208  0.00  0.00    +0.000 A 
ATOM     30  C   UNL     1       0.591  14.339  19.410  0.00  0.00    +0.000 A 
ATOM     31  C   UNL     1       0.674  15.664  18.971  0.00  0.00    +0.000 A 
ATOM     32  C   UNL     1       1.822  16.106  18.323  0.00  0.00    +0.000 A 
ATOM     33  F   UNL     1       1.919  17.390  17.950  0.00  0.00    +0.000 F 
ATOM     34  C   UNL     1       2.878  15.241  18.074  0.00  0.00    +0.000 A 
ATOM     35  C   UNL     1       2.794  13.916  18.505  0.00  0.00    +0.000 A 
ENDBRANCH  28  29
ENDBRANCH  11  28
TORSDOF 7
ENDMDL
MODEL 7
REMARK VINA RESULT:      -7.5      1.470      1.879
REMARK  Name = 
REMARK  8 active torsions:
REMARK  status: ('A' for Active; 'I' for Inactive)
REMARK    1  A    between atoms: C_1  and  O_2
REMARK    2  A    between atoms: O_2  and  C_3
REMARK    3  A    between atoms: C_6  and  C_7
REMARK    4  A    between atoms: C_12  and  O_14
REMARK    5  A    between atoms: O_14  and  C_15
REMARK    6  A    between atoms: C_15  and  C_16
REMARK    7  A    between atoms: N_25  and  C_26
REMARK    8  A    between atoms: C_26  and  C_27
REMARK                            x       y       z     vdW  Elec       q    Type
REMARK                         _______ _______ _______ _____ _____    ______ ____
ROOT
ATOM      1  C   UNL     1      -0.487  10.689  19.620  0.00  0.00    +0.000 C 
ATOM      2  C   UNL     1      -0.803  10.901  21.100  0.00  0.00    +0.000 C 
ATOM      3  C   UNL     1      -0.730  11.975  21.915  0.00  0.00    +0.000 C 
ATOM      4  C   UNL     1      -0.276  13.381  21.635  0.00  0.00    +0.000 C 
ATOM      5  N   UNL     1       1.162  13.424  21.427  0.00  0.00    +0.000 N 
ATOM      6  C   UNL     1       1.891  14.479  21.948  0.00  0.00    +0.000 C 
ATOM      7  O   UNL     1       1.406  15.376  22.635  0.00  0.00    +0.000 OA
ATOM      8  C   UNL     1       1.737  12.522  20.425  0.00  0.00    +0.000 C 
ATOM      9  C   UNL     1       0.956  12.715  19.116  0.00  0.00    +0.000 C 
ATOM     10  O   UNL     1       1.264  13.627  18.343  0.00  0.00    +0.000 OA
ATOM     11  N   UNL     1      -0.201  11.954  18.934  0.00  0.00    +0.000 N 
ENDROOT
BRANCH   1  15
ATOM     12  C   UNL     1       2.518   7.576  18.918  0.00  0.00    +0.000 A 
ATOM     13  C   UNL     1       1.924   7.730  20.170  0.00  0.00    +0.000 A 
ATOM     14  C   UNL     1       0.942   8.709  20.384  0.00  0.00    +0.000 A 
ATOM     15  C   UNL     1       0.533   9.567  19.347  0.00  0.00    +0.000 A 
ATOM     16  C   UNL     1       1.089   9.330  18.077  0.00  0.00    +0.000 A 
ATOM     17  C   UNL     1       2.094   8.384  17.872  0.00  0.00    +0.000 A 
BRANCH  12  19
ATOM     18  C   UNL     1       3.343   5.497  19.682  0.00  0.00    +0.000 C 
ATOM     19  O   UNL     1       3.500   6.627  18.826  0.00  0.00    +0.000 OA
ENDBRANCH  12  19
ENDBRANCH   1  15
BRANCH   6  20
ATOM     20  O   UNL     1       3.208  14.390  21.641  0.00  0.00    +0.000 OA
BRANCH  20  21
ATOM     21  C   UNL     1       3.894  15.590  21.271  0.00  0.00    +0.000 C 
BRANCH  21  22
ATOM     22  C   UNL     1       3.697  15.815  19.792  0.00  0.00    +0.000 A 
ATOM     23  C   UNL     1       2.751  16.737  19.319  0.00  0.00    +0.000 A 
ATOM     24  C   UNL     1       2.573  16.930  17.948  0.00  0.00    +0.000 A 
ATOM     25  C   UNL     1       3.330  16.198  17.034  0.00  0.00    +0.000 A 
ATOM     26  C   UNL     1       4.260  15.265  17.493  0.00  0.00    +0.000 A 
ATOM     27  C   UNL     1       4.438  15.071  18.863  0.00  0.00    +0.000 A 
ENDBRANCH  21  22
ENDBRANCH  20  21
ENDBRANCH   6  20
BRANCH  11  28
ATOM     28  C   UNL     1      -1.289  12.574  18.188  0.00  0.00    +0.000 C 
BRANCH  28  29
ATOM     29  C   UNL     1      -2.645  11.919  18.287  0.00  0.00    +0.000 A 
ATOM     30  C   UNL     1      -3.594  12.340  19.230  0.00  0.00    +0.000 A 
ATOM     31  C   UNL     1      -4.906  11.856  19.176  0.00  0.00    +0.000 A 
ATOM     32  C   UNL     1      -5.264  10.946  18.187  0.00  0.00    +0.000 A 
ATOM     33  F   UNL     1      -6.534  10.525  18.106  0.00  0.00    +0.000 F 
ATOM     34  C   UNL     1      -4.330  10.483  17.272  0.00  0.00    +0.000 A 
ATOM     35  C   UNL     1      -3.020  10.959  17.330  0.00  0.00    +0.000 A 
ENDBRANCH  28  29
ENDBRANCH  11  28
TORSDOF 7
ENDMDL
MODEL 8
REMARK VINA RESULT:      -7.4      1.206      1.762
REMARK  Name = 
REMARK  8 active torsions:
REMARK  status: ('A' for Active; 'I' for Inactive)
REMARK    1  A    between atoms: C_1  and  O_2
REMARK    2  A    between atoms: O_2  and  C_3
REMARK    3  A    between atoms: C_6  and  C_7
REMARK    4  A    between atoms: C_12  and  O_14
REMARK    5  A    between atoms: O_14  and  C_15
REMARK    6  A    between atoms: C_15  and  C_16
REMARK    7  A    between atoms: N_25  and  C_26
REMARK    8  A    between atoms: C_26  and  C_27
REMARK                            x       y       z     vdW  Elec       q    Type
REMARK                         _______ _______ _______ _____ _____    ______ ____
ROOT
ATOM      1  C   UNL     1      -0.576  10.094  20.168  0.00  0.00    +0.000 C 
ATOM      2  C   UNL     1      -0.384  10.294  21.671  0.00  0.00    +0.000 C 
ATOM      3  C   UNL     1      -0.326  11.392  22.456  0.00  0.00    +0.000 C 
ATOM      4  C   UNL     1      -0.416  12.850  22.100  0.00  0.00    +0.000 C 
ATOM      5  N   UNL     1       0.778  13.278  21.390  0.00  0.00    +0.000 N 
ATOM      6  C   UNL     1       1.319  14.523  21.663  0.00  0.00    +0.000 C 
ATOM      7  O   UNL     1       0.884  15.288  22.522  0.00  0.00    +0.000 OA
ATOM      8  C   UNL     1       1.181  12.516  20.205  0.00  0.00    +0.000 C 
ATOM      9  C   UNL     1      -0.039  12.409  19.276  0.00  0.00    +0.000 C 
ATOM     10  O   UNL     1      -0.298  13.324  18.490  0.00  0.00    +0.000 OA
ATOM     11  N   UNL     1      -0.922  11.347  19.487  0.00  0.00    +0.000 N 
ENDROOT
BRANCH   1  15
ATOM     12  C   UNL     1       2.720   7.869  18.324  0.00  0.00    +0.000 A 
ATOM     13  C   UNL     1       2.300   7.583  19.623  0.00  0.00    +0.000 A 
ATOM     14  C   UNL     1       1.225   8.277  20.200  0.00  0.00    +0.000 A 
ATOM     15  C   UNL     1       0.547   9.286  19.490  0.00  0.00    +0.000 A 
ATOM     16  C   UNL     1       0.940   9.491  18.156  0.00  0.00    +0.000 A 
ATOM     17  C   UNL     1       2.032   8.829  17.595  0.00  0.00    +0.000 A 
BRANCH  12  19
ATOM     18  C   UNL     1       3.615   5.766  17.721  0.00  0.00    +0.000 C 
ATOM     19  O   UNL     1       3.806   7.171  17.872  0.00  0.00    +0.000 OA
ENDBRANCH  12  19
ENDBRANCH   1  15
BRANCH   6  20
ATOM     20  O   UNL     1       2.407  14.786  20.897  0.00  0.00    +0.000 OA
BRANCH  20  21
ATOM     21  C   UNL     1       3.697  14.679  21.507  0.00  0.00    +0.000 C 
BRANCH  21  22
ATOM     22  C   UNL     1       4.745  14.803  20.427  0.00  0.00    +0.000 A 
ATOM     23  C   UNL     1       6.087  15.058  20.746  0.00  0.00    +0.000 A 
ATOM     24  C   UNL     1       7.045  15.178  19.738  0.00  0.00    +0.000 A 
ATOM     25  C   UNL     1       6.672  15.054  18.400  0.00  0.00    +0.000 A 
ATOM     26  C   UNL     1       5.338  14.819  18.071  0.00  0.00    +0.000 A 
ATOM     27  C   UNL     1       4.379  14.700  19.077  0.00  0.00    +0.000 A 
ENDBRANCH  21  22
ENDBRANCH  20  21
ENDBRANCH   6  20
BRANCH  11  28
ATOM     28  C   UNL     1      -2.332  11.597  19.216  0.00  0.00    +0.000 C 
BRANCH  28  29
ATOM     29  C   UNL     1      -2.876  11.085  17.905  0.00  0.00    +0.000 A 
ATOM     30  C   UNL     1      -4.070  11.585  17.363  0.00  0.00    +0.000 A 
ATOM     31  C   UNL     1      -4.451  11.242  16.061  0.00  0.00    +0.000 A 
ATOM     32  C   UNL     1      -3.648  10.393  15.309  0.00  0.00    +0.000 A 
ATOM     33  F   UNL     1      -3.990  10.108  14.044  0.00  0.00    +0.000 F 
ATOM     34  C   UNL     1      -2.487   9.852  15.841  0.00  0.00    +0.000 A 
ATOM     35  C   UNL     1      -2.109  10.187  17.142  0.00  0.00    +0.000 A 
ENDBRANCH  28  29
ENDBRANCH  11  28
TORSDOF 7
ENDMDL
MODEL 9
REMARK VINA RESULT:      -7.4      3.301      6.825
REMARK  Name = 
REMARK  8 active torsions:
REMARK  status: ('A' for Active; 'I' for Inactive)
REMARK    1  A    between atoms: C_1  and  O_2
REMARK    2  A    between atoms: O_2  and  C_3
REMARK    3  A    between atoms: C_6  and  C_7
REMARK    4  A    between atoms: C_12  and  O_14
REMARK    5  A    between atoms: O_14  and  C_15
REMARK    6  A    between atoms: C_15  and  C_16
REMARK    7  A    between atoms: N_25  and  C_26
REMARK    8  A    between atoms: C_26  and  C_27
REMARK                            x       y       z     vdW  Elec       q    Type
REMARK                         _______ _______ _______ _____ _____    ______ ____
ROOT
ATOM      1  C   UNL     1       0.159  11.299  19.040  0.00  0.00    +0.000 C 
ATOM      2  C   UNL     1       0.427  12.793  19.216  0.00  0.00    +0.000 C 
ATOM      3  C   UNL     1       0.514  13.594  20.300  0.00  0.00    +0.000 C 
ATOM      4  C   UNL     1       0.351  13.277  21.761  0.00  0.00    +0.000 C 
ATOM      5  N   UNL     1      -1.040  12.986  22.070  0.00  0.00    +0.000 N 
ATOM      6  C   UNL     1      -1.582  13.455  23.254  0.00  0.00    +0.000 C 
ATOM      7  O   UNL     1      -0.975  14.163  24.056  0.00  0.00    +0.000 OA
ATOM      8  C   UNL     1      -1.719  11.960  21.275  0.00  0.00    +0.000 C 
ATOM      9  C   UNL     1      -0.845  10.696  21.293  0.00  0.00    +0.000 C 
ATOM     10  O   UNL     1      -0.931   9.899  22.231  0.00  0.00    +0.000 OA
ATOM     11  N   UNL     1       0.155  10.587  20.323  0.00  0.00    +0.000 N 
ENDROOT
BRANCH   1  15
ATOM     12  C   UNL     1      -3.156  10.383  16.321  0.00  0.00    +0.000 A 
ATOM     13  C   UNL     1      -2.208   9.414  16.649  0.00  0.00    +0.000 A 
ATOM     14  C   UNL     1      -1.165   9.702  17.542  0.00  0.00    +0.000 A 
ATOM     15  C   UNL     1      -1.039  10.976  18.126  0.00  0.00    +0.000 A 
ATOM     16  C   UNL     1      -2.057  11.902  17.841  0.00  0.00    +0.000 A 
ATOM     17  C   UNL     1      -3.072  11.631  16.924  0.00  0.00    +0.000 A 
BRANCH  12  19
ATOM     18  C   UNL     1      -3.708  10.124  14.038  0.00  0.00    +0.000 C 
ATOM     19  O   UNL     1      -4.103  10.018  15.404  0.00  0.00    +0.000 OA
ENDBRANCH  12  19
ENDBRANCH   1  15
BRANCH   6  20
ATOM     20  O   UNL     1      -2.874  13.074  23.409  0.00  0.00    +0.000 OA
BRANCH  20  21
ATOM     21  C   UNL     1      -3.893  14.060  23.212  0.00  0.00    +0.000 C 
BRANCH  21  22
ATOM     22  C   UNL     1      -5.184  13.351  22.887  0.00  0.00    +0.000 A 
ATOM     23  C   UNL     1      -5.464  12.917  21.582  0.00  0.00    +0.000 A 
ATOM     24  C   UNL     1      -6.666  12.268  21.293  0.00  0.00    +0.000 A 
ATOM     25  C   UNL     1      -7.605  12.054  22.300  0.00  0.00    +0.000 A 
ATOM     26  C   UNL     1      -7.346  12.498  23.597  0.00  0.00    +0.000 A 
ATOM     27  C   UNL     1      -6.145  13.147  23.887  0.00  0.00    +0.000 A 
ENDBRANCH  21  22
ENDBRANCH  20  21
ENDBRANCH   6  20
BRANCH  11  28
ATOM     28  C   UNL     1       1.381   9.900  20.713  0.00  0.00    +0.000 C 
BRANCH  28  29
ATOM     29  C   UNL     1       1.640   8.555  20.080  0.00  0.00    +0.000 A 
ATOM     30  C   UNL     1       2.112   8.445  18.763  0.00  0.00    +0.000 A 
ATOM     31  C   UNL     1       2.531   7.206  18.266  0.00  0.00    +0.000 A 
ATOM     32  C   UNL     1       2.469   6.080  19.079  0.00  0.00    +0.000 A 
ATOM     33  F   UNL     1       2.919   4.905  18.616  0.00  0.00    +0.000 F 
ATOM     34  C   UNL     1       1.965   6.158  20.368  0.00  0.00    +0.000 A 
ATOM     35  C   UNL     1       1.539   7.391  20.864  0.00  0.00    +0.000 A 
ENDBRANCH  28  29
ENDBRANCH  11  28
TORSDOF 7
ENDMDL
