MODEL 1
REMARK VINA RESULT:      -8.1      0.000      0.000
REMARK  Name = 
REMARK  13 active torsions:
REMARK  status: ('A' for Active; 'I' for Inactive)
REMARK    1  A    between atoms: C_2  and  O_3
REMARK    2  A    between atoms: C_2  and  C_4
REMARK    3  A    between atoms: C_6  and  N_7
REMARK    4  A    between atoms: C_8  and  C_10
REMARK    5  A    between atoms: C_10  and  C_11
REMARK    6  A    between atoms: C_10  and  C_18
REMARK    7  A    between atoms: C_11  and  C_12
REMARK    8  A    between atoms: C_18  and  C_19
REMARK    9  A    between atoms: C_19  and  C_20
REMARK   10  A    between atoms: C_19  and  C_27
REMARK   11  A    between atoms: C_20  and  C_21
REMARK   12  A    between atoms: C_27  and  O_29
REMARK   13  A    between atoms: C_32  and  O_33
REMARK                            x       y       z     vdW  Elec       q    Type
REMARK                         _______ _______ _______ _____ _____    ______ ____
ROOT
ATOM      1  C   UNL     1       2.763   7.404  18.070  0.00  0.00    +0.000 C 
ENDROOT
BRANCH   1   3
ATOM      2  N   UNL     1       0.978   8.895  18.916  0.00  0.00    +0.000 N 
ATOM      3  C   UNL     1       2.063   8.785  18.060  0.00  0.00    +0.000 C 
ATOM      4  O   UNL     1       2.466   9.695  17.341  0.00  0.00    +0.000 OA
ATOM      5  H   UNL     1       0.721   8.075  19.454  0.00  0.00    +0.000 HD
BRANCH   2   8
ATOM      6  C   UNL     1      -1.892  11.283  18.398  0.00  0.00    +0.000 A 
ATOM      7  C   UNL     1      -1.003  10.210  18.186  0.00  0.00    +0.000 A 
ATOM      8  C   UNL     1       0.096  10.001  19.023  0.00  0.00    +0.000 A 
ATOM      9  C   UNL     1       0.335  10.918  20.053  0.00  0.00    +0.000 A 
ATOM     10  C   UNL     1      -0.534  11.990  20.281  0.00  0.00    +0.000 A 
ATOM     11  C   UNL     1      -1.657  12.156  19.469  0.00  0.00    +0.000 A 
BRANCH   6  13
ATOM     12  O   UNL     1      -4.202  11.433  17.811  0.00  0.00    +0.000 OA
ATOM     13  C   UNL     1      -3.032  11.426  17.455  0.00  0.00    +0.000 C 
BRANCH  13  14
ATOM     14  O   UNL     1      -2.672  11.596  16.164  0.00  0.00    +0.000 OA
ATOM     15  H   UNL     1      -2.773  10.773  15.637  0.00  0.00    +0.000 HD
ENDBRANCH  13  14
ENDBRANCH   6  13
BRANCH  11  16
ATOM     16  O   UNL     1      -2.539  13.162  19.734  0.00  0.00    +0.000 OA
ATOM     17  H   UNL     1      -2.292  13.594  20.574  0.00  0.00    +0.000 HD
ENDBRANCH  11  16
ENDBRANCH   2   8
ENDBRANCH   1   3
BRANCH   1  18
ATOM     18  C   UNL     1       2.718   6.821  19.514  0.00  0.00    +0.000 C 
BRANCH  18  19
ATOM     19  C   UNL     1       2.090   5.481  19.869  0.00  0.00    +0.000 A 
ATOM     20  C   UNL     1       2.151   4.871  21.126  0.00  0.00    +0.000 A 
ATOM     21  C   UNL     1       1.593   3.606  21.347  0.00  0.00    +0.000 A 
ATOM     22  C   UNL     1       0.919   2.944  20.327  0.00  0.00    +0.000 A 
ATOM     23  C   UNL     1       0.779   3.560  19.089  0.00  0.00    +0.000 A 
ATOM     24  C   UNL     1       1.358   4.814  18.864  0.00  0.00    +0.000 A 
ENDBRANCH  18  19
ENDBRANCH   1  18
BRANCH   1  25
ATOM     25  C   UNL     1       4.142   7.480  17.371  0.00  0.00    +0.000 C 
BRANCH  25  26
ATOM     26  C   UNL     1       5.202   6.356  17.516  0.00  0.00    +0.000 C 
BRANCH  26  27
ATOM     27  C   UNL     1       6.538   6.945  17.032  0.00  0.00    +0.000 C 
ATOM     28  O   UNL     1       6.937   8.069  17.292  0.00  0.00    +0.000 OA
BRANCH  27  29
ATOM     29  O   UNL     1       7.283   6.101  16.279  0.00  0.00    +0.000 OA
ATOM     30  H   UNL     1       7.802   6.519  15.570  0.00  0.00    +0.000 HD
ENDBRANCH  27  29
ENDBRANCH  26  27
BRANCH  26  31
ATOM     31  C   UNL     1       4.888   5.022  16.802  0.00  0.00    +0.000 C 
BRANCH  31  32
ATOM     32  C   UNL     1       4.552   3.829  17.672  0.00  0.00    +0.000 A 
ATOM     33  C   UNL     1       5.007   3.751  19.002  0.00  0.00    +0.000 A 
ATOM     34  C   UNL     1       4.740   2.630  19.791  0.00  0.00    +0.000 A 
ATOM     35  C   UNL     1       3.979   1.585  19.279  0.00  0.00    +0.000 A 
ATOM     36  C   UNL     1       3.469   1.672  17.984  0.00  0.00    +0.000 A 
ATOM     37  C   UNL     1       3.756   2.785  17.187  0.00  0.00    +0.000 A 
ENDBRANCH  31  32
ENDBRANCH  26  31
ENDBRANCH  25  26
ENDBRANCH   1  25
TORSDOF 13
ENDMDL
MODEL 2
REMARK VINA RESULT:      -7.9      0.340      1.334
REMARK  Name = 
REMARK  13 active torsions:
REMARK  status: ('A' for Active; 'I' for Inactive)
REMARK    1  A    between atoms: C_2  and  O_3
REMARK    2  A    between atoms: C_2  and  C_4
REMARK    3  A    between atoms: C_6  and  N_7
REMARK    4  A    between atoms: C_8  and  C_10
REMARK    5  A    between atoms: C_10  and  C_11
REMARK    6  A    between atoms: C_10  and  C_18
REMARK    7  A    between atoms: C_11  and  C_12
REMARK    8  A    between atoms: C_18  and  C_19
REMARK    9  A    between atoms: C_19  and  C_20
REMARK   10  A    between atoms: C_19  and  C_27
REMARK   11  A    between atoms: C_20  and  C_21
REMARK   12  A    between atoms: C_27  and  O_29
REMARK   13  A    between atoms: C_32  and  O_33
REMARK                            x       y       z     vdW  Elec       q    Type
REMARK                         _______ _______ _______ _____ _____    ______ ____
ROOT
ATOM      1  C   UNL     1       2.833   7.361  18.311  0.00  0.00    +0.000 C 
ENDROOT
BRANCH   1   3
ATOM      2  N   UNL     1       1.191   9.002  19.171  0.00  0.00    +0.000 N 
ATOM      3  C   UNL     1       2.046   8.683  18.127  0.00  0.00    +0.000 C 
ATOM      4  O   UNL     1       2.197   9.376  17.125  0.00  0.00    +0.000 OA
ATOM      5  H   UNL     1       1.134   8.349  19.945  0.00  0.00    +0.000 HD
BRANCH   2   8
ATOM      6  C   UNL     1      -1.667  11.341  18.419  0.00  0.00    +0.000 A 
ATOM      7  C   UNL     1      -0.737  10.291  18.275  0.00  0.00    +0.000 A 
ATOM      8  C   UNL     1       0.279  10.086  19.213  0.00  0.00    +0.000 A 
ATOM      9  C   UNL     1       0.394  10.985  20.280  0.00  0.00    +0.000 A 
ATOM     10  C   UNL     1      -0.518  12.034  20.442  0.00  0.00    +0.000 A 
ATOM     11  C   UNL     1      -1.558  12.194  19.526  0.00  0.00    +0.000 A 
BRANCH   6  13
ATOM     12  O   UNL     1      -2.523  11.210  16.194  0.00  0.00    +0.000 OA
ATOM     13  C   UNL     1      -2.711  11.482  17.371  0.00  0.00    +0.000 C 
BRANCH  13  14
ATOM     14  O   UNL     1      -3.912  11.894  17.831  0.00  0.00    +0.000 OA
ATOM     15  H   UNL     1      -4.252  11.320  18.554  0.00  0.00    +0.000 HD
ENDBRANCH  13  14
ENDBRANCH   6  13
BRANCH  11  16
ATOM     16  O   UNL     1      -2.485  13.175  19.723  0.00  0.00    +0.000 OA
ATOM     17  H   UNL     1      -2.531  13.739  18.927  0.00  0.00    +0.000 HD
ENDBRANCH  11  16
ENDBRANCH   2   8
ENDBRANCH   1   3
BRANCH   1  18
ATOM     18  C   UNL     1       2.601   6.826  19.755  0.00  0.00    +0.000 C 
BRANCH  18  19
ATOM     19  C   UNL     1       2.072   5.435  20.071  0.00  0.00    +0.000 A 
ATOM     20  C   UNL     1       1.249   4.677  19.234  0.00  0.00    +0.000 A 
ATOM     21  C   UNL     1       0.759   3.427  19.633  0.00  0.00    +0.000 A 
ATOM     22  C   UNL     1       1.124   2.886  20.861  0.00  0.00    +0.000 A 
ATOM     23  C   UNL     1       2.002   3.586  21.681  0.00  0.00    +0.000 A 
ATOM     24  C   UNL     1       2.469   4.845  21.290  0.00  0.00    +0.000 A 
ENDBRANCH  18  19
ENDBRANCH   1  18
BRANCH   1  25
ATOM     25  C   UNL     1       4.297   7.520  17.832  0.00  0.00    +0.000 C 
BRANCH  25  26
ATOM     26  C   UNL     1       5.237   6.301  17.640  0.00  0.00    +0.000 C 
BRANCH  26  27
ATOM     27  C   UNL     1       6.536   6.840  17.017  0.00  0.00    +0.000 C 
ATOM     28  O   UNL     1       6.988   7.958  17.210  0.00  0.00    +0.000 OA
BRANCH  27  29
ATOM     29  O   UNL     1       7.183   5.958  16.217  0.00  0.00    +0.000 OA
ATOM     30  H   UNL     1       7.260   6.218  15.283  0.00  0.00    +0.000 HD
ENDBRANCH  27  29
ENDBRANCH  26  27
BRANCH  26  31
ATOM     31  C   UNL     1       4.670   5.121  16.819  0.00  0.00    +0.000 C 
BRANCH  31  32
ATOM     32  C   UNL     1       4.344   3.846  17.567  0.00  0.00    +0.000 A 
ATOM     33  C   UNL     1       3.466   2.890  17.023  0.00  0.00    +0.000 A 
ATOM     34  C   UNL     1       3.126   1.736  17.732  0.00  0.00    +0.000 A 
ATOM     35  C   UNL     1       3.688   1.497  18.981  0.00  0.00    +0.000 A 
ATOM     36  C   UNL     1       4.606   2.404  19.510  0.00  0.00    +0.000 A 
ATOM     37  C   UNL     1       4.929   3.570  18.808  0.00  0.00    +0.000 A 
ENDBRANCH  31  32
ENDBRANCH  26  31
ENDBRANCH  25  26
ENDBRANCH   1  25
TORSDOF 13
ENDMDL
MODEL 3
REMARK VINA RESULT:      -7.9      0.670      1.078
REMARK  Name = 
REMARK  13 active torsions:
REMARK  status: ('A' for Active; 'I' for Inactive)
REMARK    1  A    between atoms: C_2  and  O_3
REMARK    2  A    between atoms: C_2  and  C_4
REMARK    3  A    between atoms: C_6  and  N_7
REMARK    4  A    between atoms: C_8  and  C_10
REMARK    5  A    between atoms: C_10  and  C_11
REMARK    6  A    between atoms: C_10  and  C_18
REMARK    7  A    between atoms: C_11  and  C_12
REMARK    8  A    between atoms: C_18  and  C_19
REMARK    9  A    between atoms: C_19  and  C_20
REMARK   10  A    between atoms: C_19  and  C_27
REMARK   11  A    between atoms: C_20  and  C_21
REMARK   12  A    between atoms: C_27  and  O_29
REMARK   13  A    between atoms: C_32  and  O_33
REMARK                            x       y       z     vdW  Elec       q    Type
REMARK                         _______ _______ _______ _____ _____    ______ ____
ROOT
ATOM      1  C   UNL     1       2.607   7.286  18.243  0.00  0.00    +0.000 C 
ENDROOT
BRANCH   1   3
ATOM      2  N   UNL     1       1.189   8.972  19.372  0.00  0.00    +0.000 N 
ATOM      3  C   UNL     1       1.972   8.699  18.260  0.00  0.00    +0.000 C 
ATOM      4  O   UNL     1       2.171   9.495  17.347  0.00  0.00    +0.000 OA
ATOM      5  H   UNL     1       1.080   8.235  20.060  0.00  0.00    +0.000 HD
BRANCH   2   8
ATOM      6  C   UNL     1      -1.555  11.552  19.226  0.00  0.00    +0.000 A 
ATOM      7  C   UNL     1      -0.778  10.421  18.904  0.00  0.00    +0.000 A 
ATOM      8  C   UNL     1       0.408  10.135  19.588  0.00  0.00    +0.000 A 
ATOM      9  C   UNL     1       0.846  11.033  20.569  0.00  0.00    +0.000 A 
ATOM     10  C   UNL     1       0.090  12.162  20.903  0.00  0.00    +0.000 A 
ATOM     11  C   UNL     1      -1.118  12.405  20.249  0.00  0.00    +0.000 A 
BRANCH   6  13
ATOM     12  O   UNL     1      -3.903  11.886  18.956  0.00  0.00    +0.000 OA
ATOM     13  C   UNL     1      -2.799  11.774  18.444  0.00  0.00    +0.000 C 
BRANCH  13  14
ATOM     14  O   UNL     1      -2.608  11.891  17.112  0.00  0.00    +0.000 OA
ATOM     15  H   UNL     1      -3.317  11.448  16.594  0.00  0.00    +0.000 HD
ENDBRANCH  13  14
ENDBRANCH   6  13
BRANCH  11  16
ATOM     16  O   UNL     1      -1.885  13.469  20.622  0.00  0.00    +0.000 OA
ATOM     17  H   UNL     1      -1.479  14.292  20.291  0.00  0.00    +0.000 HD
ENDBRANCH  11  16
ENDBRANCH   2   8
ENDBRANCH   1   3
BRANCH   1  18
ATOM     18  C   UNL     1       2.556   6.687  19.679  0.00  0.00    +0.000 C 
BRANCH  18  19
ATOM     19  C   UNL     1       2.029   5.296  20.001  0.00  0.00    +0.000 A 
ATOM     20  C   UNL     1       1.274   4.500  19.134  0.00  0.00    +0.000 A 
ATOM     21  C   UNL     1       0.779   3.254  19.538  0.00  0.00    +0.000 A 
ATOM     22  C   UNL     1       1.070   2.755  20.802  0.00  0.00    +0.000 A 
ATOM     23  C   UNL     1       1.881   3.493  21.657  0.00  0.00    +0.000 A 
ATOM     24  C   UNL     1       2.354   4.748  21.260  0.00  0.00    +0.000 A 
ENDBRANCH  18  19
ENDBRANCH   1  18
BRANCH   1  25
ATOM     25  C   UNL     1       3.979   7.308  17.524  0.00  0.00    +0.000 C 
BRANCH  25  26
ATOM     26  C   UNL     1       5.048   6.209  17.758  0.00  0.00    +0.000 C 
BRANCH  26  27
ATOM     27  C   UNL     1       6.411   6.845  17.434  0.00  0.00    +0.000 C 
ATOM     28  O   UNL     1       6.577   7.783  16.670  0.00  0.00    +0.000 OA
BRANCH  27  29
ATOM     29  O   UNL     1       7.460   6.286  18.086  0.00  0.00    +0.000 OA
ATOM     30  H   UNL     1       7.934   6.875  18.697  0.00  0.00    +0.000 HD
ENDBRANCH  27  29
ENDBRANCH  26  27
BRANCH  26  31
ATOM     31  C   UNL     1       4.851   4.885  16.986  0.00  0.00    +0.000 C 
BRANCH  31  32
ATOM     32  C   UNL     1       4.514   3.651  17.796  0.00  0.00    +0.000 A 
ATOM     33  C   UNL     1       4.973   3.505  19.119  0.00  0.00    +0.000 A 
ATOM     34  C   UNL     1       4.705   2.346  19.851  0.00  0.00    +0.000 A 
ATOM     35  C   UNL     1       3.940   1.330  19.290  0.00  0.00    +0.000 A 
ATOM     36  C   UNL     1       3.426   1.484  18.003  0.00  0.00    +0.000 A 
ATOM     37  C   UNL     1       3.714   2.635  17.262  0.00  0.00    +0.000 A 
ENDBRANCH  31  32
ENDBRANCH  26  31
ENDBRANCH  25  26
ENDBRANCH   1  25
TORSDOF 13
ENDMDL
MODEL 4
REMARK VINA RESULT:      -7.5      1.311      2.492
REMARK  Name = 
REMARK  13 active torsions:
REMARK  status: ('A' for Active; 'I' for Inactive)
REMARK    1  A    between atoms: C_2  and  O_3
REMARK    2  A    between atoms: C_2  and  C_4
REMARK    3  A    between atoms: C_6  and  N_7
REMARK    4  A    between atoms: C_8  and  C_10
REMARK    5  A    between atoms: C_10  and  C_11
REMARK    6  A    between atoms: C_10  and  C_18
REMARK    7  A    between atoms: C_11  and  C_12
REMARK    8  A    between atoms: C_18  and  C_19
REMARK    9  A    between atoms: C_19  and  C_20
REMARK   10  A    between atoms: C_19  and  C_27
REMARK   11  A    between atoms: C_20  and  C_21
REMARK   12  A    between atoms: C_27  and  O_29
REMARK   13  A    between atoms: C_32  and  O_33
REMARK                            x       y       z     vdW  Elec       q    Type
REMARK                         _______ _______ _______ _____ _____    ______ ____
ROOT
ATOM      1  C   UNL     1       2.651   7.243  18.500  0.00  0.00    +0.000 C 
ENDROOT
BRANCH   1   3
ATOM      2  N   UNL     1       1.271   9.058  19.464  0.00  0.00    +0.000 N 
ATOM      3  C   UNL     1       1.991   8.636  18.356  0.00  0.00    +0.000 C 
ATOM      4  O   UNL     1       2.119   9.296  17.328  0.00  0.00    +0.000 OA
ATOM      5  H   UNL     1       1.217   8.426  20.254  0.00  0.00    +0.000 HD
BRANCH   2   8
ATOM      6  C   UNL     1       0.133  12.599  20.071  0.00  0.00    +0.000 A 
ATOM      7  C   UNL     1       0.940  11.444  20.083  0.00  0.00    +0.000 A 
ATOM      8  C   UNL     1       0.481  10.231  19.560  0.00  0.00    +0.000 A 
ATOM      9  C   UNL     1      -0.830  10.169  19.071  0.00  0.00    +0.000 A 
ATOM     10  C   UNL     1      -1.647  11.304  19.051  0.00  0.00    +0.000 A 
ATOM     11  C   UNL     1      -1.157  12.519  19.529  0.00  0.00    +0.000 A 
BRANCH   6  13
ATOM     12  O   UNL     1       1.099  13.926  21.806  0.00  0.00    +0.000 OA
ATOM     13  C   UNL     1       0.706  13.842  20.651  0.00  0.00    +0.000 C 
BRANCH  13  14
ATOM     14  O   UNL     1       0.802  14.871  19.781  0.00  0.00    +0.000 OA
ATOM     15  H   UNL     1       0.355  14.680  18.927  0.00  0.00    +0.000 HD
ENDBRANCH  13  14
ENDBRANCH   6  13
BRANCH  11  16
ATOM     16  O   UNL     1      -1.932  13.638  19.446  0.00  0.00    +0.000 OA
ATOM     17  H   UNL     1      -1.439  14.337  18.976  0.00  0.00    +0.000 HD
ENDBRANCH  11  16
ENDBRANCH   2   8
ENDBRANCH   1   3
BRANCH   1  18
ATOM     18  C   UNL     1       2.358   6.685  19.924  0.00  0.00    +0.000 C 
BRANCH  18  19
ATOM     19  C   UNL     1       1.928   5.252  20.203  0.00  0.00    +0.000 A 
ATOM     20  C   UNL     1       1.128   4.473  19.362  0.00  0.00    +0.000 A 
ATOM     21  C   UNL     1       0.731   3.181  19.728  0.00  0.00    +0.000 A 
ATOM     22  C   UNL     1       1.168   2.621  20.924  0.00  0.00    +0.000 A 
ATOM     23  C   UNL     1       2.025   3.346  21.744  0.00  0.00    +0.000 A 
ATOM     24  C   UNL     1       2.400   4.646  21.386  0.00  0.00    +0.000 A 
ENDBRANCH  18  19
ENDBRANCH   1  18
BRANCH   1  25
ATOM     25  C   UNL     1       4.128   7.283  18.037  0.00  0.00    +0.000 C 
BRANCH  25  26
ATOM     26  C   UNL     1       4.841   6.036  17.451  0.00  0.00    +0.000 C 
BRANCH  26  27
ATOM     27  C   UNL     1       5.640   6.519  16.228  0.00  0.00    +0.000 C 
ATOM     28  O   UNL     1       5.152   6.802  15.146  0.00  0.00    +0.000 OA
BRANCH  27  29
ATOM     29  O   UNL     1       6.974   6.631  16.438  0.00  0.00    +0.000 OA
ATOM     30  H   UNL     1       7.241   6.784  17.361  0.00  0.00    +0.000 HD
ENDBRANCH  27  29
ENDBRANCH  26  27
BRANCH  26  31
ATOM     31  C   UNL     1       3.936   4.836  17.089  0.00  0.00    +0.000 C 
BRANCH  31  32
ATOM     32  C   UNL     1       4.071   3.585  17.931  0.00  0.00    +0.000 A 
ATOM     33  C   UNL     1       3.474   2.374  17.532  0.00  0.00    +0.000 A 
ATOM     34  C   UNL     1       3.556   1.232  18.331  0.00  0.00    +0.000 A 
ATOM     35  C   UNL     1       4.269   1.268  19.524  0.00  0.00    +0.000 A 
ATOM     36  C   UNL     1       4.917   2.441  19.906  0.00  0.00    +0.000 A 
ATOM     37  C   UNL     1       4.817   3.592  19.116  0.00  0.00    +0.000 A 
ENDBRANCH  31  32
ENDBRANCH  26  31
ENDBRANCH  25  26
ENDBRANCH   1  25
TORSDOF 13
ENDMDL
MODEL 5
REMARK VINA RESULT:      -7.5      1.215      2.419
REMARK  Name = 
REMARK  13 active torsions:
REMARK  status: ('A' for Active; 'I' for Inactive)
REMARK    1  A    between atoms: C_2  and  O_3
REMARK    2  A    between atoms: C_2  and  C_4
REMARK    3  A    between atoms: C_6  and  N_7
REMARK    4  A    between atoms: C_8  and  C_10
REMARK    5  A    between atoms: C_10  and  C_11
REMARK    6  A    between atoms: C_10  and  C_18
REMARK    7  A    between atoms: C_11  and  C_12
REMARK    8  A    between atoms: C_18  and  C_19
REMARK    9  A    between atoms: C_19  and  C_20
REMARK   10  A    between atoms: C_19  and  C_27
REMARK   11  A    between atoms: C_20  and  C_21
REMARK   12  A    between atoms: C_27  and  O_29
REMARK   13  A    between atoms: C_32  and  O_33
REMARK                            x       y       z     vdW  Elec       q    Type
REMARK                         _______ _______ _______ _____ _____    ______ ____
ROOT
ATOM      1  C   UNL     1       2.559   7.285  18.305  0.00  0.00    +0.000 C 
ENDROOT
BRANCH   1   3
ATOM      2  N   UNL     1       1.161   9.020  19.383  0.00  0.00    +0.000 N 
ATOM      3  C   UNL     1       1.941   8.705  18.281  0.00  0.00    +0.000 C 
ATOM      4  O   UNL     1       2.150   9.472  17.345  0.00  0.00    +0.000 OA
ATOM      5  H   UNL     1       1.042   8.305  20.092  0.00  0.00    +0.000 HD
BRANCH   2   8
ATOM      6  C   UNL     1      -0.113  12.336  20.643  0.00  0.00    +0.000 A 
ATOM      7  C   UNL     1       0.631  11.141  20.569  0.00  0.00    +0.000 A 
ATOM      8  C   UNL     1       0.393  10.198  19.565  0.00  0.00    +0.000 A 
ATOM      9  C   UNL     1      -0.647  10.436  18.658  0.00  0.00    +0.000 A 
ATOM     10  C   UNL     1      -1.398  11.614  18.715  0.00  0.00    +0.000 A 
ATOM     11  C   UNL     1      -1.115  12.570  19.690  0.00  0.00    +0.000 A 
BRANCH   6  13
ATOM     12  O   UNL     1       1.304  13.806  21.881  0.00  0.00    +0.000 OA
ATOM     13  C   UNL     1       0.209  13.278  21.746  0.00  0.00    +0.000 C 
BRANCH  13  14
ATOM     14  O   UNL     1      -0.825  13.546  22.573  0.00  0.00    +0.000 OA
ATOM     15  H   UNL     1      -1.695  13.453  22.124  0.00  0.00    +0.000 HD
ENDBRANCH  13  14
ENDBRANCH   6  13
BRANCH  11  16
ATOM     16  O   UNL     1      -1.803  13.748  19.702  0.00  0.00    +0.000 OA
ATOM     17  H   UNL     1      -2.107  13.952  18.797  0.00  0.00    +0.000 HD
ENDBRANCH  11  16
ENDBRANCH   2   8
ENDBRANCH   1   3
BRANCH   1  18
ATOM     18  C   UNL     1       2.482   6.720  19.755  0.00  0.00    +0.000 C 
BRANCH  18  19
ATOM     19  C   UNL     1       1.997   5.318  20.095  0.00  0.00    +0.000 A 
ATOM     20  C   UNL     1       1.159   4.539  19.293  0.00  0.00    +0.000 A 
ATOM     21  C   UNL     1       0.714   3.279  19.715  0.00  0.00    +0.000 A 
ATOM     22  C   UNL     1       1.140   2.751  20.929  0.00  0.00    +0.000 A 
ATOM     23  C   UNL     1       2.034   3.473  21.711  0.00  0.00    +0.000 A 
ATOM     24  C   UNL     1       2.456   4.742  21.298  0.00  0.00    +0.000 A 
ENDBRANCH  18  19
ENDBRANCH   1  18
BRANCH   1  25
ATOM     25  C   UNL     1       3.940   7.273  17.605  0.00  0.00    +0.000 C 
BRANCH  25  26
ATOM     26  C   UNL     1       4.979   6.149  17.853  0.00  0.00    +0.000 C 
BRANCH  26  27
ATOM     27  C   UNL     1       6.366   6.770  17.613  0.00  0.00    +0.000 C 
ATOM     28  O   UNL     1       7.352   6.557  18.300  0.00  0.00    +0.000 OA
BRANCH  27  29
ATOM     29  O   UNL     1       6.434   7.593  16.539  0.00  0.00    +0.000 OA
ATOM     30  H   UNL     1       6.610   7.157  15.688  0.00  0.00    +0.000 HD
ENDBRANCH  27  29
ENDBRANCH  26  27
BRANCH  26  31
ATOM     31  C   UNL     1       4.797   4.854  17.029  0.00  0.00    +0.000 C 
BRANCH  31  32
ATOM     32  C   UNL     1       4.411   3.599  17.783  0.00  0.00    +0.000 A 
ATOM     33  C   UNL     1       4.937   3.329  19.060  0.00  0.00    +0.000 A 
ATOM     34  C   UNL     1       4.621   2.149  19.737  0.00  0.00    +0.000 A 
ATOM     35  C   UNL     1       3.741   1.236  19.167  0.00  0.00    +0.000 A 
ATOM     36  C   UNL     1       3.163   1.514  17.929  0.00  0.00    +0.000 A 
ATOM     37  C   UNL     1       3.497   2.686  17.242  0.00  0.00    +0.000 A 
ENDBRANCH  31  32
ENDBRANCH  26  31
ENDBRANCH  25  26
ENDBRANCH   1  25
TORSDOF 13
ENDMDL
MODEL 6
REMARK VINA RESULT:      -7.5      2.767      4.545
REMARK  Name = 
REMARK  13 active torsions:
REMARK  status: ('A' for Active; 'I' for Inactive)
REMARK    1  A    between atoms: C_2  and  O_3
REMARK    2  A    between atoms: C_2  and  C_4
REMARK    3  A    between atoms: C_6  and  N_7
REMARK    4  A    between atoms: C_8  and  C_10
REMARK    5  A    between atoms: C_10  and  C_11
REMARK    6  A    between atoms: C_10  and  C_18
REMARK    7  A    between atoms: C_11  and  C_12
REMARK    8  A    between atoms: C_18  and  C_19
REMARK    9  A    between atoms: C_19  and  C_20
REMARK   10  A    between atoms: C_19  and  C_27
REMARK   11  A    between atoms: C_20  and  C_21
REMARK   12  A    between atoms: C_27  and  O_29
REMARK   13  A    between atoms: C_32  and  O_33
REMARK                            x       y       z     vdW  Elec       q    Type
REMARK                         _______ _______ _______ _____ _____    ______ ____
ROOT
ATOM      1  C   UNL     1       5.018   4.280  17.964  0.00  0.00    +0.000 C 
ENDROOT
BRANCH   1   3
ATOM      2  N   UNL     1       3.253   6.009  18.116  0.00  0.00    +0.000 N 
ATOM      3  C   UNL     1       4.404   5.499  18.696  0.00  0.00    +0.000 C 
ATOM      4  O   UNL     1       4.918   5.951  19.716  0.00  0.00    +0.000 OA
ATOM      5  H   UNL     1       2.923   5.567  17.265  0.00  0.00    +0.000 HD
BRANCH   2   8
ATOM      6  C   UNL     1       1.425   8.603  20.150  0.00  0.00    +0.000 A 
ATOM      7  C   UNL     1       2.034   7.382  19.793  0.00  0.00    +0.000 A 
ATOM      8  C   UNL     1       2.555   7.178  18.512  0.00  0.00    +0.000 A 
ATOM      9  C   UNL     1       2.409   8.196  17.561  0.00  0.00    +0.000 A 
ATOM     10  C   UNL     1       1.808   9.414  17.895  0.00  0.00    +0.000 A 
ATOM     11  C   UNL     1       1.340   9.623  19.192  0.00  0.00    +0.000 A 
BRANCH   6  13
ATOM     12  O   UNL     1      -0.293   8.808  21.795  0.00  0.00    +0.000 OA
ATOM     13  C   UNL     1       0.899   8.728  21.534  0.00  0.00    +0.000 C 
BRANCH  13  14
ATOM     14  O   UNL     1       1.846   8.699  22.497  0.00  0.00    +0.000 OA
ATOM     15  H   UNL     1       2.636   8.179  22.228  0.00  0.00    +0.000 HD
ENDBRANCH  13  14
ENDBRANCH   6  13
BRANCH  11  16
ATOM     16  O   UNL     1       0.815  10.835  19.533  0.00  0.00    +0.000 OA
ATOM     17  H   UNL     1       1.057  11.493  18.854  0.00  0.00    +0.000 HD
ENDBRANCH  11  16
ENDBRANCH   2   8
ENDBRANCH   1   3
BRANCH   1  18
ATOM     18  C   UNL     1       4.521   2.972  18.647  0.00  0.00    +0.000 C 
BRANCH  18  19
ATOM     19  C   UNL     1       3.261   2.882  19.495  0.00  0.00    +0.000 A 
ATOM     20  C   UNL     1       1.954   2.893  18.999  0.00  0.00    +0.000 A 
ATOM     21  C   UNL     1       0.850   2.865  19.860  0.00  0.00    +0.000 A 
ATOM     22  C   UNL     1       1.030   2.776  21.236  0.00  0.00    +0.000 A 
ATOM     23  C   UNL     1       2.318   2.687  21.751  0.00  0.00    +0.000 A 
ATOM     24  C   UNL     1       3.420   2.740  20.889  0.00  0.00    +0.000 A 
ENDBRANCH  18  19
ENDBRANCH   1  18
BRANCH   1  25
ATOM     25  C   UNL     1       6.545   4.458  17.782  0.00  0.00    +0.000 C 
BRANCH  25  26
ATOM     26  C   UNL     1       7.141   5.437  16.737  0.00  0.00    +0.000 C 
BRANCH  26  27
ATOM     27  C   UNL     1       7.604   6.682  17.514  0.00  0.00    +0.000 C 
ATOM     28  O   UNL     1       7.696   7.803  17.040  0.00  0.00    +0.000 OA
BRANCH  27  29
ATOM     29  O   UNL     1       7.902   6.452  18.815  0.00  0.00    +0.000 OA
ATOM     30  H   UNL     1       8.832   6.592  19.062  0.00  0.00    +0.000 HD
ENDBRANCH  27  29
ENDBRANCH  26  27
BRANCH  26  31
ATOM     31  C   UNL     1       6.221   5.824  15.557  0.00  0.00    +0.000 C 
BRANCH  31  32
ATOM     32  C   UNL     1       6.330   4.999  14.291  0.00  0.00    +0.000 A 
ATOM     33  C   UNL     1       5.328   4.076  13.939  0.00  0.00    +0.000 A 
ATOM     34  C   UNL     1       5.449   3.280  12.798  0.00  0.00    +0.000 A 
ATOM     35  C   UNL     1       6.556   3.420  11.967  0.00  0.00    +0.000 A 
ATOM     36  C   UNL     1       7.529   4.371  12.269  0.00  0.00    +0.000 A 
ATOM     37  C   UNL     1       7.418   5.153  13.423  0.00  0.00    +0.000 A 
ENDBRANCH  31  32
ENDBRANCH  26  31
ENDBRANCH  25  26
ENDBRANCH   1  25
TORSDOF 13
ENDMDL
MODEL 7
REMARK VINA RESULT:      -7.4      1.617      2.230
REMARK  Name = 
REMARK  13 active torsions:
REMARK  status: ('A' for Active; 'I' for Inactive)
REMARK    1  A    between atoms: C_2  and  O_3
REMARK    2  A    between atoms: C_2  and  C_4
REMARK    3  A    between atoms: C_6  and  N_7
REMARK    4  A    between atoms: C_8  and  C_10
REMARK    5  A    between atoms: C_10  and  C_11
REMARK    6  A    between atoms: C_10  and  C_18
REMARK    7  A    between atoms: C_11  and  C_12
REMARK    8  A    between atoms: C_18  and  C_19
REMARK    9  A    between atoms: C_19  and  C_20
REMARK   10  A    between atoms: C_19  and  C_27
REMARK   11  A    between atoms: C_20  and  C_21
REMARK   12  A    between atoms: C_27  and  O_29
REMARK   13  A    between atoms: C_32  and  O_33
REMARK                            x       y       z     vdW  Elec       q    Type
REMARK                         _______ _______ _______ _____ _____    ______ ____
ROOT
ATOM      1  C   UNL     1       2.651   7.244  18.216  0.00  0.00    +0.000 C 
ENDROOT
BRANCH   1   3
ATOM      2  N   UNL     1       1.544   9.050  19.498  0.00  0.00    +0.000 N 
ATOM      3  C   UNL     1       1.927   8.613  18.239  0.00  0.00    +0.000 C 
ATOM      4  O   UNL     1       1.728   9.243  17.203  0.00  0.00    +0.000 OA
ATOM      5  H   UNL     1       1.745   8.442  20.284  0.00  0.00    +0.000 HD
BRANCH   2   8
ATOM      6  C   UNL     1      -0.698  11.548  21.212  0.00  0.00    +0.000 A 
ATOM      7  C   UNL     1      -0.024  10.342  20.932  0.00  0.00    +0.000 A 
ATOM      8  C   UNL     1       0.775  10.203  19.793  0.00  0.00    +0.000 A 
ATOM      9  C   UNL     1       0.850  11.275  18.895  0.00  0.00    +0.000 A 
ATOM     10  C   UNL     1       0.189  12.481  19.154  0.00  0.00    +0.000 A 
ATOM     11  C   UNL     1      -0.562  12.622  20.321  0.00  0.00    +0.000 A 
BRANCH   6  13
ATOM     12  O   UNL     1      -2.586  12.205  22.517  0.00  0.00    +0.000 OA
ATOM     13  C   UNL     1      -1.525  11.602  22.445  0.00  0.00    +0.000 C 
BRANCH  13  14
ATOM     14  O   UNL     1      -1.033  10.887  23.480  0.00  0.00    +0.000 OA
ATOM     15  H   UNL     1      -1.450  11.133  24.336  0.00  0.00    +0.000 HD
ENDBRANCH  13  14
ENDBRANCH   6  13
BRANCH  11  16
ATOM     16  O   UNL     1      -1.150  13.820  20.604  0.00  0.00    +0.000 OA
ATOM     17  H   UNL     1      -1.681  13.733  21.419  0.00  0.00    +0.000 HD
ENDBRANCH  11  16
ENDBRANCH   2   8
ENDBRANCH   1   3
BRANCH   1  18
ATOM     18  C   UNL     1       2.668   6.653  19.657  0.00  0.00    +0.000 C 
BRANCH  18  19
ATOM     19  C   UNL     1       2.097   5.291  20.024  0.00  0.00    +0.000 A 
ATOM     20  C   UNL     1       1.264   4.521  19.207  0.00  0.00    +0.000 A 
ATOM     21  C   UNL     1       0.736   3.302  19.651  0.00  0.00    +0.000 A 
ATOM     22  C   UNL     1       1.070   2.804  20.906  0.00  0.00    +0.000 A 
ATOM     23  C   UNL     1       1.956   3.514  21.708  0.00  0.00    +0.000 A 
ATOM     24  C   UNL     1       2.463   4.743  21.271  0.00  0.00    +0.000 A 
ENDBRANCH  18  19
ENDBRANCH   1  18
BRANCH   1  25
ATOM     25  C   UNL     1       4.002   7.348  17.468  0.00  0.00    +0.000 C 
BRANCH  25  26
ATOM     26  C   UNL     1       5.044   6.199  17.487  0.00  0.00    +0.000 C 
BRANCH  26  27
ATOM     27  C   UNL     1       6.331   6.760  16.859  0.00  0.00    +0.000 C 
ATOM     28  O   UNL     1       6.918   7.756  17.250  0.00  0.00    +0.000 OA
BRANCH  27  29
ATOM     29  O   UNL     1       6.801   6.044  15.809  0.00  0.00    +0.000 OA
ATOM     30  H   UNL     1       7.566   6.430  15.349  0.00  0.00    +0.000 HD
ENDBRANCH  27  29
ENDBRANCH  26  27
BRANCH  26  31
ATOM     31  C   UNL     1       4.620   4.878  16.807  0.00  0.00    +0.000 C 
BRANCH  31  32
ATOM     32  C   UNL     1       4.388   3.678  17.701  0.00  0.00    +0.000 A 
ATOM     33  C   UNL     1       4.972   3.602  18.980  0.00  0.00    +0.000 A 
ATOM     34  C   UNL     1       4.799   2.476  19.786  0.00  0.00    +0.000 A 
ATOM     35  C   UNL     1       4.007   1.421  19.346  0.00  0.00    +0.000 A 
ATOM     36  C   UNL     1       3.372   1.504  18.108  0.00  0.00    +0.000 A 
ATOM     37  C   UNL     1       3.563   2.623  17.291  0.00  0.00    +0.000 A 
ENDBRANCH  31  32
ENDBRANCH  26  31
ENDBRANCH  25  26
ENDBRANCH   1  25
TORSDOF 13
ENDMDL
MODEL 8
REMARK VINA RESULT:      -7.3      1.710      2.543
REMARK  Name = 
REMARK  13 active torsions:
REMARK  status: ('A' for Active; 'I' for Inactive)
REMARK    1  A    between atoms: C_2  and  O_3
REMARK    2  A    between atoms: C_2  and  C_4
REMARK    3  A    between atoms: C_6  and  N_7
REMARK    4  A    between atoms: C_8  and  C_10
REMARK    5  A    between atoms: C_10  and  C_11
REMARK    6  A    between atoms: C_10  and  C_18
REMARK    7  A    between atoms: C_11  and  C_12
REMARK    8  A    between atoms: C_18  and  C_19
REMARK    9  A    between atoms: C_19  and  C_20
REMARK   10  A    between atoms: C_19  and  C_27
REMARK   11  A    between atoms: C_20  and  C_21
REMARK   12  A    between atoms: C_27  and  O_29
REMARK   13  A    between atoms: C_32  and  O_33
REMARK                            x       y       z     vdW  Elec       q    Type
REMARK                         _______ _______ _______ _____ _____    ______ ____
ROOT
ATOM      1  C   UNL     1       2.321   6.919  18.103  0.00  0.00    +0.000 C 
ENDROOT
BRANCH   1   3
ATOM      2  N   UNL     1       1.270   9.047  18.806  0.00  0.00    +0.000 N 
ATOM      3  C   UNL     1       2.151   8.448  17.919  0.00  0.00    +0.000 C 
ATOM      4  O   UNL     1       2.770   9.054  17.049  0.00  0.00    +0.000 OA
ATOM      5  H   UNL     1       0.800   8.448  19.475  0.00  0.00    +0.000 HD
BRANCH   2   8
ATOM      6  C   UNL     1       1.231  12.811  18.609  0.00  0.00    +0.000 A 
ATOM      7  C   UNL     1       1.717  11.492  18.708  0.00  0.00    +0.000 A 
ATOM      8  C   UNL     1       0.847  10.400  18.790  0.00  0.00    +0.000 A 
ATOM      9  C   UNL     1      -0.531  10.647  18.829  0.00  0.00    +0.000 A 
ATOM     10  C   UNL     1      -1.034  11.948  18.733  0.00  0.00    +0.000 A 
ATOM     11  C   UNL     1      -0.155  13.023  18.600  0.00  0.00    +0.000 A 
BRANCH   6  13
ATOM     12  O   UNL     1       2.093  14.985  19.089  0.00  0.00    +0.000 OA
ATOM     13  C   UNL     1       2.231  13.907  18.529  0.00  0.00    +0.000 C 
BRANCH  13  14
ATOM     14  O   UNL     1       3.340  13.601  17.820  0.00  0.00    +0.000 OA
ATOM     15  H   UNL     1       3.236  13.800  16.863  0.00  0.00    +0.000 HD
ENDBRANCH  13  14
ENDBRANCH   6  13
BRANCH  11  16
ATOM     16  O   UNL     1      -0.649  14.283  18.438  0.00  0.00    +0.000 OA
ATOM     17  H   UNL     1      -1.399  14.258  17.814  0.00  0.00    +0.000 HD
ENDBRANCH  11  16
ENDBRANCH   2   8
ENDBRANCH   1   3
BRANCH   1  18
ATOM     18  C   UNL     1       2.339   6.588  19.624  0.00  0.00    +0.000 C 
BRANCH  18  19
ATOM     19  C   UNL     1       1.970   5.229  20.202  0.00  0.00    +0.000 A 
ATOM     20  C   UNL     1       2.392   4.740  21.442  0.00  0.00    +0.000 A 
ATOM     21  C   UNL     1       2.051   3.450  21.869  0.00  0.00    +0.000 A 
ATOM     22  C   UNL     1       1.239   2.639  21.084  0.00  0.00    +0.000 A 
ATOM     23  C   UNL     1       0.745   3.129  19.880  0.00  0.00    +0.000 A 
ATOM     24  C   UNL     1       1.107   4.409  19.446  0.00  0.00    +0.000 A 
ENDBRANCH  18  19
ENDBRANCH   1  18
BRANCH   1  25
ATOM     25  C   UNL     1       3.491   6.387  17.240  0.00  0.00    +0.000 C 
BRANCH  25  26
ATOM     26  C   UNL     1       4.971   6.526  17.683  0.00  0.00    +0.000 C 
BRANCH  26  27
ATOM     27  C   UNL     1       5.807   6.639  16.397  0.00  0.00    +0.000 C 
ATOM     28  O   UNL     1       7.020   6.516  16.343  0.00  0.00    +0.000 OA
BRANCH  27  29
ATOM     29  O   UNL     1       5.083   6.880  15.277  0.00  0.00    +0.000 OA
ATOM     30  H   UNL     1       5.403   7.612  14.722  0.00  0.00    +0.000 HD
ENDBRANCH  27  29
ENDBRANCH  26  27
BRANCH  26  31
ATOM     31  C   UNL     1       5.517   5.416  18.609  0.00  0.00    +0.000 C 
BRANCH  31  32
ATOM     32  C   UNL     1       4.853   4.057  18.531  0.00  0.00    +0.000 A 
ATOM     33  C   UNL     1       4.145   3.661  17.381  0.00  0.00    +0.000 A 
ATOM     34  C   UNL     1       3.492   2.428  17.325  0.00  0.00    +0.000 A 
ATOM     35  C   UNL     1       3.568   1.552  18.402  0.00  0.00    +0.000 A 
ATOM     36  C   UNL     1       4.314   1.902  19.526  0.00  0.00    +0.000 A 
ATOM     37  C   UNL     1       4.950   3.146  19.590  0.00  0.00    +0.000 A 
ENDBRANCH  31  32
ENDBRANCH  26  31
ENDBRANCH  25  26
ENDBRANCH   1  25
TORSDOF 13
ENDMDL
MODEL 9
REMARK VINA RESULT:      -7.3      1.653      2.548
REMARK  Name = 
REMARK  13 active torsions:
REMARK  status: ('A' for Active; 'I' for Inactive)
REMARK    1  A    between atoms: C_2  and  O_3
REMARK    2  A    between atoms: C_2  and  C_4
REMARK    3  A    between atoms: C_6  and  N_7
REMARK    4  A    between atoms: C_8  and  C_10
REMARK    5  A    between atoms: C_10  and  C_11
REMARK    6  A    between atoms: C_10  and  C_18
REMARK    7  A    between atoms: C_11  and  C_12
REMARK    8  A    between atoms: C_18  and  C_19
REMARK    9  A    between atoms: C_19  and  C_20
REMARK   10  A    between atoms: C_19  and  C_27
REMARK   11  A    between atoms: C_20  and  C_21
REMARK   12  A    between atoms: C_27  and  O_29
REMARK   13  A    between atoms: C_32  and  O_33
REMARK                            x       y       z     vdW  Elec       q    Type
REMARK                         _______ _______ _______ _____ _____    ______ ____
ROOT
ATOM      1  C   UNL     1       3.504   6.693  17.972  0.00  0.00    +0.000 C 
ENDROOT
BRANCH   1   3
ATOM      2  N   UNL     1       1.953   8.202  19.173  0.00  0.00    +0.000 N 
ATOM      3  C   UNL     1       2.705   8.019  18.022  0.00  0.00    +0.000 C 
ATOM      4  O   UNL     1       2.761   8.828  17.101  0.00  0.00    +0.000 OA
ATOM      5  H   UNL     1       1.968   7.461  19.865  0.00  0.00    +0.000 HD
BRANCH   2   8
ATOM      6  C   UNL     1      -0.721  10.832  18.799  0.00  0.00    +0.000 A 
ATOM      7  C   UNL     1       0.218   9.836  18.462  0.00  0.00    +0.000 A 
ATOM      8  C   UNL     1       1.050   9.264  19.429  0.00  0.00    +0.000 A 
ATOM      9  C   UNL     1       0.974   9.743  20.743  0.00  0.00    +0.000 A 
ATOM     10  C   UNL     1       0.049  10.731  21.099  0.00  0.00    +0.000 A 
ATOM     11  C   UNL     1      -0.810  11.255  20.133  0.00  0.00    +0.000 A 
BRANCH   6  13
ATOM     12  O   UNL     1      -2.444  10.744  17.148  0.00  0.00    +0.000 OA
ATOM     13  C   UNL     1      -1.561  11.382  17.704  0.00  0.00    +0.000 C 
BRANCH  13  14
ATOM     14  O   UNL     1      -1.303  12.672  17.396  0.00  0.00    +0.000 OA
ATOM     15  H   UNL     1      -2.024  13.275  17.682  0.00  0.00    +0.000 HD
ENDBRANCH  13  14
ENDBRANCH   6  13
BRANCH  11  16
ATOM     16  O   UNL     1      -1.756  12.169  20.495  0.00  0.00    +0.000 OA
ATOM     17  H   UNL     1      -2.181  11.880  21.325  0.00  0.00    +0.000 HD
ENDBRANCH  11  16
ENDBRANCH   2   8
ENDBRANCH   1   3
BRANCH   1  18
ATOM     18  C   UNL     1       3.326   5.938  19.322  0.00  0.00    +0.000 C 
BRANCH  18  19
ATOM     19  C   UNL     1       2.428   4.723  19.504  0.00  0.00    +0.000 A 
ATOM     20  C   UNL     1       1.959   4.244  20.730  0.00  0.00    +0.000 A 
ATOM     21  C   UNL     1       1.184   3.080  20.808  0.00  0.00    +0.000 A 
ATOM     22  C   UNL     1       0.820   2.397  19.653  0.00  0.00    +0.000 A 
ATOM     23  C   UNL     1       1.210   2.893  18.415  0.00  0.00    +0.000 A 
ATOM     24  C   UNL     1       2.005   4.043  18.343  0.00  0.00    +0.000 A 
ENDBRANCH  18  19
ENDBRANCH   1  18
BRANCH   1  25
ATOM     25  C   UNL     1       4.950   6.939  17.474  0.00  0.00    +0.000 C 
BRANCH  25  26
ATOM     26  C   UNL     1       6.171   6.219  18.104  0.00  0.00    +0.000 C 
BRANCH  26  27
ATOM     27  C   UNL     1       7.377   7.157  17.923  0.00  0.00    +0.000 C 
ATOM     28  O   UNL     1       7.493   7.975  17.024  0.00  0.00    +0.000 OA
BRANCH  27  29
ATOM     29  O   UNL     1       8.337   7.025  18.870  0.00  0.00    +0.000 OA
ATOM     30  H   UNL     1       8.489   6.119  19.188  0.00  0.00    +0.000 HD
ENDBRANCH  27  29
ENDBRANCH  26  27
BRANCH  26  31
ATOM     31  C   UNL     1       6.480   4.802  17.571  0.00  0.00    +0.000 C 
BRANCH  31  32
ATOM     32  C   UNL     1       6.371   4.582  16.076  0.00  0.00    +0.000 A 
ATOM     33  C   UNL     1       5.226   3.988  15.512  0.00  0.00    +0.000 A 
ATOM     34  C   UNL     1       5.143   3.740  14.141  0.00  0.00    +0.000 A 
ATOM     35  C   UNL     1       6.187   4.117  13.302  0.00  0.00    +0.000 A 
ATOM     36  C   UNL     1       7.303   4.760  13.835  0.00  0.00    +0.000 A 
ATOM     37  C   UNL     1       7.394   4.989  15.212  0.00  0.00    +0.000 A 
ENDBRANCH  31  32
ENDBRANCH  26  31
ENDBRANCH  25  26
ENDBRANCH   1  25
TORSDOF 13
ENDMDL
