MODEL 1
REMARK VINA RESULT:      -8.1      0.000      0.000
REMARK  Name = 
REMARK  5 active torsions:
REMARK  status: ('A' for Active; 'I' for Inactive)
REMARK    1  A    between atoms: C_1  and  O_2
REMARK    2  A    between atoms: O_2  and  C_3
REMARK    3  A    between atoms: C_7  and  C_8
REMARK    4  A    between atoms: C_12  and  N_13
REMARK    5  A    between atoms: C_15  and  N_16
REMARK                            x       y       z     vdW  Elec       q    Type
REMARK                         _______ _______ _______ _____ _____    ______ ____
ROOT
ATOM      1  N   UNL     1       0.480   9.457  21.058  0.00  0.00    +0.000 N 
ATOM      2  C   UNL     1      -0.929   9.767  20.999  0.00  0.00    +0.000 C 
ATOM      3  C   UNL     1      -1.194  10.703  22.197  0.00  0.00    +0.000 C 
ATOM      4  C   UNL     1      -0.187  10.125  23.209  0.00  0.00    +0.000 C 
ATOM      5  C   UNL     1       0.951   9.596  22.366  0.00  0.00    +0.000 C 
ATOM      6  O   UNL     1       2.032   9.277  22.836  0.00  0.00    +0.000 OA
ENDROOT
BRANCH   3   7
ATOM      7  N   UNL     1      -0.992  12.130  21.841  0.00  0.00    +0.000 NA
ATOM      8  C   UNL     1      -1.893  12.598  20.746  0.00  0.00    +0.000 C 
ATOM      9  C   UNL     1      -3.363  12.898  21.139  0.00  0.00    +0.000 C 
ATOM     10  N   UNL     1      -3.396  13.757  22.314  0.00  0.00    +0.000 N 
ATOM     11  C   UNL     1      -4.503  14.546  22.529  0.00  0.00    +0.000 A 
ATOM     12  N   UNL     1      -4.804  14.925  23.782  0.00  0.00    +0.000 NA
ATOM     13  C   UNL     1      -5.822  15.788  23.949  0.00  0.00    +0.000 A 
ATOM     14  C   UNL     1      -6.552  16.308  22.913  0.00  0.00    +0.000 A 
ATOM     15  C   UNL     1      -6.187  15.862  21.671  0.00  0.00    +0.000 A 
ATOM     16  N   UNL     1      -5.193  14.981  21.460  0.00  0.00    +0.000 NA
ATOM     17  C   UNL     1      -2.589  13.334  23.451  0.00  0.00    +0.000 C 
ATOM     18  C   UNL     1      -1.140  13.083  22.969  0.00  0.00    +0.000 C 
ENDBRANCH   3   7
BRANCH   1  23
ATOM     19  C   UNL     1       2.613   7.195  18.944  0.00  0.00    +0.000 A 
ATOM     20  C   UNL     1       2.721   7.972  17.783  0.00  0.00    +0.000 A 
ATOM     21  C   UNL     1       2.082   9.210  17.689  0.00  0.00    +0.000 A 
ATOM     22  C   UNL     1       1.342   9.705  18.766  0.00  0.00    +0.000 A 
ATOM     23  C   UNL     1       1.218   8.973  19.947  0.00  0.00    +0.000 A 
ATOM     24  C   UNL     1       1.839   7.715  20.002  0.00  0.00    +0.000 A 
BRANCH  19  29
ATOM     25  C   UNL     1       5.380   4.585  19.062  0.00  0.00    +0.000 A 
ATOM     26  C   UNL     1       4.657   3.431  19.348  0.00  0.00    +0.000 A 
ATOM     27  C   UNL     1       3.272   3.488  19.500  0.00  0.00    +0.000 A 
ATOM     28  C   UNL     1       2.603   4.708  19.374  0.00  0.00    +0.000 A 
ATOM     29  C   UNL     1       3.300   5.890  19.081  0.00  0.00    +0.000 A 
ATOM     30  C   UNL     1       4.700   5.796  18.918  0.00  0.00    +0.000 A 
BRANCH  25  32
ATOM     31  C   UNL     1       7.292   4.670  17.653  0.00  0.00    +0.000 C 
ATOM     32  O   UNL     1       6.733   4.414  18.938  0.00  0.00    +0.000 OA
ENDBRANCH  25  32
ENDBRANCH  19  29
ENDBRANCH   1  23
TORSDOF 4
ENDMDL
MODEL 2
REMARK VINA RESULT:      -8.1      1.158      1.855
REMARK  Name = 
REMARK  5 active torsions:
REMARK  status: ('A' for Active; 'I' for Inactive)
REMARK    1  A    between atoms: C_1  and  O_2
REMARK    2  A    between atoms: O_2  and  C_3
REMARK    3  A    between atoms: C_7  and  C_8
REMARK    4  A    between atoms: C_12  and  N_13
REMARK    5  A    between atoms: C_15  and  N_16
REMARK                            x       y       z     vdW  Elec       q    Type
REMARK                         _______ _______ _______ _____ _____    ______ ____
ROOT
ATOM      1  N   UNL     1       0.438   9.565  20.907  0.00  0.00    +0.000 N 
ATOM      2  C   UNL     1      -0.942   9.961  20.751  0.00  0.00    +0.000 C 
ATOM      3  C   UNL     1      -1.230  10.921  21.924  0.00  0.00    +0.000 C 
ATOM      4  C   UNL     1      -0.332  10.291  23.004  0.00  0.00    +0.000 C 
ATOM      5  C   UNL     1       0.826   9.687  22.244  0.00  0.00    +0.000 C 
ATOM      6  O   UNL     1       1.851   9.306  22.789  0.00  0.00    +0.000 OA
ENDROOT
BRANCH   3   7
ATOM      7  N   UNL     1      -0.917  12.330  21.576  0.00  0.00    +0.000 NA
ATOM      8  C   UNL     1      -1.916  12.946  20.653  0.00  0.00    +0.000 C 
ATOM      9  C   UNL     1      -3.260  13.394  21.284  0.00  0.00    +0.000 C 
ATOM     10  N   UNL     1      -3.005  14.199  22.472  0.00  0.00    +0.000 N 
ATOM     11  C   UNL     1      -3.962  15.098  22.882  0.00  0.00    +0.000 A 
ATOM     12  N   UNL     1      -4.015  15.453  24.176  0.00  0.00    +0.000 NA
ATOM     13  C   UNL     1      -4.884  16.418  24.527  0.00  0.00    +0.000 A 
ATOM     14  C   UNL     1      -5.700  17.063  23.635  0.00  0.00    +0.000 A 
ATOM     15  C   UNL     1      -5.590  16.634  22.340  0.00  0.00    +0.000 A 
ATOM     16  N   UNL     1      -4.754  15.655  21.949  0.00  0.00    +0.000 NA
ATOM     17  C   UNL     1      -2.086  13.635  23.452  0.00  0.00    +0.000 C 
ATOM     18  C   UNL     1      -0.772  13.243  22.738  0.00  0.00    +0.000 C 
ENDBRANCH   3   7
BRANCH   1  23
ATOM     19  C   UNL     1       2.606   7.180  18.973  0.00  0.00    +0.000 A 
ATOM     20  C   UNL     1       2.803   7.922  17.800  0.00  0.00    +0.000 A 
ATOM     21  C   UNL     1       2.212   9.176  17.640  0.00  0.00    +0.000 A 
ATOM     22  C   UNL     1       1.432   9.723  18.661  0.00  0.00    +0.000 A 
ATOM     23  C   UNL     1       1.218   9.028  19.851  0.00  0.00    +0.000 A 
ATOM     24  C   UNL     1       1.794   7.753  19.972  0.00  0.00    +0.000 A 
BRANCH  19  29
ATOM     25  C   UNL     1       3.100   3.557  20.026  0.00  0.00    +0.000 A 
ATOM     26  C   UNL     1       4.399   3.318  19.585  0.00  0.00    +0.000 A 
ATOM     27  C   UNL     1       5.124   4.325  18.950  0.00  0.00    +0.000 A 
ATOM     28  C   UNL     1       4.546   5.581  18.745  0.00  0.00    +0.000 A 
ATOM     29  C   UNL     1       3.241   5.858  19.181  0.00  0.00    +0.000 A 
ATOM     30  C   UNL     1       2.539   4.821  19.834  0.00  0.00    +0.000 A 
BRANCH  25  32
ATOM     31  C   UNL     1       1.459   2.808  21.573  0.00  0.00    +0.000 C 
ATOM     32  O   UNL     1       2.482   2.496  20.632  0.00  0.00    +0.000 OA
ENDBRANCH  25  32
ENDBRANCH  19  29
ENDBRANCH   1  23
TORSDOF 4
ENDMDL
MODEL 3
REMARK VINA RESULT:      -8.0      2.626      3.007
REMARK  Name = 
REMARK  5 active torsions:
REMARK  status: ('A' for Active; 'I' for Inactive)
REMARK    1  A    between atoms: C_1  and  O_2
REMARK    2  A    between atoms: O_2  and  C_3
REMARK    3  A    between atoms: C_7  and  C_8
REMARK    4  A    between atoms: C_12  and  N_13
REMARK    5  A    between atoms: C_15  and  N_16
REMARK                            x       y       z     vdW  Elec       q    Type
REMARK                         _______ _______ _______ _____ _____    ______ ____
ROOT
ATOM      1  N   UNL     1       0.196  10.168  20.942  0.00  0.00    +0.000 N 
ATOM      2  C   UNL     1      -0.812  11.164  20.661  0.00  0.00    +0.000 C 
ATOM      3  C   UNL     1      -1.013  11.930  21.985  0.00  0.00    +0.000 C 
ATOM      4  C   UNL     1      -0.779  10.786  22.988  0.00  0.00    +0.000 C 
ATOM      5  C   UNL     1       0.209   9.867  22.307  0.00  0.00    +0.000 C 
ATOM      6  O   UNL     1       0.802   8.976  22.896  0.00  0.00    +0.000 OA
ENDROOT
BRANCH   3   7
ATOM      7  N   UNL     1      -0.086  13.082  22.105  0.00  0.00    +0.000 NA
ATOM      8  C   UNL     1       0.625  13.403  20.832  0.00  0.00    +0.000 C 
ATOM      9  C   UNL     1      -0.190  14.163  19.753  0.00  0.00    +0.000 C 
ATOM     10  N   UNL     1      -0.842  15.320  20.351  0.00  0.00    +0.000 N 
ATOM     11  C   UNL     1      -1.173  16.386  19.546  0.00  0.00    +0.000 A 
ATOM     12  N   UNL     1      -2.185  17.191  19.908  0.00  0.00    +0.000 NA
ATOM     13  C   UNL     1      -2.411  18.288  19.162  0.00  0.00    +0.000 A 
ATOM     14  C   UNL     1      -1.657  18.631  18.071  0.00  0.00    +0.000 A 
ATOM     15  C   UNL     1      -0.654  17.751  17.765  0.00  0.00    +0.000 A 
ATOM     16  N   UNL     1      -0.408  16.630  18.467  0.00  0.00    +0.000 NA
ATOM     17  C   UNL     1      -1.610  15.077  21.566  0.00  0.00    +0.000 C 
ATOM     18  C   UNL     1      -0.711  14.341  22.586  0.00  0.00    +0.000 C 
ENDBRANCH   3   7
BRANCH   1  23
ATOM     19  C   UNL     1       2.203   7.535  19.162  0.00  0.00    +0.000 A 
ATOM     20  C   UNL     1       2.515   8.220  17.980  0.00  0.00    +0.000 A 
ATOM     21  C   UNL     1       2.052   9.519  17.763  0.00  0.00    +0.000 A 
ATOM     22  C   UNL     1       1.288  10.167  18.737  0.00  0.00    +0.000 A 
ATOM     23  C   UNL     1       0.963   9.530  19.934  0.00  0.00    +0.000 A 
ATOM     24  C   UNL     1       1.410   8.210  20.111  0.00  0.00    +0.000 A 
BRANCH  19  29
ATOM     25  C   UNL     1       4.535   4.536  19.369  0.00  0.00    +0.000 A 
ATOM     26  C   UNL     1       3.700   3.576  19.934  0.00  0.00    +0.000 A 
ATOM     27  C   UNL     1       2.378   3.891  20.246  0.00  0.00    +0.000 A 
ATOM     28  C   UNL     1       1.886   5.176  20.001  0.00  0.00    +0.000 A 
ATOM     29  C   UNL     1       2.700   6.165  19.429  0.00  0.00    +0.000 A 
ATOM     30  C   UNL     1       4.029   5.811  19.110  0.00  0.00    +0.000 A 
BRANCH  25  32
ATOM     31  C   UNL     1       6.313   4.381  17.799  0.00  0.00    +0.000 C 
ATOM     32  O   UNL     1       5.813   4.119  19.107  0.00  0.00    +0.000 OA
ENDBRANCH  25  32
ENDBRANCH  19  29
ENDBRANCH   1  23
TORSDOF 4
ENDMDL
MODEL 4
REMARK VINA RESULT:      -7.9      1.821      3.266
REMARK  Name = 
REMARK  5 active torsions:
REMARK  status: ('A' for Active; 'I' for Inactive)
REMARK    1  A    between atoms: C_1  and  O_2
REMARK    2  A    between atoms: O_2  and  C_3
REMARK    3  A    between atoms: C_7  and  C_8
REMARK    4  A    between atoms: C_12  and  N_13
REMARK    5  A    between atoms: C_15  and  N_16
REMARK                            x       y       z     vdW  Elec       q    Type
REMARK                         _______ _______ _______ _____ _____    ______ ____
ROOT
ATOM      1  N   UNL     1       1.786   8.660  19.738  0.00  0.00    +0.000 N 
ATOM      2  C   UNL     1       1.736   9.529  20.891  0.00  0.00    +0.000 C 
ATOM      3  C   UNL     1       0.790  10.682  20.496  0.00  0.00    +0.000 C 
ATOM      4  C   UNL     1       1.115  10.785  18.995  0.00  0.00    +0.000 C 
ATOM      5  C   UNL     1       1.483   9.379  18.579  0.00  0.00    +0.000 C 
ATOM      6  O   UNL     1       1.574   9.035  17.410  0.00  0.00    +0.000 OA
ENDROOT
BRANCH   3   7
ATOM      7  N   UNL     1      -0.625  10.374  20.823  0.00  0.00    +0.000 NA
ATOM      8  C   UNL     1      -0.928  10.471  22.281  0.00  0.00    +0.000 C 
ATOM      9  C   UNL     1      -1.099  11.899  22.861  0.00  0.00    +0.000 C 
ATOM     10  N   UNL     1      -2.022  12.663  22.033  0.00  0.00    +0.000 N 
ATOM     11  C   UNL     1      -2.705  13.716  22.596  0.00  0.00    +0.000 A 
ATOM     12  N   UNL     1      -3.128  14.718  21.809  0.00  0.00    +0.000 NA
ATOM     13  C   UNL     1      -3.890  15.676  22.368  0.00  0.00    +0.000 A 
ATOM     14  C   UNL     1      -4.266  15.673  23.685  0.00  0.00    +0.000 A 
ATOM     15  C   UNL     1      -3.783  14.622  24.418  0.00  0.00    +0.000 A 
ATOM     16  N   UNL     1      -2.998  13.657  23.907  0.00  0.00    +0.000 NA
ATOM     17  C   UNL     1      -1.756  12.668  20.600  0.00  0.00    +0.000 C 
ATOM     18  C   UNL     1      -1.627  11.207  20.110  0.00  0.00    +0.000 C 
ENDBRANCH   3   7
BRANCH   1  23
ATOM     19  C   UNL     1       3.820   5.553  19.159  0.00  0.00    +0.000 A 
ATOM     20  C   UNL     1       3.052   4.619  19.868  0.00  0.00    +0.000 A 
ATOM     21  C   UNL     1       1.896   5.012  20.545  0.00  0.00    +0.000 A 
ATOM     22  C   UNL     1       1.474   6.342  20.505  0.00  0.00    +0.000 A 
ATOM     23  C   UNL     1       2.198   7.305  19.802  0.00  0.00    +0.000 A 
ATOM     24  C   UNL     1       3.377   6.891  19.160  0.00  0.00    +0.000 A 
BRANCH  19  29
ATOM     25  C   UNL     1       6.060   4.152  16.420  0.00  0.00    +0.000 A 
ATOM     26  C   UNL     1       7.325   4.409  16.941  0.00  0.00    +0.000 A 
ATOM     27  C   UNL     1       7.462   5.032  18.181  0.00  0.00    +0.000 A 
ATOM     28  C   UNL     1       6.327   5.409  18.905  0.00  0.00    +0.000 A 
ATOM     29  C   UNL     1       5.038   5.161  18.411  0.00  0.00    +0.000 A 
ATOM     30  C   UNL     1       4.933   4.515  17.160  0.00  0.00    +0.000 A 
BRANCH  25  32
ATOM     31  C   UNL     1       6.477   4.323  14.087  0.00  0.00    +0.000 C 
ATOM     32  O   UNL     1       6.044   3.540  15.195  0.00  0.00    +0.000 OA
ENDBRANCH  25  32
ENDBRANCH  19  29
ENDBRANCH   1  23
TORSDOF 4
ENDMDL
MODEL 5
REMARK VINA RESULT:      -7.8      1.845      2.904
REMARK  Name = 
REMARK  5 active torsions:
REMARK  status: ('A' for Active; 'I' for Inactive)
REMARK    1  A    between atoms: C_1  and  O_2
REMARK    2  A    between atoms: O_2  and  C_3
REMARK    3  A    between atoms: C_7  and  C_8
REMARK    4  A    between atoms: C_12  and  N_13
REMARK    5  A    between atoms: C_15  and  N_16
REMARK                            x       y       z     vdW  Elec       q    Type
REMARK                         _______ _______ _______ _____ _____    ______ ____
ROOT
ATOM      1  N   UNL     1       1.486   9.071  20.010  0.00  0.00    +0.000 N 
ATOM      2  C   UNL     1       1.496   9.835  21.236  0.00  0.00    +0.000 C 
ATOM      3  C   UNL     1       0.616  11.071  20.956  0.00  0.00    +0.000 C 
ATOM      4  C   UNL     1       0.936  11.288  19.466  0.00  0.00    +0.000 C 
ATOM      5  C   UNL     1       1.218   9.906  18.923  0.00  0.00    +0.000 C 
ATOM      6  O   UNL     1       1.280   9.662  17.727  0.00  0.00    +0.000 OA
ENDROOT
BRANCH   3   7
ATOM      7  N   UNL     1      -0.811  10.818  21.272  0.00  0.00    +0.000 NA
ATOM      8  C   UNL     1      -1.151  11.061  22.705  0.00  0.00    +0.000 C 
ATOM      9  C   UNL     1      -1.311  12.541  23.139  0.00  0.00    +0.000 C 
ATOM     10  N   UNL     1      -2.199  13.234  22.216  0.00  0.00    +0.000 N 
ATOM     11  C   UNL     1      -2.877  14.348  22.656  0.00  0.00    +0.000 A 
ATOM     12  N   UNL     1      -3.262  15.275  21.764  0.00  0.00    +0.000 NA
ATOM     13  C   UNL     1      -4.021  16.294  22.207  0.00  0.00    +0.000 A 
ATOM     14  C   UNL     1      -4.431  16.424  23.507  0.00  0.00    +0.000 A 
ATOM     15  C   UNL     1      -3.986  15.443  24.352  0.00  0.00    +0.000 A 
ATOM     16  N   UNL     1      -3.205  14.420  23.958  0.00  0.00    +0.000 NA
ATOM     17  C   UNL     1      -1.896  13.096  20.797  0.00  0.00    +0.000 C 
ATOM     18  C   UNL     1      -1.780  11.593  20.455  0.00  0.00    +0.000 C 
ENDBRANCH   3   7
BRANCH   1  23
ATOM     19  C   UNL     1       3.174   5.885  18.947  0.00  0.00    +0.000 A 
ATOM     20  C   UNL     1       2.502   4.965  19.763  0.00  0.00    +0.000 A 
ATOM     21  C   UNL     1       1.526   5.390  20.665  0.00  0.00    +0.000 A 
ATOM     22  C   UNL     1       1.186   6.743  20.751  0.00  0.00    +0.000 A 
ATOM     23  C   UNL     1       1.819   7.693  19.950  0.00  0.00    +0.000 A 
ATOM     24  C   UNL     1       2.823   7.243  19.077  0.00  0.00    +0.000 A 
BRANCH  19  29
ATOM     25  C   UNL     1       6.329   5.876  16.818  0.00  0.00    +0.000 A 
ATOM     26  C   UNL     1       6.181   4.685  16.113  0.00  0.00    +0.000 A 
ATOM     27  C   UNL     1       5.061   3.881  16.318  0.00  0.00    +0.000 A 
ATOM     28  C   UNL     1       4.082   4.263  17.239  0.00  0.00    +0.000 A 
ATOM     29  C   UNL     1       4.197   5.459  17.963  0.00  0.00    +0.000 A 
ATOM     30  C   UNL     1       5.336   6.259  17.722  0.00  0.00    +0.000 A 
BRANCH  25  32
ATOM     31  C   UNL     1       7.782   7.656  17.426  0.00  0.00    +0.000 C 
ATOM     32  O   UNL     1       7.468   6.584  16.542  0.00  0.00    +0.000 OA
ENDBRANCH  25  32
ENDBRANCH  19  29
ENDBRANCH   1  23
TORSDOF 4
ENDMDL
MODEL 6
REMARK VINA RESULT:      -7.8      1.189      1.236
REMARK  Name = 
REMARK  5 active torsions:
REMARK  status: ('A' for Active; 'I' for Inactive)
REMARK    1  A    between atoms: C_1  and  O_2
REMARK    2  A    between atoms: O_2  and  C_3
REMARK    3  A    between atoms: C_7  and  C_8
REMARK    4  A    between atoms: C_12  and  N_13
REMARK    5  A    between atoms: C_15  and  N_16
REMARK                            x       y       z     vdW  Elec       q    Type
REMARK                         _______ _______ _______ _____ _____    ______ ____
ROOT
ATOM      1  N   UNL     1       0.095   9.991  20.985  0.00  0.00    +0.000 N 
ATOM      2  C   UNL     1      -1.205  10.559  20.712  0.00  0.00    +0.000 C 
ATOM      3  C   UNL     1      -1.506  11.489  21.906  0.00  0.00    +0.000 C 
ATOM      4  C   UNL     1      -0.813  10.702  23.032  0.00  0.00    +0.000 C 
ATOM      5  C   UNL     1       0.345   9.999  22.360  0.00  0.00    +0.000 C 
ATOM      6  O   UNL     1       1.252   9.470  22.984  0.00  0.00    +0.000 OA
ENDROOT
BRANCH   3   7
ATOM      7  N   UNL     1      -0.996  12.864  21.680  0.00  0.00    +0.000 NA
ATOM      8  C   UNL     1      -1.899  13.697  20.831  0.00  0.00    +0.000 C 
ATOM      9  C   UNL     1      -3.163  14.273  21.520  0.00  0.00    +0.000 C 
ATOM     10  N   UNL     1      -2.793  14.923  22.770  0.00  0.00    +0.000 N 
ATOM     11  C   UNL     1      -3.609  15.909  23.274  0.00  0.00    +0.000 A 
ATOM     12  N   UNL     1      -3.608  16.149  24.595  0.00  0.00    +0.000 NA
ATOM     13  C   UNL     1      -4.329  17.192  25.044  0.00  0.00    +0.000 A 
ATOM     14  C   UNL     1      -5.046  18.025  24.226  0.00  0.00    +0.000 A 
ATOM     15  C   UNL     1      -5.002  17.704  22.896  0.00  0.00    +0.000 A 
ATOM     16  N   UNL     1      -4.316  16.655  22.407  0.00  0.00    +0.000 NA
ATOM     17  C   UNL     1      -1.961  14.148  23.683  0.00  0.00    +0.000 C 
ATOM     18  C   UNL     1      -0.718  13.639  22.916  0.00  0.00    +0.000 C 
ENDBRANCH   3   7
BRANCH   1  23
ATOM     19  C   UNL     1       2.253   7.491  19.190  0.00  0.00    +0.000 A 
ATOM     20  C   UNL     1       2.586   8.229  18.046  0.00  0.00    +0.000 A 
ATOM     21  C   UNL     1       2.088   9.520  17.858  0.00  0.00    +0.000 A 
ATOM     22  C   UNL     1       1.267  10.106  18.824  0.00  0.00    +0.000 A 
ATOM     23  C   UNL     1       0.919   9.416  19.985  0.00  0.00    +0.000 A 
ATOM     24  C   UNL     1       1.403   8.105  20.132  0.00  0.00    +0.000 A 
BRANCH  19  29
ATOM     25  C   UNL     1       4.616   4.509  19.203  0.00  0.00    +0.000 A 
ATOM     26  C   UNL     1       3.851   3.555  19.868  0.00  0.00    +0.000 A 
ATOM     27  C   UNL     1       2.567   3.868  20.312  0.00  0.00    +0.000 A 
ATOM     28  C   UNL     1       2.043   5.146  20.098  0.00  0.00    +0.000 A 
ATOM     29  C   UNL     1       2.785   6.129  19.427  0.00  0.00    +0.000 A 
ATOM     30  C   UNL     1       4.076   5.776  18.977  0.00  0.00    +0.000 A 
BRANCH  25  32
ATOM     31  C   UNL     1       6.537   4.910  17.862  0.00  0.00    +0.000 C 
ATOM     32  O   UNL     1       5.863   4.095  18.816  0.00  0.00    +0.000 OA
ENDBRANCH  25  32
ENDBRANCH  19  29
ENDBRANCH   1  23
TORSDOF 4
ENDMDL
MODEL 7
REMARK VINA RESULT:      -7.8      3.708      6.019
REMARK  Name = 
REMARK  5 active torsions:
REMARK  status: ('A' for Active; 'I' for Inactive)
REMARK    1  A    between atoms: C_1  and  O_2
REMARK    2  A    between atoms: O_2  and  C_3
REMARK    3  A    between atoms: C_7  and  C_8
REMARK    4  A    between atoms: C_12  and  N_13
REMARK    5  A    between atoms: C_15  and  N_16
REMARK                            x       y       z     vdW  Elec       q    Type
REMARK                         _______ _______ _______ _____ _____    ______ ____
ROOT
ATOM      1  N   UNL     1      -5.542  11.567  18.885  0.00  0.00    +0.000 N 
ATOM      2  C   UNL     1      -5.695  12.892  19.438  0.00  0.00    +0.000 C 
ATOM      3  C   UNL     1      -6.626  12.724  20.657  0.00  0.00    +0.000 C 
ATOM      4  C   UNL     1      -7.525  11.585  20.145  0.00  0.00    +0.000 C 
ATOM      5  C   UNL     1      -6.639  10.772  19.228  0.00  0.00    +0.000 C 
ATOM      6  O   UNL     1      -6.944   9.660  18.824  0.00  0.00    +0.000 OA
ENDROOT
BRANCH   3   7
ATOM      7  N   UNL     1      -5.866  12.429  21.898  0.00  0.00    +0.000 NA
ATOM      8  C   UNL     1      -4.453  12.908  21.853  0.00  0.00    +0.000 C 
ATOM      9  C   UNL     1      -4.228  14.427  22.070  0.00  0.00    +0.000 C 
ATOM     10  N   UNL     1      -4.944  14.869  23.258  0.00  0.00    +0.000 N 
ATOM     11  C   UNL     1      -4.504  15.992  23.921  0.00  0.00    +0.000 A 
ATOM     12  N   UNL     1      -5.375  16.706  24.651  0.00  0.00    +0.000 NA
ATOM     13  C   UNL     1      -4.893  17.730  25.378  0.00  0.00    +0.000 A 
ATOM     14  C   UNL     1      -3.567  18.069  25.423  0.00  0.00    +0.000 A 
ATOM     15  C   UNL     1      -2.749  17.298  24.642  0.00  0.00    +0.000 A 
ATOM     16  N   UNL     1      -3.191  16.281  23.880  0.00  0.00    +0.000 NA
ATOM     17  C   UNL     1      -6.350  14.493  23.347  0.00  0.00    +0.000 C 
ATOM     18  C   UNL     1      -6.471  12.965  23.144  0.00  0.00    +0.000 C 
ENDBRANCH   3   7
BRANCH   1  23
ATOM     19  C   UNL     1      -2.141  10.427  17.763  0.00  0.00    +0.000 A 
ATOM     20  C   UNL     1      -2.307  10.486  16.372  0.00  0.00    +0.000 A 
ATOM     21  C   UNL     1      -3.527  10.872  15.814  0.00  0.00    +0.000 A 
ATOM     22  C   UNL     1      -4.597  11.230  16.638  0.00  0.00    +0.000 A 
ATOM     23  C   UNL     1      -4.475  11.199  18.027  0.00  0.00    +0.000 A 
ATOM     24  C   UNL     1      -3.249  10.773  18.562  0.00  0.00    +0.000 A 
BRANCH  19  29
ATOM     25  C   UNL     1       0.492   9.667  20.403  0.00  0.00    +0.000 A 
ATOM     26  C   UNL     1       1.580   9.310  19.611  0.00  0.00    +0.000 A 
ATOM     27  C   UNL     1       1.471   9.317  18.221  0.00  0.00    +0.000 A 
ATOM     28  C   UNL     1       0.264   9.675  17.615  0.00  0.00    +0.000 A 
ATOM     29  C   UNL     1      -0.850  10.045  18.383  0.00  0.00    +0.000 A 
ATOM     30  C   UNL     1      -0.703  10.043  19.787  0.00  0.00    +0.000 A 
BRANCH  25  32
ATOM     31  C   UNL     1      -0.356  10.069  22.587  0.00  0.00    +0.000 C 
ATOM     32  O   UNL     1       0.709   9.621  21.754  0.00  0.00    +0.000 OA
ENDBRANCH  25  32
ENDBRANCH  19  29
ENDBRANCH   1  23
TORSDOF 4
ENDMDL
MODEL 8
REMARK VINA RESULT:      -7.8      3.153      3.920
REMARK  Name = 
REMARK  5 active torsions:
REMARK  status: ('A' for Active; 'I' for Inactive)
REMARK    1  A    between atoms: C_1  and  O_2
REMARK    2  A    between atoms: O_2  and  C_3
REMARK    3  A    between atoms: C_7  and  C_8
REMARK    4  A    between atoms: C_12  and  N_13
REMARK    5  A    between atoms: C_15  and  N_16
REMARK                            x       y       z     vdW  Elec       q    Type
REMARK                         _______ _______ _______ _____ _____    ______ ____
ROOT
ATOM      1  N   UNL     1       0.009  10.521  20.930  0.00  0.00    +0.000 N 
ATOM      2  C   UNL     1      -0.770  11.679  20.558  0.00  0.00    +0.000 C 
ATOM      3  C   UNL     1      -0.999  12.458  21.870  0.00  0.00    +0.000 C 
ATOM      4  C   UNL     1      -1.092  11.283  22.860  0.00  0.00    +0.000 C 
ATOM      5  C   UNL     1      -0.199  10.211  22.277  0.00  0.00    +0.000 C 
ATOM      6  O   UNL     1       0.155   9.226  22.907  0.00  0.00    +0.000 OA
ENDROOT
BRANCH   3   7
ATOM      7  N   UNL     1       0.090  13.431  22.135  0.00  0.00    +0.000 NA
ATOM      8  C   UNL     1       1.130  13.458  21.063  0.00  0.00    +0.000 C 
ATOM      9  C   UNL     1       0.763  14.214  19.760  0.00  0.00    +0.000 C 
ATOM     10  N   UNL     1       0.240  15.534  20.083  0.00  0.00    +0.000 N 
ATOM     11  C   UNL     1       0.333  16.534  19.143  0.00  0.00    +0.000 A 
ATOM     12  N   UNL     1      -0.549  17.546  19.174  0.00  0.00    +0.000 NA
ATOM     13  C   UNL     1      -0.364  18.566  18.316  0.00  0.00    +0.000 A 
ATOM     14  C   UNL     1       0.678  18.630  17.429  0.00  0.00    +0.000 A 
ATOM     15  C   UNL     1       1.523  17.554  17.455  0.00  0.00    +0.000 A 
ATOM     16  N   UNL     1       1.362  16.501  18.278  0.00  0.00    +0.000 NA
ATOM     17  C   UNL     1      -0.824  15.585  21.078  0.00  0.00    +0.000 C 
ATOM     18  C   UNL     1      -0.359  14.830  22.345  0.00  0.00    +0.000 C 
ENDBRANCH   3   7
BRANCH   1  23
ATOM     19  C   UNL     1       1.943   7.662  19.440  0.00  0.00    +0.000 A 
ATOM     20  C   UNL     1       2.319   8.231  18.215  0.00  0.00    +0.000 A 
ATOM     21  C   UNL     1       1.921   9.525  17.876  0.00  0.00    +0.000 A 
ATOM     22  C   UNL     1       1.160  10.285  18.767  0.00  0.00    +0.000 A 
ATOM     23  C   UNL     1       0.774   9.767  20.003  0.00  0.00    +0.000 A 
ATOM     24  C   UNL     1       1.155   8.449  20.304  0.00  0.00    +0.000 A 
BRANCH  19  29
ATOM     25  C   UNL     1       4.041   4.503  19.754  0.00  0.00    +0.000 A 
ATOM     26  C   UNL     1       3.236   3.720  20.577  0.00  0.00    +0.000 A 
ATOM     27  C   UNL     1       2.010   4.205  21.031  0.00  0.00    +0.000 A 
ATOM     28  C   UNL     1       1.586   5.486  20.668  0.00  0.00    +0.000 A 
ATOM     29  C   UNL     1       2.370   6.300  19.836  0.00  0.00    +0.000 A 
ATOM     30  C   UNL     1       3.599   5.774  19.382  0.00  0.00    +0.000 A 
BRANCH  25  32
ATOM     31  C   UNL     1       5.944   4.585  18.332  0.00  0.00    +0.000 C 
ATOM     32  O   UNL     1       5.224   3.929  19.372  0.00  0.00    +0.000 OA
ENDBRANCH  25  32
ENDBRANCH  19  29
ENDBRANCH   1  23
TORSDOF 4
ENDMDL
MODEL 9
REMARK VINA RESULT:      -7.6      4.404      5.975
REMARK  Name = 
REMARK  5 active torsions:
REMARK  status: ('A' for Active; 'I' for Inactive)
REMARK    1  A    between atoms: C_1  and  O_2
REMARK    2  A    between atoms: O_2  and  C_3
REMARK    3  A    between atoms: C_7  and  C_8
REMARK    4  A    between atoms: C_12  and  N_13
REMARK    5  A    between atoms: C_15  and  N_16
REMARK                            x       y       z     vdW  Elec       q    Type
REMARK                         _______ _______ _______ _____ _____    ______ ____
ROOT
ATOM      1  N   UNL     1       0.729  10.831  18.974  0.00  0.00    +0.000 N 
ATOM      2  C   UNL     1       1.677  11.873  18.653  0.00  0.00    +0.000 C 
ATOM      3  C   UNL     1       0.854  13.178  18.608  0.00  0.00    +0.000 C 
ATOM      4  C   UNL     1      -0.476  12.630  18.062  0.00  0.00    +0.000 C 
ATOM      5  C   UNL     1      -0.557  11.213  18.583  0.00  0.00    +0.000 C 
ATOM      6  O   UNL     1      -1.582  10.549  18.545  0.00  0.00    +0.000 OA
ENDROOT
BRANCH   3   7
ATOM      7  N   UNL     1       0.777  13.830  19.939  0.00  0.00    +0.000 NA
ATOM      8  C   UNL     1       1.891  13.439  20.853  0.00  0.00    +0.000 C 
ATOM      9  C   UNL     1       3.266  14.109  20.598  0.00  0.00    +0.000 C 
ATOM     10  N   UNL     1       3.100  15.552  20.483  0.00  0.00    +0.000 N 
ATOM     11  C   UNL     1       4.171  16.368  20.764  0.00  0.00    +0.000 A 
ATOM     12  N   UNL     1       4.235  17.584  20.197  0.00  0.00    +0.000 NA
ATOM     13  C   UNL     1       5.232  18.402  20.579  0.00  0.00    +0.000 A 
ATOM     14  C   UNL     1       6.169  18.068  21.521  0.00  0.00    +0.000 A 
ATOM     15  C   UNL     1       6.037  16.808  22.041  0.00  0.00    +0.000 A 
ATOM     16  N   UNL     1       5.072  15.947  21.670  0.00  0.00    +0.000 NA
ATOM     17  C   UNL     1       2.071  16.015  19.560  0.00  0.00    +0.000 C 
ATOM     18  C   UNL     1       0.737  15.314  19.907  0.00  0.00    +0.000 C 
ENDBRANCH   3   7
BRANCH   1  23
ATOM     19  C   UNL     1       2.227   7.390  19.185  0.00  0.00    +0.000 A 
ATOM     20  C   UNL     1       1.861   7.042  20.492  0.00  0.00    +0.000 A 
ATOM     21  C   UNL     1       1.153   7.935  21.298  0.00  0.00    +0.000 A 
ATOM     22  C   UNL     1       0.777   9.186  20.803  0.00  0.00    +0.000 A 
ATOM     23  C   UNL     1       1.107   9.571  19.504  0.00  0.00    +0.000 A 
ATOM     24  C   UNL     1       1.851   8.669  18.727  0.00  0.00    +0.000 A 
BRANCH  19  29
ATOM     25  C   UNL     1       4.754   6.049  16.675  0.00  0.00    +0.000 A 
ATOM     26  C   UNL     1       4.389   4.707  16.609  0.00  0.00    +0.000 A 
ATOM     27  C   UNL     1       3.323   4.229  17.370  0.00  0.00    +0.000 A 
ATOM     28  C   UNL     1       2.619   5.095  18.211  0.00  0.00    +0.000 A 
ATOM     29  C   UNL     1       2.957   6.454  18.299  0.00  0.00    +0.000 A 
ATOM     30  C   UNL     1       4.031   6.910  17.504  0.00  0.00    +0.000 A 
BRANCH  25  32
ATOM     31  C   UNL     1       6.494   5.353  15.214  0.00  0.00    +0.000 C 
ATOM     32  O   UNL     1       5.816   6.408  15.889  0.00  0.00    +0.000 OA
ENDBRANCH  25  32
ENDBRANCH  19  29
ENDBRANCH   1  23
TORSDOF 4
ENDMDL
