MODEL 1
REMARK VINA RESULT:      -7.4      0.000      0.000
REMARK  Name = 
REMARK  4 active torsions:
REMARK  status: ('A' for Active; 'I' for Inactive)
REMARK    1  A    between atoms: C_1  and  C_2
REMARK    2  A    between atoms: C_2  and  N_3
REMARK    3  A    between atoms: N_3  and  C_13
REMARK    4  A    between atoms: C_4  and  C_6
REMARK                            x       y       z     vdW  Elec       q    Type
REMARK                         _______ _______ _______ _____ _____    ______ ____
ROOT
ATOM      1  N   UNL     1       3.906   4.923  18.683  0.00  0.00    +0.000 N 
ATOM      2  C   UNL     1       3.012   5.530  19.618  0.00  0.00    +0.000 C 
ATOM      3  O   UNL     1       2.773   5.011  20.707  0.00  0.00    +0.000 OA
ENDROOT
BRANCH   2   4
ATOM      4  C   UNL     1       2.377   6.867  19.361  0.00  0.00    +0.000 A 
ATOM      5  C   UNL     1       2.313   7.460  18.097  0.00  0.00    +0.000 A 
ATOM      6  C   UNL     1       1.833   8.761  17.926  0.00  0.00    +0.000 A 
ATOM      7  C   UNL     1       1.301   9.449  19.009  0.00  0.00    +0.000 A 
ATOM      8  C   UNL     1       1.234   8.820  20.249  0.00  0.00    +0.000 A 
ATOM      9 BR   UNL     1       0.388   9.709  21.688  0.00  0.00    +0.000 Br
ATOM     10  C   UNL     1       1.776   7.542  20.436  0.00  0.00    +0.000 A 
ENDBRANCH   2   4
BRANCH   1  11
ATOM     11  C   UNL     1       4.502   5.651  17.520  0.00  0.00    +0.000 C 
ATOM     12  C   UNL     1       4.552   4.788  16.241  0.00  0.00    +0.000 C 
ATOM     13  C   UNL     1       5.813   3.947  16.302  0.00  0.00    +0.000 C 
ATOM     14  S   UNL     1       7.050   5.058  16.934  0.00  0.00    +0.000 S 
ATOM     15  O   UNL     1       7.676   5.723  15.804  0.00  0.00    +0.000 OA
ATOM     16  O   UNL     1       7.827   4.378  17.941  0.00  0.00    +0.000 OA
ATOM     17  C   UNL     1       5.924   6.218  17.706  0.00  0.00    +0.000 C 
ENDBRANCH   1  11
BRANCH   1  19
ATOM     18  C   UNL     1       3.868   2.370  18.975  0.00  0.00    +0.000 C 
ATOM     19  C   UNL     1       4.591   3.698  19.146  0.00  0.00    +0.000 C 
ENDBRANCH   1  19
TORSDOF 3
ENDMDL
MODEL 2
REMARK VINA RESULT:      -7.2      2.560      3.819
REMARK  Name = 
REMARK  4 active torsions:
REMARK  status: ('A' for Active; 'I' for Inactive)
REMARK    1  A    between atoms: C_1  and  C_2
REMARK    2  A    between atoms: C_2  and  N_3
REMARK    3  A    between atoms: N_3  and  C_13
REMARK    4  A    between atoms: C_4  and  C_6
REMARK                            x       y       z     vdW  Elec       q    Type
REMARK                         _______ _______ _______ _____ _____    ______ ____
ROOT
ATOM      1  N   UNL     1       3.120   5.651  18.194  0.00  0.00    +0.000 N 
ATOM      2  C   UNL     1       3.331   7.062  18.122  0.00  0.00    +0.000 C 
ATOM      3  O   UNL     1       4.359   7.533  17.640  0.00  0.00    +0.000 OA
ENDROOT
BRANCH   2   4
ATOM      4  C   UNL     1       2.283   8.048  18.555  0.00  0.00    +0.000 A 
ATOM      5  C   UNL     1       1.583   8.869  17.667  0.00  0.00    +0.000 A 
ATOM      6  C   UNL     1       0.714   9.863  18.124  0.00  0.00    +0.000 A 
ATOM      7  C   UNL     1       0.448   9.975  19.483  0.00  0.00    +0.000 A 
ATOM      8  C   UNL     1       1.035   9.077  20.369  0.00  0.00    +0.000 A 
ATOM      9 BR   UNL     1       0.564   9.149  22.200  0.00  0.00    +0.000 Br
ATOM     10  C   UNL     1       1.956   8.124  19.919  0.00  0.00    +0.000 A 
ENDBRANCH   2   4
BRANCH   1  11
ATOM     11  C   UNL     1       1.781   5.028  18.436  0.00  0.00    +0.000 C 
ATOM     12  C   UNL     1       1.576   4.614  19.910  0.00  0.00    +0.000 C 
ATOM     13  C   UNL     1       2.196   3.242  20.092  0.00  0.00    +0.000 C 
ATOM     14  S   UNL     1       1.737   2.354  18.621  0.00  0.00    +0.000 S 
ATOM     15  O   UNL     1       0.467   1.696  18.872  0.00  0.00    +0.000 OA
ATOM     16  O   UNL     1       2.883   1.631  18.128  0.00  0.00    +0.000 OA
ATOM     17  C   UNL     1       1.426   3.788  17.592  0.00  0.00    +0.000 C 
ENDBRANCH   1  11
BRANCH   1  19
ATOM     18  C   UNL     1       5.284   4.289  18.458  0.00  0.00    +0.000 C 
ATOM     19  C   UNL     1       4.162   4.809  17.570  0.00  0.00    +0.000 C 
ENDBRANCH   1  19
TORSDOF 3
ENDMDL
MODEL 3
REMARK VINA RESULT:      -7.1      1.040      1.102
REMARK  Name = 
REMARK  4 active torsions:
REMARK  status: ('A' for Active; 'I' for Inactive)
REMARK    1  A    between atoms: C_1  and  C_2
REMARK    2  A    between atoms: C_2  and  N_3
REMARK    3  A    between atoms: N_3  and  C_13
REMARK    4  A    between atoms: C_4  and  C_6
REMARK                            x       y       z     vdW  Elec       q    Type
REMARK                         _______ _______ _______ _____ _____    ______ ____
ROOT
ATOM      1  N   UNL     1       3.848   5.150  18.494  0.00  0.00    +0.000 N 
ATOM      2  C   UNL     1       2.583   5.478  19.071  0.00  0.00    +0.000 C 
ATOM      3  O   UNL     1       1.869   4.618  19.583  0.00  0.00    +0.000 OA
ENDROOT
BRANCH   2   4
ATOM      4  C   UNL     1       2.089   6.894  19.156  0.00  0.00    +0.000 A 
ATOM      5  C   UNL     1       1.975   7.739  18.049  0.00  0.00    +0.000 A 
ATOM      6  C   UNL     1       1.638   9.088  18.192  0.00  0.00    +0.000 A 
ATOM      7  C   UNL     1       1.297   9.584  19.444  0.00  0.00    +0.000 A 
ATOM      8  C   UNL     1       1.275   8.722  20.537  0.00  0.00    +0.000 A 
ATOM      9 BR   UNL     1       0.682   9.372  22.211  0.00  0.00    +0.000 Br
ATOM     10  C   UNL     1       1.678   7.387  20.406  0.00  0.00    +0.000 A 
ENDBRANCH   2   4
BRANCH   1  11
ATOM     11  C   UNL     1       4.899   6.167  18.179  0.00  0.00    +0.000 C 
ATOM     12  C   UNL     1       4.650   6.881  16.832  0.00  0.00    +0.000 C 
ATOM     13  C   UNL     1       5.230   6.009  15.736  0.00  0.00    +0.000 C 
ATOM     14  S   UNL     1       6.770   5.425  16.408  0.00  0.00    +0.000 S 
ATOM     15  O   UNL     1       7.807   6.377  16.051  0.00  0.00    +0.000 OA
ATOM     16  O   UNL     1       6.904   4.016  16.128  0.00  0.00    +0.000 OA
ATOM     17  C   UNL     1       6.358   5.671  18.134  0.00  0.00    +0.000 C 
ENDBRANCH   1  11
BRANCH   1  19
ATOM     18  C   UNL     1       3.846   2.752  17.569  0.00  0.00    +0.000 C 
ATOM     19  C   UNL     1       4.280   3.745  18.639  0.00  0.00    +0.000 C 
ENDBRANCH   1  19
TORSDOF 3
ENDMDL
MODEL 4
REMARK VINA RESULT:      -6.8      2.645      3.950
REMARK  Name = 
REMARK  4 active torsions:
REMARK  status: ('A' for Active; 'I' for Inactive)
REMARK    1  A    between atoms: C_1  and  C_2
REMARK    2  A    between atoms: C_2  and  N_3
REMARK    3  A    between atoms: N_3  and  C_13
REMARK    4  A    between atoms: C_4  and  C_6
REMARK                            x       y       z     vdW  Elec       q    Type
REMARK                         _______ _______ _______ _____ _____    ______ ____
ROOT
ATOM      1  N   UNL     1       2.987   6.036  18.301  0.00  0.00    +0.000 N 
ATOM      2  C   UNL     1       2.911   7.462  18.319  0.00  0.00    +0.000 C 
ATOM      3  O   UNL     1       3.619   8.151  17.586  0.00  0.00    +0.000 OA
ENDROOT
BRANCH   2   4
ATOM      4  C   UNL     1       1.914   8.198  19.169  0.00  0.00    +0.000 A 
ATOM      5  C   UNL     1       1.720   7.937  20.529  0.00  0.00    +0.000 A 
ATOM      6  C   UNL     1       0.692   8.551  21.249  0.00  0.00    +0.000 A 
ATOM      7  C   UNL     1      -0.089   9.525  20.641  0.00  0.00    +0.000 A 
ATOM      8  C   UNL     1       0.179   9.893  19.326  0.00  0.00    +0.000 A 
ATOM      9 BR   UNL     1      -0.799  11.312  18.548  0.00  0.00    +0.000 Br
ATOM     10  C   UNL     1       1.165   9.231  18.583  0.00  0.00    +0.000 A 
ENDBRANCH   2   4
BRANCH   1  11
ATOM     11  C   UNL     1       1.938   5.147  18.891  0.00  0.00    +0.000 C 
ATOM     12  C   UNL     1       2.328   4.614  20.287  0.00  0.00    +0.000 C 
ATOM     13  C   UNL     1       3.191   3.383  20.084  0.00  0.00    +0.000 C 
ATOM     14  S   UNL     1       2.405   2.511  18.748  0.00  0.00    +0.000 S 
ATOM     15  O   UNL     1       1.428   1.600  19.319  0.00  0.00    +0.000 OA
ATOM     16  O   UNL     1       3.413   2.060  17.820  0.00  0.00    +0.000 OA
ATOM     17  C   UNL     1       1.524   3.913  18.064  0.00  0.00    +0.000 C 
ENDBRANCH   1  11
BRANCH   1  19
ATOM     18  C   UNL     1       5.319   5.134  17.705  0.00  0.00    +0.000 C 
ATOM     19  C   UNL     1       3.889   5.449  17.289  0.00  0.00    +0.000 C 
ENDBRANCH   1  19
TORSDOF 3
ENDMDL
MODEL 5
REMARK VINA RESULT:      -6.7      1.637      2.170
REMARK  Name = 
REMARK  4 active torsions:
REMARK  status: ('A' for Active; 'I' for Inactive)
REMARK    1  A    between atoms: C_1  and  C_2
REMARK    2  A    between atoms: C_2  and  N_3
REMARK    3  A    between atoms: N_3  and  C_13
REMARK    4  A    between atoms: C_4  and  C_6
REMARK                            x       y       z     vdW  Elec       q    Type
REMARK                         _______ _______ _______ _____ _____    ______ ____
ROOT
ATOM      1  N   UNL     1       3.415   4.453  17.709  0.00  0.00    +0.000 N 
ATOM      2  C   UNL     1       2.198   4.766  18.387  0.00  0.00    +0.000 C 
ATOM      3  O   UNL     1       1.279   3.952  18.466  0.00  0.00    +0.000 OA
ENDROOT
BRANCH   2   4
ATOM      4  C   UNL     1       1.999   6.070  19.108  0.00  0.00    +0.000 A 
ATOM      5  C   UNL     1       1.853   6.170  20.494  0.00  0.00    +0.000 A 
ATOM      6  C   UNL     1       1.537   7.385  21.108  0.00  0.00    +0.000 A 
ATOM      7  C   UNL     1       1.474   8.546  20.348  0.00  0.00    +0.000 A 
ATOM      8  C   UNL     1       1.749   8.484  18.984  0.00  0.00    +0.000 A 
ATOM      9 BR   UNL     1       1.794  10.087  17.981  0.00  0.00    +0.000 Br
ATOM     10  C   UNL     1       2.000   7.257  18.358  0.00  0.00    +0.000 A 
ENDBRANCH   2   4
BRANCH   1  11
ATOM     11  C   UNL     1       4.676   5.241  17.872  0.00  0.00    +0.000 C 
ATOM     12  C   UNL     1       4.685   6.530  17.021  0.00  0.00    +0.000 C 
ATOM     13  C   UNL     1       5.152   6.158  15.627  0.00  0.00    +0.000 C 
ATOM     14  S   UNL     1       6.480   5.007  15.902  0.00  0.00    +0.000 S 
ATOM     15  O   UNL     1       7.717   5.761  15.999  0.00  0.00    +0.000 OA
ATOM     16  O   UNL     1       6.337   3.895  14.994  0.00  0.00    +0.000 OA
ATOM     17  C   UNL     1       5.999   4.514  17.556  0.00  0.00    +0.000 C 
ENDBRANCH   1  11
BRANCH   1  19
ATOM     18  C   UNL     1       3.548   1.937  18.215  0.00  0.00    +0.000 C 
ATOM     19  C   UNL     1       3.534   3.071  17.200  0.00  0.00    +0.000 C 
ENDBRANCH   1  19
TORSDOF 3
ENDMDL
MODEL 6
REMARK VINA RESULT:      -6.7      2.578      3.721
REMARK  Name = 
REMARK  4 active torsions:
REMARK  status: ('A' for Active; 'I' for Inactive)
REMARK    1  A    between atoms: C_1  and  C_2
REMARK    2  A    between atoms: C_2  and  N_3
REMARK    3  A    between atoms: N_3  and  C_13
REMARK    4  A    between atoms: C_4  and  C_6
REMARK                            x       y       z     vdW  Elec       q    Type
REMARK                         _______ _______ _______ _____ _____    ______ ____
ROOT
ATOM      1  N   UNL     1       4.640   4.020  17.083  0.00  0.00    +0.000 N 
ATOM      2  C   UNL     1       3.356   3.432  17.298  0.00  0.00    +0.000 C 
ATOM      3  O   UNL     1       2.835   2.704  16.455  0.00  0.00    +0.000 OA
ENDROOT
BRANCH   2   4
ATOM      4  C   UNL     1       2.605   3.603  18.588  0.00  0.00    +0.000 A 
ATOM      5  C   UNL     1       2.191   2.533  19.386  0.00  0.00    +0.000 A 
ATOM      6  C   UNL     1       1.381   2.731  20.508  0.00  0.00    +0.000 A 
ATOM      7  C   UNL     1       1.068   4.022  20.913  0.00  0.00    +0.000 A 
ATOM      8  C   UNL     1       1.585   5.104  20.205  0.00  0.00    +0.000 A 
ATOM      9 BR   UNL     1       1.266   6.856  20.839  0.00  0.00    +0.000 Br
ATOM     10  C   UNL     1       2.340   4.905  19.043  0.00  0.00    +0.000 A 
ENDBRANCH   2   4
BRANCH   1  11
ATOM     11  C   UNL     1       5.468   4.613  18.179  0.00  0.00    +0.000 C 
ATOM     12  C   UNL     1       5.026   6.046  18.549  0.00  0.00    +0.000 C 
ATOM     13  C   UNL     1       5.703   6.999  17.584  0.00  0.00    +0.000 C 
ATOM     14  S   UNL     1       7.355   6.360  17.422  0.00  0.00    +0.000 S 
ATOM     15  O   UNL     1       8.180   6.980  18.444  0.00  0.00    +0.000 OA
ATOM     16  O   UNL     1       7.733   6.374  16.030  0.00  0.00    +0.000 OA
ATOM     17  C   UNL     1       6.990   4.685  17.942  0.00  0.00    +0.000 C 
ENDBRANCH   1  11
BRANCH   1  19
ATOM     18  C   UNL     1       5.258   4.564  14.649  0.00  0.00    +0.000 C 
ATOM     19  C   UNL     1       5.334   3.622  15.842  0.00  0.00    +0.000 C 
ENDBRANCH   1  19
TORSDOF 3
ENDMDL
MODEL 7
REMARK VINA RESULT:      -6.6      3.007      3.885
REMARK  Name = 
REMARK  4 active torsions:
REMARK  status: ('A' for Active; 'I' for Inactive)
REMARK    1  A    between atoms: C_1  and  C_2
REMARK    2  A    between atoms: C_2  and  N_3
REMARK    3  A    between atoms: N_3  and  C_13
REMARK    4  A    between atoms: C_4  and  C_6
REMARK                            x       y       z     vdW  Elec       q    Type
REMARK                         _______ _______ _______ _____ _____    ______ ____
ROOT
ATOM      1  N   UNL     1       4.901   5.914  17.287  0.00  0.00    +0.000 N 
ATOM      2  C   UNL     1       4.018   5.976  18.407  0.00  0.00    +0.000 C 
ATOM      3  O   UNL     1       4.046   6.920  19.195  0.00  0.00    +0.000 OA
ENDROOT
BRANCH   2   4
ATOM      4  C   UNL     1       2.956   4.939  18.645  0.00  0.00    +0.000 A 
ATOM      5  C   UNL     1       2.060   4.514  17.660  0.00  0.00    +0.000 A 
ATOM      6  C   UNL     1       1.006   3.647  17.959  0.00  0.00    +0.000 A 
ATOM      7  C   UNL     1       0.901   3.102  19.233  0.00  0.00    +0.000 A 
ATOM      8  C   UNL     1       1.865   3.412  20.188  0.00  0.00    +0.000 A 
ATOM      9 BR   UNL     1       1.793   2.563  21.877  0.00  0.00    +0.000 Br
ATOM     10  C   UNL     1       2.882   4.332  19.909  0.00  0.00    +0.000 A 
ENDBRANCH   2   4
BRANCH   1  11
ATOM     11  C   UNL     1       4.692   5.000  16.121  0.00  0.00    +0.000 C 
ATOM     12  C   UNL     1       5.316   3.604  16.341  0.00  0.00    +0.000 C 
ATOM     13  C   UNL     1       6.779   3.689  15.953  0.00  0.00    +0.000 C 
ATOM     14  S   UNL     1       6.785   4.681  14.477  0.00  0.00    +0.000 S 
ATOM     15  O   UNL     1       6.644   3.792  13.337  0.00  0.00    +0.000 OA
ATOM     16  O   UNL     1       7.853   5.646  14.560  0.00  0.00    +0.000 OA
ATOM     17  C   UNL     1       5.208   5.485  14.752  0.00  0.00    +0.000 C 
ENDBRANCH   1  11
BRANCH   1  19
ATOM     18  C   UNL     1       7.192   7.028  17.627  0.00  0.00    +0.000 C 
ATOM     19  C   UNL     1       5.772   7.090  17.084  0.00  0.00    +0.000 C 
ENDBRANCH   1  19
TORSDOF 3
ENDMDL
MODEL 8
REMARK VINA RESULT:      -6.5      1.450      1.904
REMARK  Name = 
REMARK  4 active torsions:
REMARK  status: ('A' for Active; 'I' for Inactive)
REMARK    1  A    between atoms: C_1  and  C_2
REMARK    2  A    between atoms: C_2  and  N_3
REMARK    3  A    between atoms: N_3  and  C_13
REMARK    4  A    between atoms: C_4  and  C_6
REMARK                            x       y       z     vdW  Elec       q    Type
REMARK                         _______ _______ _______ _____ _____    ______ ____
ROOT
ATOM      1  N   UNL     1       3.819   5.029  18.676  0.00  0.00    +0.000 N 
ATOM      2  C   UNL     1       2.611   5.213  19.416  0.00  0.00    +0.000 C 
ATOM      3  O   UNL     1       1.960   4.256  19.830  0.00  0.00    +0.000 OA
ENDROOT
BRANCH   2   4
ATOM      4  C   UNL     1       2.109   6.577  19.797  0.00  0.00    +0.000 A 
ATOM      5  C   UNL     1       1.634   6.895  21.073  0.00  0.00    +0.000 A 
ATOM      6  C   UNL     1       1.055   8.136  21.346  0.00  0.00    +0.000 A 
ATOM      7  C   UNL     1       1.045   9.124  20.370  0.00  0.00    +0.000 A 
ATOM      8  C   UNL     1       1.636   8.867  19.135  0.00  0.00    +0.000 A 
ATOM      9 BR   UNL     1       1.739  10.258  17.858  0.00  0.00    +0.000 Br
ATOM     10  C   UNL     1       2.157   7.602  18.838  0.00  0.00    +0.000 A 
ENDBRANCH   2   4
BRANCH   1  11
ATOM     11  C   UNL     1       4.822   6.116  18.451  0.00  0.00    +0.000 C 
ATOM     12  C   UNL     1       4.569   6.897  17.143  0.00  0.00    +0.000 C 
ATOM     13  C   UNL     1       5.222   6.124  16.013  0.00  0.00    +0.000 C 
ATOM     14  S   UNL     1       6.773   5.580  16.692  0.00  0.00    +0.000 S 
ATOM     15  O   UNL     1       7.766   6.604  16.422  0.00  0.00    +0.000 OA
ATOM     16  O   UNL     1       6.988   4.199  16.333  0.00  0.00    +0.000 OA
ATOM     17  C   UNL     1       6.306   5.699  18.418  0.00  0.00    +0.000 C 
ENDBRANCH   1  11
BRANCH   1  19
ATOM     18  C   UNL     1       3.799   2.849  17.314  0.00  0.00    +0.000 C 
ATOM     19  C   UNL     1       4.279   3.633  18.527  0.00  0.00    +0.000 C 
ENDBRANCH   1  19
TORSDOF 3
ENDMDL
MODEL 9
REMARK VINA RESULT:      -6.5      3.688      6.119
REMARK  Name = 
REMARK  4 active torsions:
REMARK  status: ('A' for Active; 'I' for Inactive)
REMARK    1  A    between atoms: C_1  and  C_2
REMARK    2  A    between atoms: C_2  and  N_3
REMARK    3  A    between atoms: N_3  and  C_13
REMARK    4  A    between atoms: C_4  and  C_6
REMARK                            x       y       z     vdW  Elec       q    Type
REMARK                         _______ _______ _______ _____ _____    ______ ____
ROOT
ATOM      1  N   UNL     1       2.806   5.560  18.022  0.00  0.00    +0.000 N 
ATOM      2  C   UNL     1       3.939   6.252  17.496  0.00  0.00    +0.000 C 
ATOM      3  O   UNL     1       4.013   7.480  17.528  0.00  0.00    +0.000 OA
ENDROOT
BRANCH   2   4
ATOM      4  C   UNL     1       5.134   5.525  16.946  0.00  0.00    +0.000 A 
ATOM      5  C   UNL     1       6.272   5.233  17.702  0.00  0.00    +0.000 A 
ATOM      6  C   UNL     1       7.412   4.674  17.116  0.00  0.00    +0.000 A 
ATOM      7  C   UNL     1       7.385   4.294  15.781  0.00  0.00    +0.000 A 
ATOM      8  C   UNL     1       6.212   4.456  15.049  0.00  0.00    +0.000 A 
ATOM      9 BR   UNL     1       6.140   3.815  13.271  0.00  0.00    +0.000 Br
ATOM     10  C   UNL     1       5.093   5.077  15.616  0.00  0.00    +0.000 A 
ENDBRANCH   2   4
BRANCH   1  11
ATOM     11  C   UNL     1       2.804   4.096  18.329  0.00  0.00    +0.000 C 
ATOM     12  C   UNL     1       1.379   3.505  18.399  0.00  0.00    +0.000 C 
ATOM     13  C   UNL     1       0.847   3.753  19.798  0.00  0.00    +0.000 C 
ATOM     14  S   UNL     1       2.234   3.419  20.860  0.00  0.00    +0.000 S 
ATOM     15  O   UNL     1       2.202   2.011  21.213  0.00  0.00    +0.000 OA
ATOM     16  O   UNL     1       2.320   4.452  21.863  0.00  0.00    +0.000 OA
ATOM     17  C   UNL     1       3.511   3.654  19.626  0.00  0.00    +0.000 C 
ENDBRANCH   1  11
BRANCH   1  19
ATOM     18  C   UNL     1       2.205   7.176  19.929  0.00  0.00    +0.000 C 
ATOM     19  C   UNL     1       1.788   6.398  18.688  0.00  0.00    +0.000 C 
ENDBRANCH   1  19
TORSDOF 3
ENDMDL
