MODEL 1
REMARK VINA RESULT:      -7.8      0.000      0.000
REMARK  Name = 
REMARK  17 active torsions:
REMARK  status: ('A' for Active; 'I' for Inactive)
REMARK    1  A    between atoms: C_1  and  N_2
REMARK    2  A    between atoms: N_2  and  C_3
REMARK    3  A    between atoms: N_2  and  C_21
REMARK    4  A    between atoms: C_3  and  C_4
REMARK    5  A    between atoms: C_4  and  C_5
REMARK    6  A    between atoms: C_5  and  C_6
REMARK    7  A    between atoms: C_6  and  C_7
REMARK    8  A    between atoms: C_7  and  C_8
REMARK    9  A    between atoms: C_8  and  N_9
REMARK   10  A    between atoms: N_9  and  C_10
REMARK   11  A    between atoms: N_9  and  C_11
REMARK   12  A    between atoms: C_16  and  C_17
REMARK   13  A    between atoms: C_18  and  C_19
REMARK   14  A    between atoms: C_18  and  C_20
REMARK   15  A    between atoms: C_26  and  C_27
REMARK   16  A    between atoms: C_28  and  C_29
REMARK   17  A    between atoms: C_28  and  C_30
REMARK                            x       y       z     vdW  Elec       q    Type
REMARK                         _______ _______ _______ _____ _____    ______ ____
ROOT
ATOM      1  C   UNL     1       7.485   6.744  18.255  0.00  0.00    +0.000 C 
ENDROOT
BRANCH   1   2
ATOM      2  C   UNL     1       6.440   5.901  17.543  0.00  0.00    +0.000 C 
BRANCH   2   3
ATOM      3  C   UNL     1       5.069   6.491  17.325  0.00  0.00    +0.000 C 
BRANCH   3   5
ATOM      4  C   UNL     1       2.959   7.064  18.188  0.00  0.00    +0.000 C 
ATOM      5  N   UNL     1       4.025   6.025  18.266  0.00  0.00    +0.000 NA
BRANCH   5   6
ATOM      6  C   UNL     1       3.444   4.656  18.082  0.00  0.00    +0.000 C 
ATOM      7  C   UNL     1       1.868   4.843  17.953  0.00  0.00    +0.000 C 
ATOM      8  C   UNL     1       1.232   3.818  18.911  0.00  0.00    +0.000 C 
ATOM      9  C   UNL     1       1.351   2.461  18.217  0.00  0.00    +0.000 C 
ATOM     10  C   UNL     1       2.851   2.207  18.276  0.00  0.00    +0.000 C 
ATOM     11  C   UNL     1       3.417   3.416  19.127  0.00  0.00    +0.000 C 
ATOM     12  C   UNL     1       4.632   2.842  19.846  0.00  0.00    +0.000 C 
ATOM     13  C   UNL     1       2.233   3.752  20.084  0.00  0.00    +0.000 C 
ATOM     14  C   UNL     1       2.357   5.070  20.875  0.00  0.00    +0.000 C 
ATOM     15  C   UNL     1       1.935   2.662  21.133  0.00  0.00    +0.000 C 
ENDBRANCH   5   6
ENDBRANCH   3   5
ENDBRANCH   2   3
ENDBRANCH   1   2
BRANCH   1  16
ATOM     16  C   UNL     1       7.865   8.035  17.546  0.00  0.00    +0.000 C 
BRANCH  16  17
ATOM     17  C   UNL     1       8.229   9.150  18.528  0.00  0.00    +0.000 C 
BRANCH  17  18
ATOM     18  C   UNL     1       9.196  10.149  17.886  0.00  0.00    +0.000 C 
BRANCH  18  19
ATOM     19  N   UNL     1       8.822  11.568  18.047  0.00  0.00    +0.000 NA
ATOM     20  C   UNL     1       7.702  11.917  17.194  0.00  0.00    +0.000 C 
BRANCH  19  21
ATOM     21  C   UNL     1       9.965  12.496  18.098  0.00  0.00    +0.000 C 
ATOM     22  C   UNL     1      11.141  11.748  18.830  0.00  0.00    +0.000 C 
ATOM     23  C   UNL     1      11.509  12.659  20.037  0.00  0.00    +0.000 C 
ATOM     24  C   UNL     1      12.330  13.817  19.471  0.00  0.00    +0.000 C 
ATOM     25  C   UNL     1      11.281  14.575  18.664  0.00  0.00    +0.000 C 
ATOM     26  C   UNL     1       9.923  13.817  18.968  0.00  0.00    +0.000 C 
ATOM     27  C   UNL     1       8.817  14.828  18.689  0.00  0.00    +0.000 C 
ATOM     28  C   UNL     1      10.158  13.314  20.431  0.00  0.00    +0.000 C 
ATOM     29  C   UNL     1       9.206  12.269  21.046  0.00  0.00    +0.000 C 
ATOM     30  C   UNL     1      10.237  14.448  21.475  0.00  0.00    +0.000 C 
ENDBRANCH  19  21
ENDBRANCH  18  19
ENDBRANCH  17  18
ENDBRANCH  16  17
ENDBRANCH   1  16
TORSDOF 9
ENDMDL
MODEL 2
REMARK VINA RESULT:      -7.7      0.937      1.873
REMARK  Name = 
REMARK  17 active torsions:
REMARK  status: ('A' for Active; 'I' for Inactive)
REMARK    1  A    between atoms: C_1  and  N_2
REMARK    2  A    between atoms: N_2  and  C_3
REMARK    3  A    between atoms: N_2  and  C_21
REMARK    4  A    between atoms: C_3  and  C_4
REMARK    5  A    between atoms: C_4  and  C_5
REMARK    6  A    between atoms: C_5  and  C_6
REMARK    7  A    between atoms: C_6  and  C_7
REMARK    8  A    between atoms: C_7  and  C_8
REMARK    9  A    between atoms: C_8  and  N_9
REMARK   10  A    between atoms: N_9  and  C_10
REMARK   11  A    between atoms: N_9  and  C_11
REMARK   12  A    between atoms: C_16  and  C_17
REMARK   13  A    between atoms: C_18  and  C_19
REMARK   14  A    between atoms: C_18  and  C_20
REMARK   15  A    between atoms: C_26  and  C_27
REMARK   16  A    between atoms: C_28  and  C_29
REMARK   17  A    between atoms: C_28  and  C_30
REMARK                            x       y       z     vdW  Elec       q    Type
REMARK                         _______ _______ _______ _____ _____    ______ ____
ROOT
ATOM      1  C   UNL     1       7.915   7.216  18.356  0.00  0.00    +0.000 C 
ENDROOT
BRANCH   1   2
ATOM      2  C   UNL     1       6.783   6.378  17.786  0.00  0.00    +0.000 C 
BRANCH   2   3
ATOM      3  C   UNL     1       6.049   5.439  18.709  0.00  0.00    +0.000 C 
BRANCH   3   5
ATOM      4  C   UNL     1       4.297   6.479  17.536  0.00  0.00    +0.000 C 
ATOM      5  N   UNL     1       4.571   5.495  18.622  0.00  0.00    +0.000 NA
BRANCH   5   6
ATOM      6  C   UNL     1       3.812   4.224  18.388  0.00  0.00    +0.000 C 
ATOM      7  C   UNL     1       2.342   4.647  17.944  0.00  0.00    +0.000 C 
ATOM      8  C   UNL     1       1.375   3.810  18.804  0.00  0.00    +0.000 C 
ATOM      9  C   UNL     1       1.390   2.402  18.209  0.00  0.00    +0.000 C 
ATOM     10  C   UNL     1       2.788   1.922  18.573  0.00  0.00    +0.000 C 
ATOM     11  C   UNL     1       3.382   3.089  19.463  0.00  0.00    +0.000 C 
ATOM     12  C   UNL     1       4.327   2.387  20.431  0.00  0.00    +0.000 C 
ATOM     13  C   UNL     1       2.114   3.678  20.153  0.00  0.00    +0.000 C 
ATOM     14  C   UNL     1       2.310   5.017  20.893  0.00  0.00    +0.000 C 
ATOM     15  C   UNL     1       1.446   2.733  21.171  0.00  0.00    +0.000 C 
ENDBRANCH   5   6
ENDBRANCH   3   5
ENDBRANCH   2   3
ENDBRANCH   1   2
BRANCH   1  16
ATOM     16  C   UNL     1       7.958   8.659  17.874  0.00  0.00    +0.000 C 
BRANCH  16  17
ATOM     17  C   UNL     1       9.018   9.484  18.606  0.00  0.00    +0.000 C 
BRANCH  17  18
ATOM     18  C   UNL     1       8.605  10.956  18.685  0.00  0.00    +0.000 C 
BRANCH  18  19
ATOM     19  N   UNL     1       9.704  11.922  18.493  0.00  0.00    +0.000 NA
ATOM     20  C   UNL     1      10.798  11.332  17.745  0.00  0.00    +0.000 C 
BRANCH  19  21
ATOM     21  C   UNL     1      10.035  12.714  19.690  0.00  0.00    +0.000 C 
ATOM     22  C   UNL     1       8.803  12.622  20.665  0.00  0.00    +0.000 C 
ATOM     23  C   UNL     1       8.377  14.098  20.916  0.00  0.00    +0.000 C 
ATOM     24  C   UNL     1       9.380  14.674  21.915  0.00  0.00    +0.000 C 
ATOM     25  C   UNL     1      10.653  14.731  21.077  0.00  0.00    +0.000 C 
ATOM     26  C   UNL     1      10.193  14.287  19.626  0.00  0.00    +0.000 C 
ATOM     27  C   UNL     1      11.230  14.868  18.672  0.00  0.00    +0.000 C 
ATOM     28  C   UNL     1       8.721  14.814  19.583  0.00  0.00    +0.000 C 
ATOM     29  C   UNL     1       7.774  14.352  18.457  0.00  0.00    +0.000 C 
ATOM     30  C   UNL     1       8.609  16.353  19.595  0.00  0.00    +0.000 C 
ENDBRANCH  19  21
ENDBRANCH  18  19
ENDBRANCH  17  18
ENDBRANCH  16  17
ENDBRANCH   1  16
TORSDOF 9
ENDMDL
MODEL 3
REMARK VINA RESULT:      -7.7      0.927      1.744
REMARK  Name = 
REMARK  17 active torsions:
REMARK  status: ('A' for Active; 'I' for Inactive)
REMARK    1  A    between atoms: C_1  and  N_2
REMARK    2  A    between atoms: N_2  and  C_3
REMARK    3  A    between atoms: N_2  and  C_21
REMARK    4  A    between atoms: C_3  and  C_4
REMARK    5  A    between atoms: C_4  and  C_5
REMARK    6  A    between atoms: C_5  and  C_6
REMARK    7  A    between atoms: C_6  and  C_7
REMARK    8  A    between atoms: C_7  and  C_8
REMARK    9  A    between atoms: C_8  and  N_9
REMARK   10  A    between atoms: N_9  and  C_10
REMARK   11  A    between atoms: N_9  and  C_11
REMARK   12  A    between atoms: C_16  and  C_17
REMARK   13  A    between atoms: C_18  and  C_19
REMARK   14  A    between atoms: C_18  and  C_20
REMARK   15  A    between atoms: C_26  and  C_27
REMARK   16  A    between atoms: C_28  and  C_29
REMARK   17  A    between atoms: C_28  and  C_30
REMARK                            x       y       z     vdW  Elec       q    Type
REMARK                         _______ _______ _______ _____ _____    ______ ____
ROOT
ATOM      1  C   UNL     1       7.369   6.510  17.916  0.00  0.00    +0.000 C 
ENDROOT
BRANCH   1   2
ATOM      2  C   UNL     1       6.985   5.600  16.760  0.00  0.00    +0.000 C 
BRANCH   2   3
ATOM      3  C   UNL     1       5.529   5.502  16.377  0.00  0.00    +0.000 C 
BRANCH   3   5
ATOM      4  C   UNL     1       3.745   6.677  17.360  0.00  0.00    +0.000 C 
ATOM      5  N   UNL     1       4.581   5.452  17.514  0.00  0.00    +0.000 NA
BRANCH   5   6
ATOM      6  C   UNL     1       3.715   4.240  17.680  0.00  0.00    +0.000 C 
ATOM      7  C   UNL     1       2.207   4.743  17.606  0.00  0.00    +0.000 C 
ATOM      8  C   UNL     1       1.480   4.109  18.808  0.00  0.00    +0.000 C 
ATOM      9  C   UNL     1       1.244   2.646  18.435  0.00  0.00    +0.000 C 
ATOM     10  C   UNL     1       2.658   2.082  18.461  0.00  0.00    +0.000 C 
ATOM     11  C   UNL     1       3.548   3.284  18.979  0.00  0.00    +0.000 C 
ATOM     12  C   UNL     1       4.689   2.616  19.736  0.00  0.00    +0.000 C 
ATOM     13  C   UNL     1       2.567   4.068  19.904  0.00  0.00    +0.000 C 
ATOM     14  C   UNL     1       3.043   5.461  20.366  0.00  0.00    +0.000 C 
ATOM     15  C   UNL     1       2.167   3.317  21.189  0.00  0.00    +0.000 C 
ENDBRANCH   5   6
ENDBRANCH   3   5
ENDBRANCH   2   3
ENDBRANCH   1   2
BRANCH   1  16
ATOM     16  C   UNL     1       7.464   7.989  17.570  0.00  0.00    +0.000 C 
BRANCH  16  17
ATOM     17  C   UNL     1       8.396   8.747  18.517  0.00  0.00    +0.000 C 
BRANCH  17  18
ATOM     18  C   UNL     1       8.590  10.192  18.051  0.00  0.00    +0.000 C 
BRANCH  18  19
ATOM     19  N   UNL     1       9.335  11.055  18.990  0.00  0.00    +0.000 NA
ATOM     20  C   UNL     1       9.302  10.517  20.337  0.00  0.00    +0.000 C 
BRANCH  19  21
ATOM     21  C   UNL     1       9.090  12.496  18.816  0.00  0.00    +0.000 C 
ATOM     22  C   UNL     1       9.565  12.880  17.365  0.00  0.00    +0.000 C 
ATOM     23  C   UNL     1      10.621  14.004  17.570  0.00  0.00    +0.000 C 
ATOM     24  C   UNL     1       9.838  15.283  17.869  0.00  0.00    +0.000 C 
ATOM     25  C   UNL     1       9.262  14.978  19.248  0.00  0.00    +0.000 C 
ATOM     26  C   UNL     1       9.895  13.580  19.642  0.00  0.00    +0.000 C 
ATOM     27  C   UNL     1       9.834  13.516  21.164  0.00  0.00    +0.000 C 
ATOM     28  C   UNL     1      11.285  13.645  18.927  0.00  0.00    +0.000 C 
ATOM     29  C   UNL     1      12.140  12.369  18.792  0.00  0.00    +0.000 C 
ATOM     30  C   UNL     1      12.239  14.707  19.513  0.00  0.00    +0.000 C 
ENDBRANCH  19  21
ENDBRANCH  18  19
ENDBRANCH  17  18
ENDBRANCH  16  17
ENDBRANCH   1  16
TORSDOF 9
ENDMDL
MODEL 4
REMARK VINA RESULT:      -7.6      5.934     10.805
REMARK  Name = 
REMARK  17 active torsions:
REMARK  status: ('A' for Active; 'I' for Inactive)
REMARK    1  A    between atoms: C_1  and  N_2
REMARK    2  A    between atoms: N_2  and  C_3
REMARK    3  A    between atoms: N_2  and  C_21
REMARK    4  A    between atoms: C_3  and  C_4
REMARK    5  A    between atoms: C_4  and  C_5
REMARK    6  A    between atoms: C_5  and  C_6
REMARK    7  A    between atoms: C_6  and  C_7
REMARK    8  A    between atoms: C_7  and  C_8
REMARK    9  A    between atoms: C_8  and  N_9
REMARK   10  A    between atoms: N_9  and  C_10
REMARK   11  A    between atoms: N_9  and  C_11
REMARK   12  A    between atoms: C_16  and  C_17
REMARK   13  A    between atoms: C_18  and  C_19
REMARK   14  A    between atoms: C_18  and  C_20
REMARK   15  A    between atoms: C_26  and  C_27
REMARK   16  A    between atoms: C_28  and  C_29
REMARK   17  A    between atoms: C_28  and  C_30
REMARK                            x       y       z     vdW  Elec       q    Type
REMARK                         _______ _______ _______ _____ _____    ______ ____
ROOT
ATOM      1  C   UNL     1       1.646  10.630  18.338  0.00  0.00    +0.000 C 
ENDROOT
BRANCH   1   2
ATOM      2  C   UNL     1       0.607  11.086  19.349  0.00  0.00    +0.000 C 
BRANCH   2   3
ATOM      3  C   UNL     1       0.813  10.730  20.800  0.00  0.00    +0.000 C 
BRANCH   3   5
ATOM      4  C   UNL     1      -0.297   9.511  22.477  0.00  0.00    +0.000 C 
ATOM      5  N   UNL     1      -0.414  10.733  21.630  0.00  0.00    +0.000 NA
BRANCH   5   6
ATOM      6  C   UNL     1      -0.713  11.935  22.473  0.00  0.00    +0.000 C 
ATOM      7  C   UNL     1      -2.174  11.722  23.069  0.00  0.00    +0.000 C 
ATOM      8  C   UNL     1      -2.938  13.036  22.818  0.00  0.00    +0.000 C 
ATOM      9  C   UNL     1      -2.419  14.031  23.856  0.00  0.00    +0.000 C 
ATOM     10  C   UNL     1      -0.998  14.280  23.370  0.00  0.00    +0.000 C 
ATOM     11  C   UNL     1      -0.904  13.477  22.009  0.00  0.00    +0.000 C 
ATOM     12  C   UNL     1       0.082  14.273  21.163  0.00  0.00    +0.000 C 
ATOM     13  C   UNL     1      -2.367  13.533  21.472  0.00  0.00    +0.000 C 
ATOM     14  C   UNL     1      -2.684  12.609  20.279  0.00  0.00    +0.000 C 
ATOM     15  C   UNL     1      -2.835  14.939  21.047  0.00  0.00    +0.000 C 
ENDBRANCH   5   6
ENDBRANCH   3   5
ENDBRANCH   2   3
ENDBRANCH   1   2
BRANCH   1  16
ATOM     16  C   UNL     1       1.436   9.229  17.783  0.00  0.00    +0.000 C 
BRANCH  16  17
ATOM     17  C   UNL     1       2.664   8.338  17.975  0.00  0.00    +0.000 C 
BRANCH  17  18
ATOM     18  C   UNL     1       2.272   6.858  17.970  0.00  0.00    +0.000 C 
BRANCH  18  19
ATOM     19  N   UNL     1       3.405   5.914  18.041  0.00  0.00    +0.000 NA
ATOM     20  C   UNL     1       4.528   6.379  17.248  0.00  0.00    +0.000 C 
BRANCH  19  21
ATOM     21  C   UNL     1       3.022   4.496  17.929  0.00  0.00    +0.000 C 
ATOM     22  C   UNL     1       1.450   4.435  17.926  0.00  0.00    +0.000 C 
ATOM     23  C   UNL     1       1.080   3.505  19.118  0.00  0.00    +0.000 C 
ATOM     24  C   UNL     1       1.336   2.074  18.645  0.00  0.00    +0.000 C 
ATOM     25  C   UNL     1       2.857   2.051  18.538  0.00  0.00    +0.000 C 
ATOM     26  C   UNL     1       3.315   3.464  19.092  0.00  0.00    +0.000 C 
ATOM     27  C   UNL     1       4.759   3.279  19.544  0.00  0.00    +0.000 C 
ATOM     28  C   UNL     1       2.206   3.766  20.154  0.00  0.00    +0.000 C 
ATOM     29  C   UNL     1       2.080   5.182  20.750  0.00  0.00    +0.000 C 
ATOM     30  C   UNL     1       2.235   2.819  21.372  0.00  0.00    +0.000 C 
ENDBRANCH  19  21
ENDBRANCH  18  19
ENDBRANCH  17  18
ENDBRANCH  16  17
ENDBRANCH   1  16
TORSDOF 9
ENDMDL
MODEL 5
REMARK VINA RESULT:      -7.5      5.876     10.665
REMARK  Name = 
REMARK  17 active torsions:
REMARK  status: ('A' for Active; 'I' for Inactive)
REMARK    1  A    between atoms: C_1  and  N_2
REMARK    2  A    between atoms: N_2  and  C_3
REMARK    3  A    between atoms: N_2  and  C_21
REMARK    4  A    between atoms: C_3  and  C_4
REMARK    5  A    between atoms: C_4  and  C_5
REMARK    6  A    between atoms: C_5  and  C_6
REMARK    7  A    between atoms: C_6  and  C_7
REMARK    8  A    between atoms: C_7  and  C_8
REMARK    9  A    between atoms: C_8  and  N_9
REMARK   10  A    between atoms: N_9  and  C_10
REMARK   11  A    between atoms: N_9  and  C_11
REMARK   12  A    between atoms: C_16  and  C_17
REMARK   13  A    between atoms: C_18  and  C_19
REMARK   14  A    between atoms: C_18  and  C_20
REMARK   15  A    between atoms: C_26  and  C_27
REMARK   16  A    between atoms: C_28  and  C_29
REMARK   17  A    between atoms: C_28  and  C_30
REMARK                            x       y       z     vdW  Elec       q    Type
REMARK                         _______ _______ _______ _____ _____    ______ ____
ROOT
ATOM      1  C   UNL     1       1.922   8.962  17.730  0.00  0.00    +0.000 C 
ENDROOT
BRANCH   1   2
ATOM      2  C   UNL     1       1.495   9.948  18.805  0.00  0.00    +0.000 C 
BRANCH   2   3
ATOM      3  C   UNL     1       0.021  10.154  19.046  0.00  0.00    +0.000 C 
BRANCH   3   5
ATOM      4  C   UNL     1       0.831  10.434  21.235  0.00  0.00    +0.000 C 
ATOM      5  N   UNL     1      -0.326  10.758  20.353  0.00  0.00    +0.000 NA
BRANCH   5   6
ATOM      6  C   UNL     1      -0.642  12.222  20.412  0.00  0.00    +0.000 C 
ATOM      7  C   UNL     1       0.287  12.843  21.547  0.00  0.00    +0.000 C 
ATOM      8  C   UNL     1      -0.634  13.699  22.437  0.00  0.00    +0.000 C 
ATOM      9  C   UNL     1      -0.910  14.981  21.651  0.00  0.00    +0.000 C 
ATOM     10  C   UNL     1      -1.788  14.471  20.517  0.00  0.00    +0.000 C 
ATOM     11  C   UNL     1      -2.022  12.944  20.861  0.00  0.00    +0.000 C 
ATOM     12  C   UNL     1      -3.404  12.634  20.298  0.00  0.00    +0.000 C 
ATOM     13  C   UNL     1      -1.971  12.928  22.419  0.00  0.00    +0.000 C 
ATOM     14  C   UNL     1      -1.899  11.535  23.077  0.00  0.00    +0.000 C 
ATOM     15  C   UNL     1      -3.149  13.652  23.102  0.00  0.00    +0.000 C 
ENDBRANCH   5   6
ENDBRANCH   3   5
ENDBRANCH   2   3
ENDBRANCH   1   2
BRANCH   1  16
ATOM     16  C   UNL     1       2.744   7.782  18.225  0.00  0.00    +0.000 C 
BRANCH  16  17
ATOM     17  C   UNL     1       3.955   7.503  17.332  0.00  0.00    +0.000 C 
BRANCH  17  18
ATOM     18  C   UNL     1       4.177   5.998  17.168  0.00  0.00    +0.000 C 
BRANCH  18  19
ATOM     19  N   UNL     1       4.054   5.210  18.411  0.00  0.00    +0.000 NA
ATOM     20  C   UNL     1       5.313   5.165  19.130  0.00  0.00    +0.000 C 
BRANCH  19  21
ATOM     21  C   UNL     1       3.298   3.955  18.264  0.00  0.00    +0.000 C 
ATOM     22  C   UNL     1       1.799   4.343  17.982  0.00  0.00    +0.000 C 
ATOM     23  C   UNL     1       0.983   3.645  19.109  0.00  0.00    +0.000 C 
ATOM     24  C   UNL     1       0.885   2.170  18.721  0.00  0.00    +0.000 C 
ATOM     25  C   UNL     1       2.329   1.709  18.887  0.00  0.00    +0.000 C 
ATOM     26  C   UNL     1       3.082   2.970  19.483  0.00  0.00    +0.000 C 
ATOM     27  C   UNL     1       4.314   2.416  20.189  0.00  0.00    +0.000 C 
ATOM     28  C   UNL     1       1.951   3.650  20.323  0.00  0.00    +0.000 C 
ATOM     29  C   UNL     1       2.147   5.083  20.856  0.00  0.00    +0.000 C 
ATOM     30  C   UNL     1       1.501   2.825  21.547  0.00  0.00    +0.000 C 
ENDBRANCH  19  21
ENDBRANCH  18  19
ENDBRANCH  17  18
ENDBRANCH  16  17
ENDBRANCH   1  16
TORSDOF 9
ENDMDL
MODEL 6
REMARK VINA RESULT:      -7.5      5.118      8.294
REMARK  Name = 
REMARK  17 active torsions:
REMARK  status: ('A' for Active; 'I' for Inactive)
REMARK    1  A    between atoms: C_1  and  N_2
REMARK    2  A    between atoms: N_2  and  C_3
REMARK    3  A    between atoms: N_2  and  C_21
REMARK    4  A    between atoms: C_3  and  C_4
REMARK    5  A    between atoms: C_4  and  C_5
REMARK    6  A    between atoms: C_5  and  C_6
REMARK    7  A    between atoms: C_6  and  C_7
REMARK    8  A    between atoms: C_7  and  C_8
REMARK    9  A    between atoms: C_8  and  N_9
REMARK   10  A    between atoms: N_9  and  C_10
REMARK   11  A    between atoms: N_9  and  C_11
REMARK   12  A    between atoms: C_16  and  C_17
REMARK   13  A    between atoms: C_18  and  C_19
REMARK   14  A    between atoms: C_18  and  C_20
REMARK   15  A    between atoms: C_26  and  C_27
REMARK   16  A    between atoms: C_28  and  C_29
REMARK   17  A    between atoms: C_28  and  C_30
REMARK                            x       y       z     vdW  Elec       q    Type
REMARK                         _______ _______ _______ _____ _____    ______ ____
ROOT
ATOM      1  C   UNL     1       2.089   5.338  20.581  0.00  0.00    +0.000 C 
ENDROOT
BRANCH   1   2
ATOM      2  C   UNL     1       1.410   4.309  19.692  0.00  0.00    +0.000 C 
BRANCH   2   3
ATOM      3  C   UNL     1       1.805   4.244  18.238  0.00  0.00    +0.000 C 
BRANCH   3   5
ATOM      4  C   UNL     1       3.010   2.297  17.706  0.00  0.00    +0.000 C 
ATOM      5  N   UNL     1       3.178   3.753  17.979  0.00  0.00    +0.000 NA
BRANCH   5   6
ATOM      6  C   UNL     1       3.987   4.404  16.898  0.00  0.00    +0.000 C 
ATOM      7  C   UNL     1       5.274   3.492  16.681  0.00  0.00    +0.000 C 
ATOM      8  C   UNL     1       6.484   4.447  16.683  0.00  0.00    +0.000 C 
ATOM      9  C   UNL     1       6.474   5.145  15.323  0.00  0.00    +0.000 C 
ATOM     10  C   UNL     1       5.245   6.035  15.436  0.00  0.00    +0.000 C 
ATOM     11  C   UNL     1       4.751   5.834  16.926  0.00  0.00    +0.000 C 
ATOM     12  C   UNL     1       4.117   7.167  17.303  0.00  0.00    +0.000 C 
ATOM     13  C   UNL     1       6.077   5.541  17.694  0.00  0.00    +0.000 C 
ATOM     14  C   UNL     1       5.920   5.030  19.140  0.00  0.00    +0.000 C 
ATOM     15  C   UNL     1       7.042   6.740  17.777  0.00  0.00    +0.000 C 
ENDBRANCH   5   6
ENDBRANCH   3   5
ENDBRANCH   2   3
ENDBRANCH   1   2
BRANCH   1  16
ATOM     16  C   UNL     1       2.008   6.775  20.084  0.00  0.00    +0.000 C 
BRANCH  16  17
ATOM     17  C   UNL     1       1.421   7.719  21.135  0.00  0.00    +0.000 C 
BRANCH  17  18
ATOM     18  C   UNL     1       1.115   9.090  20.526  0.00  0.00    +0.000 C 
BRANCH  18  19
ATOM     19  N   UNL     1       0.520  10.067  21.459  0.00  0.00    +0.000 NA
ATOM     20  C   UNL     1       0.543   9.573  22.823  0.00  0.00    +0.000 C 
BRANCH  19  21
ATOM     21  C   UNL     1      -0.721  10.693  20.973  0.00  0.00    +0.000 C 
ATOM     22  C   UNL     1      -0.724  10.571  19.405  0.00  0.00    +0.000 C 
ATOM     23  C   UNL     1      -0.853  12.033  18.886  0.00  0.00    +0.000 C 
ATOM     24  C   UNL     1      -2.320  12.425  19.058  0.00  0.00    +0.000 C 
ATOM     25  C   UNL     1      -2.445  12.495  20.576  0.00  0.00    +0.000 C 
ATOM     26  C   UNL     1      -0.972  12.250  21.108  0.00  0.00    +0.000 C 
ATOM     27  C   UNL     1      -0.931  12.869  22.500  0.00  0.00    +0.000 C 
ATOM     28  C   UNL     1      -0.111  12.873  19.960  0.00  0.00    +0.000 C 
ATOM     29  C   UNL     1       1.407  12.604  19.908  0.00  0.00    +0.000 C 
ATOM     30  C   UNL     1      -0.252  14.404  19.835  0.00  0.00    +0.000 C 
ENDBRANCH  19  21
ENDBRANCH  18  19
ENDBRANCH  17  18
ENDBRANCH  16  17
ENDBRANCH   1  16
TORSDOF 9
ENDMDL
MODEL 7
REMARK VINA RESULT:      -7.5      5.397      9.091
REMARK  Name = 
REMARK  17 active torsions:
REMARK  status: ('A' for Active; 'I' for Inactive)
REMARK    1  A    between atoms: C_1  and  N_2
REMARK    2  A    between atoms: N_2  and  C_3
REMARK    3  A    between atoms: N_2  and  C_21
REMARK    4  A    between atoms: C_3  and  C_4
REMARK    5  A    between atoms: C_4  and  C_5
REMARK    6  A    between atoms: C_5  and  C_6
REMARK    7  A    between atoms: C_6  and  C_7
REMARK    8  A    between atoms: C_7  and  C_8
REMARK    9  A    between atoms: C_8  and  N_9
REMARK   10  A    between atoms: N_9  and  C_10
REMARK   11  A    between atoms: N_9  and  C_11
REMARK   12  A    between atoms: C_16  and  C_17
REMARK   13  A    between atoms: C_18  and  C_19
REMARK   14  A    between atoms: C_18  and  C_20
REMARK   15  A    between atoms: C_26  and  C_27
REMARK   16  A    between atoms: C_28  and  C_29
REMARK   17  A    between atoms: C_28  and  C_30
REMARK                            x       y       z     vdW  Elec       q    Type
REMARK                         _______ _______ _______ _____ _____    ______ ____
ROOT
ATOM      1  C   UNL     1       1.815   5.595  20.869  0.00  0.00    +0.000 C 
ENDROOT
BRANCH   1   2
ATOM      2  C   UNL     1       1.496   6.976  20.322  0.00  0.00    +0.000 C 
BRANCH   2   3
ATOM      3  C   UNL     1       1.536   8.150  21.268  0.00  0.00    +0.000 C 
BRANCH   3   5
ATOM      4  C   UNL     1      -0.527   8.860  22.147  0.00  0.00    +0.000 C 
ATOM      5  N   UNL     1       0.464   9.154  21.072  0.00  0.00    +0.000 NA
BRANCH   5   6
ATOM      6  C   UNL     1       0.828  10.608  21.072  0.00  0.00    +0.000 C 
ATOM      7  C   UNL     1      -0.361  11.375  21.801  0.00  0.00    +0.000 C 
ATOM      8  C   UNL     1      -0.728  12.565  20.893  0.00  0.00    +0.000 C 
ATOM      9  C   UNL     1       0.369  13.609  21.100  0.00  0.00    +0.000 C 
ATOM     10  C   UNL     1       1.568  12.940  20.443  0.00  0.00    +0.000 C 
ATOM     11  C   UNL     1       0.978  11.615  19.810  0.00  0.00    +0.000 C 
ATOM     12  C   UNL     1       1.838  11.364  18.577  0.00  0.00    +0.000 C 
ATOM     13  C   UNL     1      -0.490  12.018  19.469  0.00  0.00    +0.000 C 
ATOM     14  C   UNL     1      -1.433  10.862  19.077  0.00  0.00    +0.000 C 
ATOM     15  C   UNL     1      -0.617  13.061  18.341  0.00  0.00    +0.000 C 
ENDBRANCH   5   6
ENDBRANCH   3   5
ENDBRANCH   2   3
ENDBRANCH   1   2
BRANCH   1  16
ATOM     16  C   UNL     1       1.386   4.434  19.984  0.00  0.00    +0.000 C 
BRANCH  16  17
ATOM     17  C   UNL     1       2.036   3.114  20.401  0.00  0.00    +0.000 C 
BRANCH  17  18
ATOM     18  C   UNL     1       3.539   3.129  20.106  0.00  0.00    +0.000 C 
BRANCH  18  19
ATOM     19  N   UNL     1       3.891   3.152  18.672  0.00  0.00    +0.000 NA
ATOM     20  C   UNL     1       3.460   1.938  18.005  0.00  0.00    +0.000 C 
BRANCH  19  21
ATOM     21  C   UNL     1       5.247   3.652  18.388  0.00  0.00    +0.000 C 
ATOM     22  C   UNL     1       5.527   4.838  19.383  0.00  0.00    +0.000 C 
ATOM     23  C   UNL     1       5.866   6.056  18.474  0.00  0.00    +0.000 C 
ATOM     24  C   UNL     1       7.304   5.851  17.998  0.00  0.00    +0.000 C 
ATOM     25  C   UNL     1       7.155   4.650  17.070  0.00  0.00    +0.000 C 
ATOM     26  C   UNL     1       5.595   4.375  17.024  0.00  0.00    +0.000 C 
ATOM     27  C   UNL     1       5.350   3.618  15.724  0.00  0.00    +0.000 C 
ATOM     28  C   UNL     1       5.012   5.816  17.201  0.00  0.00    +0.000 C 
ATOM     29  C   UNL     1       3.512   6.005  17.509  0.00  0.00    +0.000 C 
ATOM     30  C   UNL     1       5.297   6.755  16.010  0.00  0.00    +0.000 C 
ENDBRANCH  19  21
ENDBRANCH  18  19
ENDBRANCH  17  18
ENDBRANCH  16  17
ENDBRANCH   1  16
TORSDOF 9
ENDMDL
MODEL 8
REMARK VINA RESULT:      -7.5      1.365     11.047
REMARK  Name = 
REMARK  17 active torsions:
REMARK  status: ('A' for Active; 'I' for Inactive)
REMARK    1  A    between atoms: C_1  and  N_2
REMARK    2  A    between atoms: N_2  and  C_3
REMARK    3  A    between atoms: N_2  and  C_21
REMARK    4  A    between atoms: C_3  and  C_4
REMARK    5  A    between atoms: C_4  and  C_5
REMARK    6  A    between atoms: C_5  and  C_6
REMARK    7  A    between atoms: C_6  and  C_7
REMARK    8  A    between atoms: C_7  and  C_8
REMARK    9  A    between atoms: C_8  and  N_9
REMARK   10  A    between atoms: N_9  and  C_10
REMARK   11  A    between atoms: N_9  and  C_11
REMARK   12  A    between atoms: C_16  and  C_17
REMARK   13  A    between atoms: C_18  and  C_19
REMARK   14  A    between atoms: C_18  and  C_20
REMARK   15  A    between atoms: C_26  and  C_27
REMARK   16  A    between atoms: C_28  and  C_29
REMARK   17  A    between atoms: C_28  and  C_30
REMARK                            x       y       z     vdW  Elec       q    Type
REMARK                         _______ _______ _______ _____ _____    ______ ____
ROOT
ATOM      1  C   UNL     1       8.690   8.832  18.549  0.00  0.00    +0.000 C 
ENDROOT
BRANCH   1   2
ATOM      2  C   UNL     1       9.048  10.286  18.808  0.00  0.00    +0.000 C 
BRANCH   2   3
ATOM      3  C   UNL     1       9.315  10.716  20.229  0.00  0.00    +0.000 C 
BRANCH   3   5
ATOM      4  C   UNL     1       8.785  12.282  21.900  0.00  0.00    +0.000 C 
ATOM      5  N   UNL     1       9.211  12.173  20.476  0.00  0.00    +0.000 NA
BRANCH   5   6
ATOM      6  C   UNL     1      10.406  13.038  20.213  0.00  0.00    +0.000 C 
ATOM      7  C   UNL     1      10.121  14.436  20.919  0.00  0.00    +0.000 C 
ATOM      8  C   UNL     1      10.441  15.522  19.873  0.00  0.00    +0.000 C 
ATOM      9  C   UNL     1      11.966  15.612  19.812  0.00  0.00    +0.000 C 
ATOM     10  C   UNL     1      12.333  14.287  19.159  0.00  0.00    +0.000 C 
ATOM     11  C   UNL     1      10.939  13.629  18.800  0.00  0.00    +0.000 C 
ATOM     12  C   UNL     1      11.216  12.805  17.548  0.00  0.00    +0.000 C 
ATOM     13  C   UNL     1      10.028  14.867  18.537  0.00  0.00    +0.000 C 
ATOM     14  C   UNL     1       8.518  14.581  18.421  0.00  0.00    +0.000 C 
ATOM     15  C   UNL     1      10.398  15.673  17.276  0.00  0.00    +0.000 C 
ENDBRANCH   5   6
ENDBRANCH   3   5
ENDBRANCH   2   3
ENDBRANCH   1   2
BRANCH   1  16
ATOM     16  C   UNL     1       7.556   8.612  17.558  0.00  0.00    +0.000 C 
BRANCH  16  17
ATOM     17  C   UNL     1       7.194   7.134  17.409  0.00  0.00    +0.000 C 
BRANCH  17  18
ATOM     18  C   UNL     1       5.773   6.972  16.862  0.00  0.00    +0.000 C 
BRANCH  18  19
ATOM     19  N   UNL     1       5.364   5.579  16.593  0.00  0.00    +0.000 NA
ATOM     20  C   UNL     1       5.882   5.116  15.320  0.00  0.00    +0.000 C 
BRANCH  19  21
ATOM     21  C   UNL     1       3.957   5.286  16.913  0.00  0.00    +0.000 C 
ATOM     22  C   UNL     1       3.479   6.365  17.953  0.00  0.00    +0.000 C 
ATOM     23  C   UNL     1       2.986   5.550  19.184  0.00  0.00    +0.000 C 
ATOM     24  C   UNL     1       1.606   5.004  18.816  0.00  0.00    +0.000 C 
ATOM     25  C   UNL     1       1.955   3.984  17.736  0.00  0.00    +0.000 C 
ATOM     26  C   UNL     1       3.540   3.975  17.696  0.00  0.00    +0.000 C 
ATOM     27  C   UNL     1       3.927   2.627  17.101  0.00  0.00    +0.000 C 
ATOM     28  C   UNL     1       3.899   4.294  19.186  0.00  0.00    +0.000 C 
ATOM     29  C   UNL     1       5.345   4.674  19.562  0.00  0.00    +0.000 C 
ATOM     30  C   UNL     1       3.507   3.177  20.174  0.00  0.00    +0.000 C 
ENDBRANCH  19  21
ENDBRANCH  18  19
ENDBRANCH  17  18
ENDBRANCH  16  17
ENDBRANCH   1  16
TORSDOF 9
ENDMDL
MODEL 9
REMARK VINA RESULT:      -7.4      1.368     10.967
REMARK  Name = 
REMARK  17 active torsions:
REMARK  status: ('A' for Active; 'I' for Inactive)
REMARK    1  A    between atoms: C_1  and  N_2
REMARK    2  A    between atoms: N_2  and  C_3
REMARK    3  A    between atoms: N_2  and  C_21
REMARK    4  A    between atoms: C_3  and  C_4
REMARK    5  A    between atoms: C_4  and  C_5
REMARK    6  A    between atoms: C_5  and  C_6
REMARK    7  A    between atoms: C_6  and  C_7
REMARK    8  A    between atoms: C_7  and  C_8
REMARK    9  A    between atoms: C_8  and  N_9
REMARK   10  A    between atoms: N_9  and  C_10
REMARK   11  A    between atoms: N_9  and  C_11
REMARK   12  A    between atoms: C_16  and  C_17
REMARK   13  A    between atoms: C_18  and  C_19
REMARK   14  A    between atoms: C_18  and  C_20
REMARK   15  A    between atoms: C_26  and  C_27
REMARK   16  A    between atoms: C_28  and  C_29
REMARK   17  A    between atoms: C_28  and  C_30
REMARK                            x       y       z     vdW  Elec       q    Type
REMARK                         _______ _______ _______ _____ _____    ______ ____
ROOT
ATOM      1  C   UNL     1       8.230   8.202  18.279  0.00  0.00    +0.000 C 
ENDROOT
BRANCH   1   2
ATOM      2  C   UNL     1       8.234   9.697  18.002  0.00  0.00    +0.000 C 
BRANCH   2   3
ATOM      3  C   UNL     1       9.471  10.487  18.348  0.00  0.00    +0.000 C 
BRANCH   3   5
ATOM      4  C   UNL     1       9.976  11.265  20.508  0.00  0.00    +0.000 C 
ATOM      5  N   UNL     1       9.252  11.634  19.259  0.00  0.00    +0.000 NA
BRANCH   5   6
ATOM      6  C   UNL     1       9.650  13.006  18.803  0.00  0.00    +0.000 C 
ATOM      7  C   UNL     1      10.616  13.596  19.923  0.00  0.00    +0.000 C 
ATOM      8  C   UNL     1      10.100  15.014  20.234  0.00  0.00    +0.000 C 
ATOM      9  C   UNL     1      10.551  15.893  19.068  0.00  0.00    +0.000 C 
ATOM     10  C   UNL     1       9.681  15.376  17.930  0.00  0.00    +0.000 C 
ATOM     11  C   UNL     1       8.722  14.322  18.619  0.00  0.00    +0.000 C 
ATOM     12  C   UNL     1       7.434  14.388  17.807  0.00  0.00    +0.000 C 
ATOM     13  C   UNL     1       8.571  14.885  20.066  0.00  0.00    +0.000 C 
ATOM     14  C   UNL     1       7.905  13.944  21.090  0.00  0.00    +0.000 C 
ATOM     15  C   UNL     1       7.793  16.213  20.153  0.00  0.00    +0.000 C 
ENDBRANCH   5   6
ENDBRANCH   3   5
ENDBRANCH   2   3
ENDBRANCH   1   2
BRANCH   1  16
ATOM     16  C   UNL     1       7.188   7.406  17.508  0.00  0.00    +0.000 C 
BRANCH  16  17
ATOM     17  C   UNL     1       7.518   5.913  17.460  0.00  0.00    +0.000 C 
BRANCH  17  18
ATOM     18  C   UNL     1       6.607   5.122  18.403  0.00  0.00    +0.000 C 
BRANCH  18  19
ATOM     19  N   UNL     1       5.509   4.390  17.740  0.00  0.00    +0.000 NA
ATOM     20  C   UNL     1       5.824   4.117  16.350  0.00  0.00    +0.000 C 
BRANCH  19  21
ATOM     21  C   UNL     1       4.163   4.896  18.056  0.00  0.00    +0.000 C 
ATOM     22  C   UNL     1       4.205   5.451  19.527  0.00  0.00    +0.000 C 
ATOM     23  C   UNL     1       3.102   4.661  20.289  0.00  0.00    +0.000 C 
ATOM     24  C   UNL     1       1.766   5.281  19.880  0.00  0.00    +0.000 C 
ATOM     25  C   UNL     1       1.664   4.860  18.418  0.00  0.00    +0.000 C 
ATOM     26  C   UNL     1       2.921   3.923  18.186  0.00  0.00    +0.000 C 
ATOM     27  C   UNL     1       2.565   3.047  16.991  0.00  0.00    +0.000 C 
ATOM     28  C   UNL     1       3.098   3.271  19.597  0.00  0.00    +0.000 C 
ATOM     29  C   UNL     1       4.389   2.495  19.928  0.00  0.00    +0.000 C 
ATOM     30  C   UNL     1       1.947   2.323  19.994  0.00  0.00    +0.000 C 
ENDBRANCH  19  21
ENDBRANCH  18  19
ENDBRANCH  17  18
ENDBRANCH  16  17
ENDBRANCH   1  16
TORSDOF 9
ENDMDL
