MODEL 1
REMARK VINA RESULT:      -7.5      0.000      0.000
REMARK  Name = 
REMARK  8 active torsions:
REMARK  status: ('A' for Active; 'I' for Inactive)
REMARK    1  A    between atoms: C_1  and  C_2
REMARK    2  A    between atoms: C_5  and  O_7
REMARK    3  A    between atoms: O_7  and  C_8
REMARK    4  A    between atoms: C_8  and  C_9
REMARK    5  A    between atoms: C_8  and  C_10
REMARK    6  A    between atoms: C_8  and  C_11
REMARK    7  A    between atoms: N_17  and  C_18
REMARK    8  A    between atoms: C_20  and  C_21
REMARK                            x       y       z     vdW  Elec       q    Type
REMARK                         _______ _______ _______ _____ _____    ______ ____
ROOT
ATOM      1  C   UNL     1      -0.424   9.647  17.815  0.00  0.00    +0.000 C 
ATOM      2  C   UNL     1       1.057   9.734  18.208  0.00  0.00    +0.000 C 
ATOM      3  C   UNL     1       1.444  11.183  18.566  0.00  0.00    +0.000 C 
ATOM      4  N   UNL     1       0.810  11.603  19.817  0.00  0.00    +0.000 N 
ATOM      5  C   UNL     1      -0.048  12.686  19.790  0.00  0.00    +0.000 C 
ATOM      6  O   UNL     1      -0.304  13.286  18.752  0.00  0.00    +0.000 OA
ATOM      7  C   UNL     1       1.061  10.743  20.970  0.00  0.00    +0.000 C 
ATOM      8  C   UNL     1       0.772   9.259  20.640  0.00  0.00    +0.000 C 
ATOM      9  N   UNL     1       1.376   8.851  19.355  0.00  0.00    +0.000 N 
ATOM     10  C   UNL     1       2.121   7.680  19.323  0.00  0.00    +0.000 C 
ATOM     11  O   UNL     1       2.182   6.926  20.292  0.00  0.00    +0.000 OA
ATOM     12  N   UNL     1       2.838   7.464  18.164  0.00  0.00    +0.000 N 
ATOM     13  H   UNL     1       3.232   8.305  17.761  0.00  0.00    +0.000 HD
ENDROOT
BRANCH  12  14
ATOM     14  C   UNL     1       3.650   6.310  17.983  0.00  0.00    +0.000 A 
ATOM     15  C   UNL     1       5.049   6.393  18.037  0.00  0.00    +0.000 A 
ATOM     16  C   UNL     1       5.848   5.250  17.850  0.00  0.00    +0.000 A 
ATOM     17  C   UNL     1       5.225   4.018  17.596  0.00  0.00    +0.000 A 
ATOM     18  C   UNL     1       3.833   3.924  17.547  0.00  0.00    +0.000 A 
ATOM     19  C   UNL     1       3.050   5.062  17.755  0.00  0.00    +0.000 A 
ATOM     20 CL   UNL     1       1.331   4.908  17.649  0.00  0.00    +0.000 Cl
BRANCH  16  21
ATOM     21  C   UNL     1       7.356   5.329  17.914  0.00  0.00    +0.000 C 
ATOM     22  F   UNL     1       7.992   4.285  17.318  0.00  0.00    +0.000 F 
ATOM     23  F   UNL     1       7.836   6.452  17.307  0.00  0.00    +0.000 F 
ATOM     24  F   UNL     1       7.820   5.375  19.193  0.00  0.00    +0.000 F 
ENDBRANCH  16  21
ENDBRANCH  12  14
BRANCH   5  25
ATOM     25  O   UNL     1      -0.563  13.012  21.009  0.00  0.00    +0.000 OA
BRANCH  25  26
ATOM     26  C   UNL     1      -2.004  12.927  21.208  0.00  0.00    +0.000 C 
ATOM     27  C   UNL     1      -2.344  12.241  22.539  0.00  0.00    +0.000 C 
ATOM     28  C   UNL     1      -2.520  14.375  21.279  0.00  0.00    +0.000 C 
ATOM     29  C   UNL     1      -2.693  12.248  20.014  0.00  0.00    +0.000 C 
ENDBRANCH  25  26
ENDBRANCH   5  25
TORSDOF 4
ENDMDL
MODEL 2
REMARK VINA RESULT:      -7.5      0.065      1.083
REMARK  Name = 
REMARK  8 active torsions:
REMARK  status: ('A' for Active; 'I' for Inactive)
REMARK    1  A    between atoms: C_1  and  C_2
REMARK    2  A    between atoms: C_5  and  O_7
REMARK    3  A    between atoms: O_7  and  C_8
REMARK    4  A    between atoms: C_8  and  C_9
REMARK    5  A    between atoms: C_8  and  C_10
REMARK    6  A    between atoms: C_8  and  C_11
REMARK    7  A    between atoms: N_17  and  C_18
REMARK    8  A    between atoms: C_20  and  C_21
REMARK                            x       y       z     vdW  Elec       q    Type
REMARK                         _______ _______ _______ _____ _____    ______ ____
ROOT
ATOM      1  C   UNL     1      -0.414   9.706  17.772  0.00  0.00    +0.000 C 
ATOM      2  C   UNL     1       1.063   9.786  18.180  0.00  0.00    +0.000 C 
ATOM      3  C   UNL     1       1.454  11.234  18.541  0.00  0.00    +0.000 C 
ATOM      4  N   UNL     1       0.809  11.658  19.785  0.00  0.00    +0.000 N 
ATOM      5  C   UNL     1      -0.045  12.745  19.748  0.00  0.00    +0.000 C 
ATOM      6  O   UNL     1      -0.287  13.345  18.708  0.00  0.00    +0.000 OA
ATOM      7  C   UNL     1       1.043  10.797  20.941  0.00  0.00    +0.000 C 
ATOM      8  C   UNL     1       0.751   9.315  20.609  0.00  0.00    +0.000 C 
ATOM      9  N   UNL     1       1.366   8.903  19.331  0.00  0.00    +0.000 N 
ATOM     10  C   UNL     1       2.107   7.729  19.307  0.00  0.00    +0.000 C 
ATOM     11  O   UNL     1       2.154   6.975  20.277  0.00  0.00    +0.000 OA
ATOM     12  N   UNL     1       2.835   7.508  18.155  0.00  0.00    +0.000 N 
ATOM     13  H   UNL     1       3.237   8.348  17.757  0.00  0.00    +0.000 HD
ENDROOT
BRANCH  12  14
ATOM     14  C   UNL     1       3.643   6.351  17.984  0.00  0.00    +0.000 A 
ATOM     15  C   UNL     1       5.042   6.428  18.048  0.00  0.00    +0.000 A 
ATOM     16  C   UNL     1       5.837   5.281  17.870  0.00  0.00    +0.000 A 
ATOM     17  C   UNL     1       5.212   4.051  17.614  0.00  0.00    +0.000 A 
ATOM     18  C   UNL     1       3.820   3.963  17.555  0.00  0.00    +0.000 A 
ATOM     19  C   UNL     1       3.040   5.104  17.755  0.00  0.00    +0.000 A 
ATOM     20 CL   UNL     1       1.321   4.958  17.635  0.00  0.00    +0.000 Cl
BRANCH  16  21
ATOM     21  C   UNL     1       7.345   5.354  17.946  0.00  0.00    +0.000 C 
ATOM     22  F   UNL     1       7.835   5.390  19.215  0.00  0.00    +0.000 F 
ATOM     23  F   UNL     1       7.940   4.283  17.349  0.00  0.00    +0.000 F 
ATOM     24  F   UNL     1       7.846   6.453  17.317  0.00  0.00    +0.000 F 
ENDBRANCH  16  21
ENDBRANCH  12  14
BRANCH   5  25
ATOM     25  O   UNL     1      -0.571  13.074  20.962  0.00  0.00    +0.000 OA
BRANCH  25  26
ATOM     26  C   UNL     1      -2.016  13.025  21.136  0.00  0.00    +0.000 C 
ATOM     27  C   UNL     1      -2.684  12.198  20.028  0.00  0.00    +0.000 C 
ATOM     28  C   UNL     1      -2.268  12.308  22.475  0.00  0.00    +0.000 C 
ATOM     29  C   UNL     1      -2.615  14.435  21.248  0.00  0.00    +0.000 C 
ENDBRANCH  25  26
ENDBRANCH   5  25
TORSDOF 4
ENDMDL
MODEL 3
REMARK VINA RESULT:      -7.4      0.894      1.488
REMARK  Name = 
REMARK  8 active torsions:
REMARK  status: ('A' for Active; 'I' for Inactive)
REMARK    1  A    between atoms: C_1  and  C_2
REMARK    2  A    between atoms: C_5  and  O_7
REMARK    3  A    between atoms: O_7  and  C_8
REMARK    4  A    between atoms: C_8  and  C_9
REMARK    5  A    between atoms: C_8  and  C_10
REMARK    6  A    between atoms: C_8  and  C_11
REMARK    7  A    between atoms: N_17  and  C_18
REMARK    8  A    between atoms: C_20  and  C_21
REMARK                            x       y       z     vdW  Elec       q    Type
REMARK                         _______ _______ _______ _____ _____    ______ ____
ROOT
ATOM      1  C   UNL     1      -0.444   9.652  17.804  0.00  0.00    +0.000 C 
ATOM      2  C   UNL     1       1.030   9.752  18.221  0.00  0.00    +0.000 C 
ATOM      3  C   UNL     1       1.395  11.202  18.598  0.00  0.00    +0.000 C 
ATOM      4  N   UNL     1       0.738  11.603  19.843  0.00  0.00    +0.000 N 
ATOM      5  C   UNL     1      -0.133  12.676  19.813  0.00  0.00    +0.000 C 
ATOM      6  O   UNL     1      -0.380  13.283  18.777  0.00  0.00    +0.000 OA
ATOM      7  C   UNL     1       0.980  10.735  20.992  0.00  0.00    +0.000 C 
ATOM      8  C   UNL     1       0.713   9.251  20.644  0.00  0.00    +0.000 C 
ATOM      9  N   UNL     1       1.341   8.862  19.365  0.00  0.00    +0.000 N 
ATOM     10  C   UNL     1       2.101   7.700  19.333  0.00  0.00    +0.000 C 
ATOM     11  O   UNL     1       2.155   6.937  20.296  0.00  0.00    +0.000 OA
ATOM     12  N   UNL     1       2.838   7.503  18.183  0.00  0.00    +0.000 N 
ATOM     13  H   UNL     1       3.228   8.352  17.795  0.00  0.00    +0.000 HD
ENDROOT
BRANCH  12  14
ATOM     14  C   UNL     1       3.666   6.360  18.004  0.00  0.00    +0.000 A 
ATOM     15  C   UNL     1       5.062   6.457  18.082  0.00  0.00    +0.000 A 
ATOM     16  C   UNL     1       5.877   5.326  17.896  0.00  0.00    +0.000 A 
ATOM     17  C   UNL     1       5.272   4.090  17.620  0.00  0.00    +0.000 A 
ATOM     18  C   UNL     1       3.883   3.981  17.547  0.00  0.00    +0.000 A 
ATOM     19  C   UNL     1       3.083   5.107  17.754  0.00  0.00    +0.000 A 
ATOM     20 CL   UNL     1       1.368   4.936  17.618  0.00  0.00    +0.000 Cl
BRANCH  16  21
ATOM     21  C   UNL     1       7.382   5.421  17.987  0.00  0.00    +0.000 C 
ATOM     22  F   UNL     1       7.860   5.463  19.260  0.00  0.00    +0.000 F 
ATOM     23  F   UNL     1       7.999   4.359  17.394  0.00  0.00    +0.000 F 
ATOM     24  F   UNL     1       7.873   6.527  17.362  0.00  0.00    +0.000 F 
ENDBRANCH  16  21
ENDBRANCH  12  14
BRANCH   5  25
ATOM     25  O   UNL     1      -0.670  12.985  21.027  0.00  0.00    +0.000 OA
BRANCH  25  26
ATOM     26  C   UNL     1      -0.359  14.278  21.623  0.00  0.00    +0.000 C 
ATOM     27  C   UNL     1      -1.147  15.408  20.947  0.00  0.00    +0.000 C 
ATOM     28  C   UNL     1      -0.813  14.200  23.092  0.00  0.00    +0.000 C 
ATOM     29  C   UNL     1       1.154  14.545  21.620  0.00  0.00    +0.000 C 
ENDBRANCH  25  26
ENDBRANCH   5  25
TORSDOF 4
ENDMDL
MODEL 4
REMARK VINA RESULT:      -7.4      0.076      1.107
REMARK  Name = 
REMARK  8 active torsions:
REMARK  status: ('A' for Active; 'I' for Inactive)
REMARK    1  A    between atoms: C_1  and  C_2
REMARK    2  A    between atoms: C_5  and  O_7
REMARK    3  A    between atoms: O_7  and  C_8
REMARK    4  A    between atoms: C_8  and  C_9
REMARK    5  A    between atoms: C_8  and  C_10
REMARK    6  A    between atoms: C_8  and  C_11
REMARK    7  A    between atoms: N_17  and  C_18
REMARK    8  A    between atoms: C_20  and  C_21
REMARK                            x       y       z     vdW  Elec       q    Type
REMARK                         _______ _______ _______ _____ _____    ______ ____
ROOT
ATOM      1  C   UNL     1      -0.442   9.677  17.814  0.00  0.00    +0.000 C 
ATOM      2  C   UNL     1       1.043   9.770  18.189  0.00  0.00    +0.000 C 
ATOM      3  C   UNL     1       1.432  11.224  18.527  0.00  0.00    +0.000 C 
ATOM      4  N   UNL     1       0.812  11.657  19.780  0.00  0.00    +0.000 N 
ATOM      5  C   UNL     1      -0.049  12.738  19.751  0.00  0.00    +0.000 C 
ATOM      6  O   UNL     1      -0.317  13.326  18.710  0.00  0.00    +0.000 OA
ATOM      7  C   UNL     1       1.077  10.810  20.939  0.00  0.00    +0.000 C 
ATOM      8  C   UNL     1       0.787   9.322  20.629  0.00  0.00    +0.000 C 
ATOM      9  N   UNL     1       1.377   8.901  19.342  0.00  0.00    +0.000 N 
ATOM     10  C   UNL     1       2.123   7.731  19.313  0.00  0.00    +0.000 C 
ATOM     11  O   UNL     1       2.197   6.987  20.290  0.00  0.00    +0.000 OA
ATOM     12  N   UNL     1       2.828   7.503  18.149  0.00  0.00    +0.000 N 
ATOM     13  H   UNL     1       3.215   8.341  17.733  0.00  0.00    +0.000 HD
ENDROOT
BRANCH  12  14
ATOM     14  C   UNL     1       3.639   6.348  17.972  0.00  0.00    +0.000 A 
ATOM     15  C   UNL     1       5.038   6.431  18.024  0.00  0.00    +0.000 A 
ATOM     16  C   UNL     1       5.836   5.288  17.840  0.00  0.00    +0.000 A 
ATOM     17  C   UNL     1       5.214   4.055  17.590  0.00  0.00    +0.000 A 
ATOM     18  C   UNL     1       3.822   3.961  17.543  0.00  0.00    +0.000 A 
ATOM     19  C   UNL     1       3.039   5.099  17.748  0.00  0.00    +0.000 A 
ATOM     20 CL   UNL     1       1.319   4.946  17.643  0.00  0.00    +0.000 Cl
BRANCH  16  21
ATOM     21  C   UNL     1       7.344   5.367  17.903  0.00  0.00    +0.000 C 
ATOM     22  F   UNL     1       7.862   6.516  17.390  0.00  0.00    +0.000 F 
ATOM     23  F   UNL     1       7.807   5.291  19.184  0.00  0.00    +0.000 F 
ATOM     24  F   UNL     1       7.948   4.347  17.232  0.00  0.00    +0.000 F 
ENDBRANCH  16  21
ENDBRANCH  12  14
BRANCH   5  25
ATOM     25  O   UNL     1      -0.550  13.077  20.973  0.00  0.00    +0.000 OA
BRANCH  25  26
ATOM     26  C   UNL     1      -1.991  13.015  21.181  0.00  0.00    +0.000 C 
ATOM     27  C   UNL     1      -2.625  14.411  21.117  0.00  0.00    +0.000 C 
ATOM     28  C   UNL     1      -2.562  12.184  20.018  0.00  0.00    +0.000 C 
ATOM     29  C   UNL     1      -2.336  12.281  22.486  0.00  0.00    +0.000 C 
ENDBRANCH  25  26
ENDBRANCH   5  25
TORSDOF 4
ENDMDL
MODEL 5
REMARK VINA RESULT:      -7.2      2.606      3.134
REMARK  Name = 
REMARK  8 active torsions:
REMARK  status: ('A' for Active; 'I' for Inactive)
REMARK    1  A    between atoms: C_1  and  C_2
REMARK    2  A    between atoms: C_5  and  O_7
REMARK    3  A    between atoms: O_7  and  C_8
REMARK    4  A    between atoms: C_8  and  C_9
REMARK    5  A    between atoms: C_8  and  C_10
REMARK    6  A    between atoms: C_8  and  C_11
REMARK    7  A    between atoms: N_17  and  C_18
REMARK    8  A    between atoms: C_20  and  C_21
REMARK                            x       y       z     vdW  Elec       q    Type
REMARK                         _______ _______ _______ _____ _____    ______ ____
ROOT
ATOM      1  C   UNL     1      -0.636  10.041  18.096  0.00  0.00    +0.000 C 
ATOM      2  C   UNL     1       0.874   9.900  18.328  0.00  0.00    +0.000 C 
ATOM      3  C   UNL     1       1.540  11.285  18.462  0.00  0.00    +0.000 C 
ATOM      4  N   UNL     1       1.138  11.944  19.706  0.00  0.00    +0.000 N 
ATOM      5  C   UNL     1       0.476  13.155  19.627  0.00  0.00    +0.000 C 
ATOM      6  O   UNL     1       0.204  13.677  18.552  0.00  0.00    +0.000 OA
ATOM      7  C   UNL     1       1.375  11.181  20.928  0.00  0.00    +0.000 C 
ATOM      8  C   UNL     1       0.804   9.747  20.817  0.00  0.00    +0.000 C 
ATOM      9  N   UNL     1       1.174   9.102  19.541  0.00  0.00    +0.000 N 
ATOM     10  C   UNL     1       1.703   7.819  19.583  0.00  0.00    +0.000 C 
ATOM     11  O   UNL     1       1.750   7.174  20.628  0.00  0.00    +0.000 OA
ATOM     12  N   UNL     1       2.231   7.354  18.396  0.00  0.00    +0.000 N 
ATOM     13  H   UNL     1       2.710   8.063  17.854  0.00  0.00    +0.000 HD
ENDROOT
BRANCH  12  14
ATOM     14  C   UNL     1       2.811   6.060  18.283  0.00  0.00    +0.000 A 
ATOM     15  C   UNL     1       2.111   4.915  18.689  0.00  0.00    +0.000 A 
ATOM     16  C   UNL     1       2.691   3.638  18.584  0.00  0.00    +0.000 A 
ATOM     17  C   UNL     1       3.993   3.522  18.073  0.00  0.00    +0.000 A 
ATOM     18  C   UNL     1       4.696   4.655  17.660  0.00  0.00    +0.000 A 
ATOM     19  C   UNL     1       4.101   5.916  17.750  0.00  0.00    +0.000 A 
ATOM     20 CL   UNL     1       5.021   7.297  17.262  0.00  0.00    +0.000 Cl
BRANCH  16  21
ATOM     21  C   UNL     1       1.940   2.398  19.011  0.00  0.00    +0.000 C 
ATOM     22  F   UNL     1       0.674   2.319  18.519  0.00  0.00    +0.000 F 
ATOM     23  F   UNL     1       2.566   1.256  18.608  0.00  0.00    +0.000 F 
ATOM     24  F   UNL     1       1.827   2.299  20.364  0.00  0.00    +0.000 F 
ENDBRANCH  16  21
ENDBRANCH  12  14
BRANCH   5  25
ATOM     25  O   UNL     1       0.172  13.698  20.840  0.00  0.00    +0.000 OA
BRANCH  25  26
ATOM     26  C   UNL     1      -1.221  13.724  21.266  0.00  0.00    +0.000 C 
ATOM     27  C   UNL     1      -2.020  12.576  20.632  0.00  0.00    +0.000 C 
ATOM     28  C   UNL     1      -1.214  13.507  22.790  0.00  0.00    +0.000 C 
ATOM     29  C   UNL     1      -1.862  15.094  20.998  0.00  0.00    +0.000 C 
ENDBRANCH  25  26
ENDBRANCH   5  25
TORSDOF 4
ENDMDL
MODEL 6
REMARK VINA RESULT:      -7.2      2.770      3.291
REMARK  Name = 
REMARK  8 active torsions:
REMARK  status: ('A' for Active; 'I' for Inactive)
REMARK    1  A    between atoms: C_1  and  C_2
REMARK    2  A    between atoms: C_5  and  O_7
REMARK    3  A    between atoms: O_7  and  C_8
REMARK    4  A    between atoms: C_8  and  C_9
REMARK    5  A    between atoms: C_8  and  C_10
REMARK    6  A    between atoms: C_8  and  C_11
REMARK    7  A    between atoms: N_17  and  C_18
REMARK    8  A    between atoms: C_20  and  C_21
REMARK                            x       y       z     vdW  Elec       q    Type
REMARK                         _______ _______ _______ _____ _____    ______ ____
ROOT
ATOM      1  C   UNL     1      -0.829  10.192  18.343  0.00  0.00    +0.000 C 
ATOM      2  C   UNL     1       0.676  10.095  18.625  0.00  0.00    +0.000 C 
ATOM      3  C   UNL     1       1.330  11.491  18.597  0.00  0.00    +0.000 C 
ATOM      4  N   UNL     1       0.895  12.298  19.738  0.00  0.00    +0.000 N 
ATOM      5  C   UNL     1       0.228  13.484  19.492  0.00  0.00    +0.000 C 
ATOM      6  O   UNL     1      -0.022  13.863  18.354  0.00  0.00    +0.000 OA
ATOM      7  C   UNL     1       1.108  11.698  21.052  0.00  0.00    +0.000 C 
ATOM      8  C   UNL     1       0.548  10.257  21.111  0.00  0.00    +0.000 C 
ATOM      9  N   UNL     1       0.952   9.458  19.936  0.00  0.00    +0.000 N 
ATOM     10  C   UNL     1       1.488   8.196  20.152  0.00  0.00    +0.000 C 
ATOM     11  O   UNL     1       1.514   7.689  21.272  0.00  0.00    +0.000 OA
ATOM     12  N   UNL     1       2.046   7.590  19.045  0.00  0.00    +0.000 N 
ATOM     13  H   UNL     1       2.534   8.228  18.429  0.00  0.00    +0.000 HD
ENDROOT
BRANCH  12  14
ATOM     14  C   UNL     1       2.636   6.297  19.111  0.00  0.00    +0.000 A 
ATOM     15  C   UNL     1       2.076   5.285  19.903  0.00  0.00    +0.000 A 
ATOM     16  C   UNL     1       2.668   4.010  19.971  0.00  0.00    +0.000 A 
ATOM     17  C   UNL     1       3.840   3.764  19.240  0.00  0.00    +0.000 A 
ATOM     18  C   UNL     1       4.401   4.763  18.443  0.00  0.00    +0.000 A 
ATOM     19  C   UNL     1       3.793   6.018  18.367  0.00  0.00    +0.000 A 
ATOM     20 CL   UNL     1       4.542   7.238  17.397  0.00  0.00    +0.000 Cl
BRANCH  16  21
ATOM     21  C   UNL     1       2.066   2.911  20.816  0.00  0.00    +0.000 C 
ATOM     22  F   UNL     1       1.799   1.767  20.130  0.00  0.00    +0.000 F 
ATOM     23  F   UNL     1       2.888   2.546  21.841  0.00  0.00    +0.000 F 
ATOM     24  F   UNL     1       0.894   3.285  21.399  0.00  0.00    +0.000 F 
ENDBRANCH  16  21
ENDBRANCH  12  14
BRANCH   5  25
ATOM     25  O   UNL     1      -0.108  14.173  20.620  0.00  0.00    +0.000 OA
BRANCH  25  26
ATOM     26  C   UNL     1      -1.509  14.222  21.019  0.00  0.00    +0.000 C 
ATOM     27  C   UNL     1      -2.309  13.071  20.392  0.00  0.00    +0.000 C 
ATOM     28  C   UNL     1      -1.532  14.034  22.547  0.00  0.00    +0.000 C 
ATOM     29  C   UNL     1      -2.130  15.593  20.713  0.00  0.00    +0.000 C 
ENDBRANCH  25  26
ENDBRANCH   5  25
TORSDOF 4
ENDMDL
MODEL 7
REMARK VINA RESULT:      -7.1      1.789      2.567
REMARK  Name = 
REMARK  8 active torsions:
REMARK  status: ('A' for Active; 'I' for Inactive)
REMARK    1  A    between atoms: C_1  and  C_2
REMARK    2  A    between atoms: C_5  and  O_7
REMARK    3  A    between atoms: O_7  and  C_8
REMARK    4  A    between atoms: C_8  and  C_9
REMARK    5  A    between atoms: C_8  and  C_10
REMARK    6  A    between atoms: C_8  and  C_11
REMARK    7  A    between atoms: N_17  and  C_18
REMARK    8  A    between atoms: C_20  and  C_21
REMARK                            x       y       z     vdW  Elec       q    Type
REMARK                         _______ _______ _______ _____ _____    ______ ____
ROOT
ATOM      1  C   UNL     1       1.983   9.258  22.374  0.00  0.00    +0.000 C 
ATOM      2  C   UNL     1       1.068   8.498  21.405  0.00  0.00    +0.000 C 
ATOM      3  C   UNL     1      -0.404   8.910  21.605  0.00  0.00    +0.000 C 
ATOM      4  N   UNL     1      -0.630  10.286  21.162  0.00  0.00    +0.000 N 
ATOM      5  C   UNL     1      -1.079  11.212  22.086  0.00  0.00    +0.000 C 
ATOM      6  O   UNL     1      -1.273  10.915  23.260  0.00  0.00    +0.000 OA
ATOM      7  C   UNL     1      -0.235  10.579  19.787  0.00  0.00    +0.000 C 
ATOM      8  C   UNL     1       1.210  10.105  19.502  0.00  0.00    +0.000 C 
ATOM      9  N   UNL     1       1.447   8.731  19.991  0.00  0.00    +0.000 N 
ATOM     10  C   UNL     1       2.038   7.819  19.127  0.00  0.00    +0.000 C 
ATOM     11  O   UNL     1       2.475   8.160  18.029  0.00  0.00    +0.000 OA
ATOM     12  N   UNL     1       2.035   6.507  19.552  0.00  0.00    +0.000 N 
ATOM     13  H   UNL     1       1.193   6.237  20.045  0.00  0.00    +0.000 HD
ENDROOT
BRANCH  12  14
ATOM     14  C   UNL     1       2.602   5.460  18.774  0.00  0.00    +0.000 A 
ATOM     15  C   UNL     1       3.648   5.710  17.875  0.00  0.00    +0.000 A 
ATOM     16  C   UNL     1       4.200   4.673  17.102  0.00  0.00    +0.000 A 
ATOM     17  C   UNL     1       3.680   3.375  17.233  0.00  0.00    +0.000 A 
ATOM     18  C   UNL     1       2.643   3.114  18.131  0.00  0.00    +0.000 A 
ATOM     19  C   UNL     1       2.118   4.149  18.909  0.00  0.00    +0.000 A 
ATOM     20 CL   UNL     1       0.809   3.790  19.980  0.00  0.00    +0.000 Cl
BRANCH  16  21
ATOM     21  C   UNL     1       5.333   4.933  16.137  0.00  0.00    +0.000 C 
ATOM     22  F   UNL     1       6.508   4.344  16.489  0.00  0.00    +0.000 F 
ATOM     23  F   UNL     1       5.052   4.477  14.883  0.00  0.00    +0.000 F 
ATOM     24  F   UNL     1       5.602   6.260  15.995  0.00  0.00    +0.000 F 
ENDBRANCH  16  21
ENDBRANCH  12  14
BRANCH   5  25
ATOM     25  O   UNL     1      -1.284  12.456  21.567  0.00  0.00    +0.000 OA
BRANCH  25  26
ATOM     26  C   UNL     1      -2.648  12.955  21.461  0.00  0.00    +0.000 C 
ATOM     27  C   UNL     1      -3.479  12.576  22.695  0.00  0.00    +0.000 C 
ATOM     28  C   UNL     1      -2.547  14.490  21.415  0.00  0.00    +0.000 C 
ATOM     29  C   UNL     1      -3.311  12.496  20.153  0.00  0.00    +0.000 C 
ENDBRANCH  25  26
ENDBRANCH   5  25
TORSDOF 4
ENDMDL
MODEL 8
REMARK VINA RESULT:      -7.1      1.866      2.679
REMARK  Name = 
REMARK  8 active torsions:
REMARK  status: ('A' for Active; 'I' for Inactive)
REMARK    1  A    between atoms: C_1  and  C_2
REMARK    2  A    between atoms: C_5  and  O_7
REMARK    3  A    between atoms: O_7  and  C_8
REMARK    4  A    between atoms: C_8  and  C_9
REMARK    5  A    between atoms: C_8  and  C_10
REMARK    6  A    between atoms: C_8  and  C_11
REMARK    7  A    between atoms: N_17  and  C_18
REMARK    8  A    between atoms: C_20  and  C_21
REMARK                            x       y       z     vdW  Elec       q    Type
REMARK                         _______ _______ _______ _____ _____    ______ ____
ROOT
ATOM      1  C   UNL     1       2.041   9.563  22.174  0.00  0.00    +0.000 C 
ATOM      2  C   UNL     1       1.137   8.645  21.340  0.00  0.00    +0.000 C 
ATOM      3  C   UNL     1      -0.348   8.892  21.671  0.00  0.00    +0.000 C 
ATOM      4  N   UNL     1      -0.783  10.205  21.190  0.00  0.00    +0.000 N 
ATOM      5  C   UNL     1      -1.251  11.124  22.110  0.00  0.00    +0.000 C 
ATOM      6  O   UNL     1      -1.293  10.876  23.310  0.00  0.00    +0.000 OA
ATOM      7  C   UNL     1      -0.561  10.460  19.769  0.00  0.00    +0.000 C 
ATOM      8  C   UNL     1       0.897  10.143  19.360  0.00  0.00    +0.000 C 
ATOM      9  N   UNL     1       1.347   8.837  19.885  0.00  0.00    +0.000 N 
ATOM     10  C   UNL     1       1.959   7.952  19.009  0.00  0.00    +0.000 C 
ATOM     11  O   UNL     1       2.243   8.277  17.857  0.00  0.00    +0.000 OA
ATOM     12  N   UNL     1       2.158   6.676  19.494  0.00  0.00    +0.000 N 
ATOM     13  H   UNL     1       1.406   6.339  20.083  0.00  0.00    +0.000 HD
ENDROOT
BRANCH  12  14
ATOM     14  C   UNL     1       2.771   5.658  18.712  0.00  0.00    +0.000 A 
ATOM     15  C   UNL     1       3.793   5.962  17.800  0.00  0.00    +0.000 A 
ATOM     16  C   UNL     1       4.391   4.953  17.023  0.00  0.00    +0.000 A 
ATOM     17  C   UNL     1       3.943   3.631  17.163  0.00  0.00    +0.000 A 
ATOM     18  C   UNL     1       2.931   3.317  18.072  0.00  0.00    +0.000 A 
ATOM     19  C   UNL     1       2.360   4.324  18.853  0.00  0.00    +0.000 A 
ATOM     20 CL   UNL     1       1.083   3.898  19.940  0.00  0.00    +0.000 Cl
BRANCH  16  21
ATOM     21  C   UNL     1       5.498   5.271  16.045  0.00  0.00    +0.000 C 
ATOM     22  F   UNL     1       5.771   4.265  15.170  0.00  0.00    +0.000 F 
ATOM     23  F   UNL     1       5.207   6.361  15.279  0.00  0.00    +0.000 F 
ATOM     24  F   UNL     1       6.674   5.561  16.666  0.00  0.00    +0.000 F 
ENDBRANCH  16  21
ENDBRANCH  12  14
BRANCH   5  25
ATOM     25  O   UNL     1      -1.655  12.302  21.557  0.00  0.00    +0.000 OA
BRANCH  25  26
ATOM     26  C   UNL     1      -0.908  13.515  21.866  0.00  0.00    +0.000 C 
ATOM     27  C   UNL     1       0.589  13.337  21.574  0.00  0.00    +0.000 C 
ATOM     28  C   UNL     1      -1.445  14.608  20.925  0.00  0.00    +0.000 C 
ATOM     29  C   UNL     1      -1.167  13.979  23.308  0.00  0.00    +0.000 C 
ENDBRANCH  25  26
ENDBRANCH   5  25
TORSDOF 4
ENDMDL
MODEL 9
REMARK VINA RESULT:      -7.1      1.846      2.791
REMARK  Name = 
REMARK  8 active torsions:
REMARK  status: ('A' for Active; 'I' for Inactive)
REMARK    1  A    between atoms: C_1  and  C_2
REMARK    2  A    between atoms: C_5  and  O_7
REMARK    3  A    between atoms: O_7  and  C_8
REMARK    4  A    between atoms: C_8  and  C_9
REMARK    5  A    between atoms: C_8  and  C_10
REMARK    6  A    between atoms: C_8  and  C_11
REMARK    7  A    between atoms: N_17  and  C_18
REMARK    8  A    between atoms: C_20  and  C_21
REMARK                            x       y       z     vdW  Elec       q    Type
REMARK                         _______ _______ _______ _____ _____    ______ ____
ROOT
ATOM      1  C   UNL     1       2.063   9.290  22.440  0.00  0.00    +0.000 C 
ATOM      2  C   UNL     1       1.115   8.539  21.495  0.00  0.00    +0.000 C 
ATOM      3  C   UNL     1      -0.350   8.947  21.751  0.00  0.00    +0.000 C 
ATOM      4  N   UNL     1      -0.592  10.329  21.330  0.00  0.00    +0.000 N 
ATOM      5  C   UNL     1      -1.009  11.244  22.279  0.00  0.00    +0.000 C 
ATOM      6  O   UNL     1      -1.162  10.935  23.455  0.00  0.00    +0.000 OA
ATOM      7  C   UNL     1      -0.245  10.636  19.946  0.00  0.00    +0.000 C 
ATOM      8  C   UNL     1       1.189  10.166  19.606  0.00  0.00    +0.000 C 
ATOM      9  N   UNL     1       1.444   8.788  20.071  0.00  0.00    +0.000 N 
ATOM     10  C   UNL     1       2.006   7.886  19.178  0.00  0.00    +0.000 C 
ATOM     11  O   UNL     1       2.404   8.239  18.069  0.00  0.00    +0.000 OA
ATOM     12  N   UNL     1       2.018   6.569  19.590  0.00  0.00    +0.000 N 
ATOM     13  H   UNL     1       1.194   6.294  20.109  0.00  0.00    +0.000 HD
ENDROOT
BRANCH  12  14
ATOM     14  C   UNL     1       2.559   5.531  18.782  0.00  0.00    +0.000 A 
ATOM     15  C   UNL     1       3.568   5.793  17.845  0.00  0.00    +0.000 A 
ATOM     16  C   UNL     1       4.093   4.764  17.042  0.00  0.00    +0.000 A 
ATOM     17  C   UNL     1       3.585   3.464  17.183  0.00  0.00    +0.000 A 
ATOM     18  C   UNL     1       2.585   3.191  18.117  0.00  0.00    +0.000 A 
ATOM     19  C   UNL     1       2.086   4.217  18.924  0.00  0.00    +0.000 A 
ATOM     20 CL   UNL     1       0.821   3.843  20.042  0.00  0.00    +0.000 Cl
BRANCH  16  21
ATOM     21  C   UNL     1       5.187   5.037  16.035  0.00  0.00    +0.000 C 
ATOM     22  F   UNL     1       5.135   6.279  15.482  0.00  0.00    +0.000 F 
ATOM     23  F   UNL     1       6.429   4.929  16.588  0.00  0.00    +0.000 F 
ATOM     24  F   UNL     1       5.169   4.158  14.995  0.00  0.00    +0.000 F 
ENDBRANCH  16  21
ENDBRANCH  12  14
BRANCH   5  25
ATOM     25  O   UNL     1      -1.233  12.493  21.781  0.00  0.00    +0.000 OA
BRANCH  25  26
ATOM     26  C   UNL     1      -2.575  13.052  21.868  0.00  0.00    +0.000 C 
ATOM     27  C   UNL     1      -2.535  14.582  21.994  0.00  0.00    +0.000 C 
ATOM     28  C   UNL     1      -3.277  12.707  20.542  0.00  0.00    +0.000 C 
ATOM     29  C   UNL     1      -3.381  12.398  23.001  0.00  0.00    +0.000 C 
ENDBRANCH  25  26
ENDBRANCH   5  25
TORSDOF 4
ENDMDL
