MODEL 1
REMARK VINA RESULT:      -7.7      0.000      0.000
REMARK  Name = 
REMARK  4 active torsions:
REMARK  status: ('A' for Active; 'I' for Inactive)
REMARK    1  A    between atoms: C_1  and  N_2
REMARK    2  A    between atoms: C_3  and  C_5
REMARK    3  A    between atoms: C_5  and  N_6
REMARK    4  A    between atoms: C_9  and  C_10
REMARK                            x       y       z     vdW  Elec       q    Type
REMARK                         _______ _______ _______ _____ _____    ______ ____
ROOT
ATOM      1  N   UNL     1       1.537   7.144  19.956  0.00  0.00    +0.000 NA
ATOM      2  C   UNL     1       2.310   7.469  18.744  0.00  0.00    +0.000 C 
ATOM      3  C   UNL     1       2.338   6.325  17.726  0.00  0.00    +0.000 C 
ATOM      4  C   UNL     1       2.796   4.994  18.337  0.00  0.00    +0.000 C 
ATOM      5  C   UNL     1       1.948   4.711  19.576  0.00  0.00    +0.000 C 
ATOM      6  C   UNL     1       1.964   5.874  20.569  0.00  0.00    +0.000 C 
ENDROOT
BRANCH   4   7
ATOM      7  C   UNL     1       4.269   4.981  18.637  0.00  0.00    +0.000 A 
ATOM      8  N   UNL     1       4.837   5.194  19.814  0.00  0.00    +0.000 NA
ATOM      9  N   UNL     1       6.205   5.121  19.676  0.00  0.00    +0.000 NA
ATOM     10  C   UNL     1       6.435   4.866  18.412  0.00  0.00    +0.000 A 
ATOM     11  C   UNL     1       7.678   4.700  17.730  0.00  0.00    +0.000 A 
ATOM     12  N   UNL     1       7.720   4.449  16.447  0.00  0.00    +0.000 NA
ATOM     13  C   UNL     1       6.511   4.348  15.774  0.00  0.00    +0.000 A 
ATOM     14  C   UNL     1       5.303   4.492  16.354  0.00  0.00    +0.000 A 
ATOM     15  N   UNL     1       5.267   4.761  17.712  0.00  0.00    +0.000 N 
ENDBRANCH   4   7
BRANCH   1  16
ATOM     16  C   UNL     1       1.711   8.266  20.927  0.00  0.00    +0.000 C 
BRANCH  16  19
ATOM     17  C   UNL     1       0.234   9.369  23.183  0.00  0.00    +0.000 C 
ATOM     18  N   UNL     1       0.107   9.971  21.857  0.00  0.00    +0.000 N 
ATOM     19  C   UNL     1       0.702   9.412  20.717  0.00  0.00    +0.000 C 
ATOM     20  O   UNL     1       0.458   9.736  19.552  0.00  0.00    +0.000 OA
ATOM     21  C   UNL     1      -0.554  11.194  21.659  0.00  0.00    +0.000 A 
ATOM     22  N   UNL     1      -0.475  11.981  20.611  0.00  0.00    +0.000 NA
ATOM     23  C   UNL     1      -1.267  13.097  20.774  0.00  0.00    +0.000 A 
ATOM     24  C   UNL     1      -1.957  13.159  21.963  0.00  0.00    +0.000 A 
ATOM     25  S   UNL     1      -1.562  11.799  22.921  0.00  0.00    +0.000 S 
ENDBRANCH  16  19
ENDBRANCH   1  16
TORSDOF 3
ENDMDL
MODEL 2
REMARK VINA RESULT:      -7.1      1.264      1.705
REMARK  Name = 
REMARK  4 active torsions:
REMARK  status: ('A' for Active; 'I' for Inactive)
REMARK    1  A    between atoms: C_1  and  N_2
REMARK    2  A    between atoms: C_3  and  C_5
REMARK    3  A    between atoms: C_5  and  N_6
REMARK    4  A    between atoms: C_9  and  C_10
REMARK                            x       y       z     vdW  Elec       q    Type
REMARK                         _______ _______ _______ _____ _____    ______ ____
ROOT
ATOM      1  N   UNL     1       1.859   6.743  19.231  0.00  0.00    +0.000 NA
ATOM      2  C   UNL     1       2.297   6.244  17.914  0.00  0.00    +0.000 C 
ATOM      3  C   UNL     1       2.378   4.716  17.848  0.00  0.00    +0.000 C 
ATOM      4  C   UNL     1       3.223   4.115  18.980  0.00  0.00    +0.000 C 
ATOM      5  C   UNL     1       2.710   4.659  20.312  0.00  0.00    +0.000 C 
ATOM      6  C   UNL     1       2.661   6.187  20.334  0.00  0.00    +0.000 C 
ENDROOT
BRANCH   4   7
ATOM      7  C   UNL     1       4.693   4.365  18.787  0.00  0.00    +0.000 A 
ATOM      8  N   UNL     1       5.569   4.681  19.729  0.00  0.00    +0.000 NA
ATOM      9  N   UNL     1       6.808   4.850  19.153  0.00  0.00    +0.000 NA
ATOM     10  C   UNL     1       6.653   4.633  17.872  0.00  0.00    +0.000 A 
ATOM     11  C   UNL     1       7.615   4.686  16.817  0.00  0.00    +0.000 A 
ATOM     12  N   UNL     1       7.277   4.439  15.578  0.00  0.00    +0.000 NA
ATOM     13  C   UNL     1       5.950   4.122  15.326  0.00  0.00    +0.000 A 
ATOM     14  C   UNL     1       4.992   4.054  16.271  0.00  0.00    +0.000 A 
ATOM     15  N   UNL     1       5.356   4.319  17.581  0.00  0.00    +0.000 N 
ENDBRANCH   4   7
BRANCH   1  16
ATOM     16  C   UNL     1       1.966   8.232  19.217  0.00  0.00    +0.000 C 
BRANCH  16  19
ATOM     17  C   UNL     1       1.201  11.043  19.165  0.00  0.00    +0.000 C 
ATOM     18  N   UNL     1       0.897  10.221  20.334  0.00  0.00    +0.000 N 
ATOM     19  C   UNL     1       1.343   8.897  20.460  0.00  0.00    +0.000 C 
ATOM     20  O   UNL     1       1.313   8.228  21.496  0.00  0.00    +0.000 OA
ATOM     21  C   UNL     1       0.067  10.683  21.369  0.00  0.00    +0.000 A 
ATOM     22  N   UNL     1      -0.527   9.965  22.294  0.00  0.00    +0.000 NA
ATOM     23  C   UNL     1      -1.260  10.766  23.141  0.00  0.00    +0.000 A 
ATOM     24  C   UNL     1      -1.224  12.111  22.856  0.00  0.00    +0.000 A 
ATOM     25  S   UNL     1      -0.279  12.370  21.455  0.00  0.00    +0.000 S 
ENDBRANCH  16  19
ENDBRANCH   1  16
TORSDOF 3
ENDMDL
MODEL 3
REMARK VINA RESULT:      -7.1      1.469      1.567
REMARK  Name = 
REMARK  4 active torsions:
REMARK  status: ('A' for Active; 'I' for Inactive)
REMARK    1  A    between atoms: C_1  and  N_2
REMARK    2  A    between atoms: C_3  and  C_5
REMARK    3  A    between atoms: C_5  and  N_6
REMARK    4  A    between atoms: C_9  and  C_10
REMARK                            x       y       z     vdW  Elec       q    Type
REMARK                         _______ _______ _______ _____ _____    ______ ____
ROOT
ATOM      1  N   UNL     1       1.760   5.974  20.026  0.00  0.00    +0.000 NA
ATOM      2  C   UNL     1       2.191   6.215  18.637  0.00  0.00    +0.000 C 
ATOM      3  C   UNL     1       2.225   4.939  17.790  0.00  0.00    +0.000 C 
ATOM      4  C   UNL     1       3.042   3.814  18.439  0.00  0.00    +0.000 C 
ATOM      5  C   UNL     1       2.538   3.607  19.866  0.00  0.00    +0.000 C 
ATOM      6  C   UNL     1       2.537   4.904  20.676  0.00  0.00    +0.000 C 
ENDROOT
BRANCH   4   7
ATOM      7  C   UNL     1       4.521   4.082  18.389  0.00  0.00    +0.000 A 
ATOM      8  N   UNL     1       5.334   4.217  19.425  0.00  0.00    +0.000 NA
ATOM      9  N   UNL     1       6.607   4.476  18.970  0.00  0.00    +0.000 NA
ATOM     10  C   UNL     1       6.535   4.494  17.663  0.00  0.00    +0.000 A 
ATOM     11  C   UNL     1       7.562   4.727  16.698  0.00  0.00    +0.000 A 
ATOM     12  N   UNL     1       7.305   4.709  15.416  0.00  0.00    +0.000 NA
ATOM     13  C   UNL     1       5.999   4.453  15.027  0.00  0.00    +0.000 A 
ATOM     14  C   UNL     1       4.982   4.225  15.882  0.00  0.00    +0.000 A 
ATOM     15  N   UNL     1       5.261   4.248  17.238  0.00  0.00    +0.000 N 
ENDBRANCH   4   7
BRANCH   1  16
ATOM     16  C   UNL     1       1.914   7.252  20.784  0.00  0.00    +0.000 C 
BRANCH  16  19
ATOM     17  C   UNL     1      -0.292   8.883  21.764  0.00  0.00    +0.000 C 
ATOM     18  N   UNL     1       0.451   9.292  20.573  0.00  0.00    +0.000 N 
ATOM     19  C   UNL     1       1.443   8.487  19.993  0.00  0.00    +0.000 C 
ATOM     20  O   UNL     1       1.947   8.665  18.880  0.00  0.00    +0.000 OA
ATOM     21  C   UNL     1       0.271  10.554  19.984  0.00  0.00    +0.000 A 
ATOM     22  N   UNL     1       1.068  11.155  19.131  0.00  0.00    +0.000 NA
ATOM     23  C   UNL     1       0.563  12.385  18.771  0.00  0.00    +0.000 A 
ATOM     24  C   UNL     1      -0.634  12.724  19.359  0.00  0.00    +0.000 A 
ATOM     25  S   UNL     1      -1.113  11.480  20.430  0.00  0.00    +0.000 S 
ENDBRANCH  16  19
ENDBRANCH   1  16
TORSDOF 3
ENDMDL
MODEL 4
REMARK VINA RESULT:      -6.9      1.754      2.515
REMARK  Name = 
REMARK  4 active torsions:
REMARK  status: ('A' for Active; 'I' for Inactive)
REMARK    1  A    between atoms: C_1  and  N_2
REMARK    2  A    between atoms: C_3  and  C_5
REMARK    3  A    between atoms: C_5  and  N_6
REMARK    4  A    between atoms: C_9  and  C_10
REMARK                            x       y       z     vdW  Elec       q    Type
REMARK                         _______ _______ _______ _____ _____    ______ ____
ROOT
ATOM      1  N   UNL     1       2.492   5.852  18.985  0.00  0.00    +0.000 NA
ATOM      2  C   UNL     1       2.643   5.283  17.633  0.00  0.00    +0.000 C 
ATOM      3  C   UNL     1       3.062   3.810  17.646  0.00  0.00    +0.000 C 
ATOM      4  C   UNL     1       4.310   3.552  18.501  0.00  0.00    +0.000 C 
ATOM      5  C   UNL     1       4.084   4.153  19.887  0.00  0.00    +0.000 C 
ATOM      6  C   UNL     1       3.683   5.627  19.822  0.00  0.00    +0.000 C 
ENDROOT
BRANCH   4   7
ATOM      7  C   UNL     1       5.562   4.072  17.850  0.00  0.00    +0.000 A 
ATOM      8  N   UNL     1       6.644   4.522  18.467  0.00  0.00    +0.000 NA
ATOM      9  N   UNL     1       7.564   4.928  17.527  0.00  0.00    +0.000 NA
ATOM     10  C   UNL     1       7.016   4.716  16.358  0.00  0.00    +0.000 A 
ATOM     11  C   UNL     1       7.533   4.969  15.051  0.00  0.00    +0.000 A 
ATOM     12  N   UNL     1       6.835   4.693  13.980  0.00  0.00    +0.000 NA
ATOM     13  C   UNL     1       5.574   4.144  14.160  0.00  0.00    +0.000 A 
ATOM     14  C   UNL     1       5.025   3.880  15.362  0.00  0.00    +0.000 A 
ATOM     15  N   UNL     1       5.768   4.177  16.491  0.00  0.00    +0.000 N 
ENDBRANCH   4   7
BRANCH   1  16
ATOM     16  C   UNL     1       2.235   7.316  18.841  0.00  0.00    +0.000 C 
BRANCH  16  19
ATOM     17  C   UNL     1       1.372  10.099  18.841  0.00  0.00    +0.000 C 
ATOM     18  N   UNL     1       1.188   9.273  20.033  0.00  0.00    +0.000 N 
ATOM     19  C   UNL     1       1.688   7.966  20.127  0.00  0.00    +0.000 C 
ATOM     20  O   UNL     1       1.762   7.302  21.164  0.00  0.00    +0.000 OA
ATOM     21  C   UNL     1       0.426   9.712  21.128  0.00  0.00    +0.000 A 
ATOM     22  N   UNL     1      -0.069   8.979  22.098  0.00  0.00    +0.000 NA
ATOM     23  C   UNL     1      -0.761   9.759  22.998  0.00  0.00    +0.000 A 
ATOM     24  C   UNL     1      -0.794  11.103  22.707  0.00  0.00    +0.000 A 
ATOM     25  S   UNL     1       0.030  11.387  21.237  0.00  0.00    +0.000 S 
ENDBRANCH  16  19
ENDBRANCH   1  16
TORSDOF 3
ENDMDL
MODEL 5
REMARK VINA RESULT:      -6.8      1.595      1.888
REMARK  Name = 
REMARK  4 active torsions:
REMARK  status: ('A' for Active; 'I' for Inactive)
REMARK    1  A    between atoms: C_1  and  N_2
REMARK    2  A    between atoms: C_3  and  C_5
REMARK    3  A    between atoms: C_5  and  N_6
REMARK    4  A    between atoms: C_9  and  C_10
REMARK                            x       y       z     vdW  Elec       q    Type
REMARK                         _______ _______ _______ _____ _____    ______ ____
ROOT
ATOM      1  N   UNL     1       1.800   7.420  18.803  0.00  0.00    +0.000 NA
ATOM      2  C   UNL     1       2.320   6.724  17.612  0.00  0.00    +0.000 C 
ATOM      3  C   UNL     1       2.276   5.199  17.741  0.00  0.00    +0.000 C 
ATOM      4  C   UNL     1       2.951   4.689  19.021  0.00  0.00    +0.000 C 
ATOM      5  C   UNL     1       2.359   5.438  20.215  0.00  0.00    +0.000 C 
ATOM      6  C   UNL     1       2.440   6.955  20.046  0.00  0.00    +0.000 C 
ENDROOT
BRANCH   4   7
ATOM      7  C   UNL     1       4.449   4.804  18.960  0.00  0.00    +0.000 A 
ATOM      8  N   UNL     1       5.253   5.173  19.945  0.00  0.00    +0.000 NA
ATOM      9  N   UNL     1       6.552   5.176  19.491  0.00  0.00    +0.000 NA
ATOM     10  C   UNL     1       6.505   4.807  18.236  0.00  0.00    +0.000 A 
ATOM     11  C   UNL     1       7.566   4.654  17.292  0.00  0.00    +0.000 A 
ATOM     12  N   UNL     1       7.331   4.275  16.062  0.00  0.00    +0.000 NA
ATOM     13  C   UNL     1       6.013   4.026  15.709  0.00  0.00    +0.000 A 
ATOM     14  C   UNL     1       4.965   4.151  16.547  0.00  0.00    +0.000 A 
ATOM     15  N   UNL     1       5.221   4.555  17.846  0.00  0.00    +0.000 N 
ENDBRANCH   4   7
BRANCH   1  16
ATOM     16  C   UNL     1       2.036   8.883  18.621  0.00  0.00    +0.000 C 
BRANCH  16  19
ATOM     17  C   UNL     1       2.105  11.784  18.358  0.00  0.00    +0.000 C 
ATOM     18  N   UNL     1       1.027  11.140  19.107  0.00  0.00    +0.000 N 
ATOM     19  C   UNL     1       1.009   9.761  19.362  0.00  0.00    +0.000 C 
ATOM     20  O   UNL     1       0.260   9.192  20.161  0.00  0.00    +0.000 OA
ATOM     21  C   UNL     1      -0.099  11.854  19.547  0.00  0.00    +0.000 A 
ATOM     22  N   UNL     1      -1.250  11.361  19.941  0.00  0.00    +0.000 NA
ATOM     23  C   UNL     1      -2.118  12.369  20.301  0.00  0.00    +0.000 A 
ATOM     24  C   UNL     1      -1.619  13.645  20.179  0.00  0.00    +0.000 A 
ATOM     25  S   UNL     1      -0.031  13.577  19.549  0.00  0.00    +0.000 S 
ENDBRANCH  16  19
ENDBRANCH   1  16
TORSDOF 3
ENDMDL
MODEL 6
REMARK VINA RESULT:      -6.8      3.467      8.850
REMARK  Name = 
REMARK  4 active torsions:
REMARK  status: ('A' for Active; 'I' for Inactive)
REMARK    1  A    between atoms: C_1  and  N_2
REMARK    2  A    between atoms: C_3  and  C_5
REMARK    3  A    between atoms: C_5  and  N_6
REMARK    4  A    between atoms: C_9  and  C_10
REMARK                            x       y       z     vdW  Elec       q    Type
REMARK                         _______ _______ _______ _____ _____    ______ ____
ROOT
ATOM      1  N   UNL     1       1.718   8.411  20.116  0.00  0.00    +0.000 NA
ATOM      2  C   UNL     1       1.627   8.492  18.646  0.00  0.00    +0.000 C 
ATOM      3  C   UNL     1       1.726   9.925  18.117  0.00  0.00    +0.000 C 
ATOM      4  C   UNL     1       0.729  10.879  18.789  0.00  0.00    +0.000 C 
ATOM      5  C   UNL     1       0.884  10.757  20.304  0.00  0.00    +0.000 C 
ATOM      6  C   UNL     1       0.763   9.311  20.785  0.00  0.00    +0.000 C 
ENDROOT
BRANCH   4   7
ATOM      7  C   UNL     1      -0.685  10.636  18.337  0.00  0.00    +0.000 A 
ATOM      8  N   UNL     1      -1.080   9.783  17.405  0.00  0.00    +0.000 NA
ATOM      9  N   UNL     1      -2.446   9.868  17.265  0.00  0.00    +0.000 NA
ATOM     10  C   UNL     1      -2.849  10.775  18.118  0.00  0.00    +0.000 A 
ATOM     11  C   UNL     1      -4.168  11.259  18.376  0.00  0.00    +0.000 A 
ATOM     12  N   UNL     1      -4.387  12.183  19.275  0.00  0.00    +0.000 NA
ATOM     13  C   UNL     1      -3.292  12.675  19.970  0.00  0.00    +0.000 A 
ATOM     14  C   UNL     1      -2.023  12.264  19.778  0.00  0.00    +0.000 A 
ATOM     15  N   UNL     1      -1.798  11.288  18.822  0.00  0.00    +0.000 N 
ENDBRANCH   4   7
BRANCH   1  16
ATOM     16  C   UNL     1       1.457   6.996  20.516  0.00  0.00    +0.000 C 
BRANCH  16  19
ATOM     17  C   UNL     1       0.812   4.156  20.445  0.00  0.00    +0.000 C 
ATOM     18  N   UNL     1       2.002   4.656  19.760  0.00  0.00    +0.000 N 
ATOM     19  C   UNL     1       2.421   5.991  19.858  0.00  0.00    +0.000 C 
ATOM     20  O   UNL     1       3.518   6.424  19.495  0.00  0.00    +0.000 OA
ATOM     21  C   UNL     1       2.754   3.846  18.894  0.00  0.00    +0.000 A 
ATOM     22  N   UNL     1       3.631   4.237  17.999  0.00  0.00    +0.000 NA
ATOM     23  C   UNL     1       4.170   3.157  17.335  0.00  0.00    +0.000 A 
ATOM     24  C   UNL     1       3.696   1.927  17.731  0.00  0.00    +0.000 A 
ATOM     25  S   UNL     1       2.505   2.140  18.939  0.00  0.00    +0.000 S 
ENDBRANCH  16  19
ENDBRANCH   1  16
TORSDOF 3
ENDMDL
MODEL 7
REMARK VINA RESULT:      -6.7      3.469      8.790
REMARK  Name = 
REMARK  4 active torsions:
REMARK  status: ('A' for Active; 'I' for Inactive)
REMARK    1  A    between atoms: C_1  and  N_2
REMARK    2  A    between atoms: C_3  and  C_5
REMARK    3  A    between atoms: C_5  and  N_6
REMARK    4  A    between atoms: C_9  and  C_10
REMARK                            x       y       z     vdW  Elec       q    Type
REMARK                         _______ _______ _______ _____ _____    ______ ____
ROOT
ATOM      1  N   UNL     1       0.978   8.515  20.150  0.00  0.00    +0.000 NA
ATOM      2  C   UNL     1       0.812   9.175  21.458  0.00  0.00    +0.000 C 
ATOM      3  C   UNL     1      -0.424  10.076  21.523  0.00  0.00    +0.000 C 
ATOM      4  C   UNL     1      -0.481  11.094  20.376  0.00  0.00    +0.000 C 
ATOM      5  C   UNL     1      -0.317  10.347  19.054  0.00  0.00    +0.000 C 
ATOM      6  C   UNL     1       0.938   9.474  19.031  0.00  0.00    +0.000 C 
ENDROOT
BRANCH   4   7
ATOM      7  C   UNL     1       0.531  12.194  20.541  0.00  0.00    +0.000 A 
ATOM      8  N   UNL     1       1.626  12.154  21.285  0.00  0.00    +0.000 NA
ATOM      9  N   UNL     1       2.279  13.362  21.191  0.00  0.00    +0.000 NA
ATOM     10  C   UNL     1       1.561  14.109  20.391  0.00  0.00    +0.000 A 
ATOM     11  C   UNL     1       1.780  15.454  19.962  0.00  0.00    +0.000 A 
ATOM     12  N   UNL     1       0.945  16.051  19.151  0.00  0.00    +0.000 NA
ATOM     13  C   UNL     1      -0.159  15.330  18.721  0.00  0.00    +0.000 A 
ATOM     14  C   UNL     1      -0.426  14.060  19.085  0.00  0.00    +0.000 A 
ATOM     15  N   UNL     1       0.460  13.435  19.946  0.00  0.00    +0.000 N 
ENDBRANCH   4   7
BRANCH   1  16
ATOM     16  C   UNL     1       2.287   7.795  20.160  0.00  0.00    +0.000 C 
BRANCH  16  19
ATOM     17  C   UNL     1       3.500   6.614  17.789  0.00  0.00    +0.000 C 
ATOM     18  N   UNL     1       2.849   5.762  18.782  0.00  0.00    +0.000 N 
ATOM     19  C   UNL     1       2.151   6.286  19.880  0.00  0.00    +0.000 C 
ATOM     20  O   UNL     1       1.403   5.644  20.623  0.00  0.00    +0.000 OA
ATOM     21  C   UNL     1       2.954   4.363  18.741  0.00  0.00    +0.000 A 
ATOM     22  N   UNL     1       2.696   3.516  19.710  0.00  0.00    +0.000 NA
ATOM     23  C   UNL     1       2.913   2.219  19.300  0.00  0.00    +0.000 A 
ATOM     24  C   UNL     1       3.344   2.078  18.001  0.00  0.00    +0.000 A 
ATOM     25  S   UNL     1       3.525   3.623  17.292  0.00  0.00    +0.000 S 
ENDBRANCH  16  19
ENDBRANCH   1  16
TORSDOF 3
ENDMDL
MODEL 8
REMARK VINA RESULT:      -6.7      1.173      1.224
REMARK  Name = 
REMARK  4 active torsions:
REMARK  status: ('A' for Active; 'I' for Inactive)
REMARK    1  A    between atoms: C_1  and  N_2
REMARK    2  A    between atoms: C_3  and  C_5
REMARK    3  A    between atoms: C_5  and  N_6
REMARK    4  A    between atoms: C_9  and  C_10
REMARK                            x       y       z     vdW  Elec       q    Type
REMARK                         _______ _______ _______ _____ _____    ______ ____
ROOT
ATOM      1  N   UNL     1       1.508   7.309  19.697  0.00  0.00    +0.000 NA
ATOM      2  C   UNL     1       2.529   7.777  18.742  0.00  0.00    +0.000 C 
ATOM      3  C   UNL     1       2.743   6.813  17.571  0.00  0.00    +0.000 C 
ATOM      4  C   UNL     1       3.026   5.375  18.027  0.00  0.00    +0.000 C 
ATOM      5  C   UNL     1       1.928   4.948  19.000  0.00  0.00    +0.000 C 
ATOM      6  C   UNL     1       1.763   5.933  20.158  0.00  0.00    +0.000 C 
ENDROOT
BRANCH   4   7
ATOM      7  C   UNL     1       4.402   5.225  18.615  0.00  0.00    +0.000 A 
ATOM      8  N   UNL     1       4.760   4.393  19.581  0.00  0.00    +0.000 NA
ATOM      9  N   UNL     1       6.098   4.570  19.856  0.00  0.00    +0.000 NA
ATOM     10  C   UNL     1       6.520   5.509  19.047  0.00  0.00    +0.000 A 
ATOM     11  C   UNL     1       7.821   6.083  18.921  0.00  0.00    +0.000 A 
ATOM     12  N   UNL     1       8.064   7.027  18.049  0.00  0.00    +0.000 NA
ATOM     13  C   UNL     1       7.012   7.449  17.250  0.00  0.00    +0.000 A 
ATOM     14  C   UNL     1       5.761   6.952  17.316  0.00  0.00    +0.000 A 
ATOM     15  N   UNL     1       5.510   5.955  18.243  0.00  0.00    +0.000 N 
ENDBRANCH   4   7
BRANCH   1  16
ATOM     16  C   UNL     1       1.501   8.247  20.859  0.00  0.00    +0.000 C 
BRANCH  16  19
ATOM     17  C   UNL     1       0.183   9.410  23.183  0.00  0.00    +0.000 C 
ATOM     18  N   UNL     1      -0.009   9.998  21.859  0.00  0.00    +0.000 N 
ATOM     19  C   UNL     1       0.507   9.412  20.693  0.00  0.00    +0.000 C 
ATOM     20  O   UNL     1       0.202   9.727  19.540  0.00  0.00    +0.000 OA
ATOM     21  C   UNL     1      -0.654  11.233  21.683  0.00  0.00    +0.000 A 
ATOM     22  N   UNL     1      -0.620  12.005  20.622  0.00  0.00    +0.000 NA
ATOM     23  C   UNL     1      -1.377  13.140  20.816  0.00  0.00    +0.000 A 
ATOM     24  C   UNL     1      -1.994  13.231  22.042  0.00  0.00    +0.000 A 
ATOM     25  S   UNL     1      -1.573  11.875  22.993  0.00  0.00    +0.000 S 
ENDBRANCH  16  19
ENDBRANCH   1  16
TORSDOF 3
ENDMDL
MODEL 9
REMARK VINA RESULT:      -6.7      1.874      2.061
REMARK  Name = 
REMARK  4 active torsions:
REMARK  status: ('A' for Active; 'I' for Inactive)
REMARK    1  A    between atoms: C_1  and  N_2
REMARK    2  A    between atoms: C_3  and  C_5
REMARK    3  A    between atoms: C_5  and  N_6
REMARK    4  A    between atoms: C_9  and  C_10
REMARK                            x       y       z     vdW  Elec       q    Type
REMARK                         _______ _______ _______ _____ _____    ______ ____
ROOT
ATOM      1  N   UNL     1       1.744   6.640  19.822  0.00  0.00    +0.000 NA
ATOM      2  C   UNL     1       2.258   6.675  18.440  0.00  0.00    +0.000 C 
ATOM      3  C   UNL     1       2.214   5.309  17.750  0.00  0.00    +0.000 C 
ATOM      4  C   UNL     1       2.896   4.204  18.569  0.00  0.00    +0.000 C 
ATOM      5  C   UNL     1       2.310   4.214  19.980  0.00  0.00    +0.000 C 
ATOM      6  C   UNL     1       2.390   5.594  20.633  0.00  0.00    +0.000 C 
ENDROOT
BRANCH   4   7
ATOM      7  C   UNL     1       4.394   4.338  18.570  0.00  0.00    +0.000 A 
ATOM      8  N   UNL     1       5.175   4.448  19.634  0.00  0.00    +0.000 NA
ATOM      9  N   UNL     1       6.482   4.573  19.222  0.00  0.00    +0.000 NA
ATOM     10  C   UNL     1       6.463   4.536  17.914  0.00  0.00    +0.000 A 
ATOM     11  C   UNL     1       7.543   4.633  16.985  0.00  0.00    +0.000 A 
ATOM     12  N   UNL     1       7.336   4.580  15.695  0.00  0.00    +0.000 NA
ATOM     13  C   UNL     1       6.028   4.423  15.262  0.00  0.00    +0.000 A 
ATOM     14  C   UNL     1       4.962   4.325  16.081  0.00  0.00    +0.000 A 
ATOM     15  N   UNL     1       5.189   4.385  17.446  0.00  0.00    +0.000 N 
ENDBRANCH   4   7
BRANCH   1  16
ATOM     16  C   UNL     1       1.979   7.982  20.434  0.00  0.00    +0.000 C 
BRANCH  16  19
ATOM     17  C   UNL     1       2.128  10.308  18.687  0.00  0.00    +0.000 C 
ATOM     18  N   UNL     1       0.873   9.971  19.354  0.00  0.00    +0.000 N 
ATOM     19  C   UNL     1       0.776   8.933  20.293  0.00  0.00    +0.000 C 
ATOM     20  O   UNL     1      -0.182   8.739  21.047  0.00  0.00    +0.000 OA
ATOM     21  C   UNL     1      -0.333  10.615  19.034  0.00  0.00    +0.000 A 
ATOM     22  N   UNL     1      -1.551  10.212  19.316  0.00  0.00    +0.000 NA
ATOM     23  C   UNL     1      -2.486  11.105  18.842  0.00  0.00    +0.000 A 
ATOM     24  C   UNL     1      -1.972  12.202  18.189  0.00  0.00    +0.000 A 
ATOM     25  S   UNL     1      -0.268  12.082  18.130  0.00  0.00    +0.000 S 
ENDBRANCH  16  19
ENDBRANCH   1  16
TORSDOF 3
ENDMDL
