MODEL 1
REMARK VINA RESULT:      -8.4      0.000      0.000
REMARK  Name = 
REMARK  6 active torsions:
REMARK  status: ('A' for Active; 'I' for Inactive)
REMARK    1  A    between atoms: C_1  and  S_2
REMARK    2  A    between atoms: S_2  and  C_5
REMARK    3  A    between atoms: C_8  and  C_9
REMARK    4  A    between atoms: C_9  and  N_10
REMARK    5  A    between atoms: C_16  and  C_17
REMARK    6  A    between atoms: C_20  and  O_21
REMARK                            x       y       z     vdW  Elec       q    Type
REMARK                         _______ _______ _______ _____ _____    ______ ____
ROOT
ATOM      1  N   UNL     1       2.145   6.269  20.545  0.00  0.00    +0.000 N 
ATOM      2  C   UNL     1       1.859   7.463  19.934  0.00  0.00    +0.000 A 
ATOM      3  N   UNL     1       2.070   7.607  18.643  0.00  0.00    +0.000 NA
ATOM      4  C   UNL     1       1.803   8.828  18.058  0.00  0.00    +0.000 A 
ATOM      5  C   UNL     1       1.264   9.875  18.700  0.00  0.00    +0.000 A 
ATOM      6  N   UNL     1       0.953   9.736  20.046  0.00  0.00    +0.000 N 
ATOM      7  C   UNL     1       0.339  10.561  20.976  0.00  0.00    +0.000 A 
ATOM      8  C   UNL     1       0.399   9.822  22.152  0.00  0.00    +0.000 A 
ATOM      9  N   UNL     1       0.989   8.595  21.973  0.00  0.00    +0.000 NA
ATOM     10  C   UNL     1       1.289   8.573  20.692  0.00  0.00    +0.000 A 
ATOM     11  H   UNL     1       2.595   6.329  21.452  0.00  0.00    +0.000 HD
ENDROOT
BRANCH   7  12
ATOM     12  C   UNL     1      -0.201  11.904  20.736  0.00  0.00    +0.000 A 
ATOM     13  C   UNL     1      -1.571  12.129  20.540  0.00  0.00    +0.000 A 
ATOM     14  C   UNL     1      -2.060  13.404  20.239  0.00  0.00    +0.000 A 
ATOM     15  C   UNL     1      -1.178  14.475  20.181  0.00  0.00    +0.000 A 
ATOM     16  C   UNL     1       0.175  14.291  20.428  0.00  0.00    +0.000 A 
ATOM     17  C   UNL     1       0.663  13.010  20.705  0.00  0.00    +0.000 A 
BRANCH  15  18
ATOM     18  O   UNL     1      -1.609  15.733  19.888  0.00  0.00    +0.000 OA
ATOM     19  H   UNL     1      -2.484  15.675  19.472  0.00  0.00    +0.000 HD
ENDBRANCH  15  18
ENDBRANCH   7  12
BRANCH   1  20
ATOM     20  C   UNL     1       2.203   5.008  19.856  0.00  0.00    +0.000 C 
BRANCH  20  24
ATOM     21  C   UNL     1       5.727   4.944  17.362  0.00  0.00    +0.000 A 
ATOM     22  C   UNL     1       4.496   4.569  16.822  0.00  0.00    +0.000 A 
ATOM     23  C   UNL     1       3.361   4.580  17.636  0.00  0.00    +0.000 A 
ATOM     24  C   UNL     1       3.447   4.953  18.991  0.00  0.00    +0.000 A 
ATOM     25  C   UNL     1       4.697   5.300  19.517  0.00  0.00    +0.000 A 
ATOM     26  C   UNL     1       5.836   5.294  18.713  0.00  0.00    +0.000 A 
BRANCH  21  28
ATOM     27  C   UNL     1       6.639   4.149  14.861  0.00  0.00    +0.000 C 
ATOM     28  S   UNL     1       7.182   4.959  16.336  0.00  0.00    +0.000 S 
ATOM     29  O   UNL     1       8.180   4.115  16.977  0.00  0.00    +0.000 OA
ATOM     30  O   UNL     1       7.479   6.339  16.013  0.00  0.00    +0.000 OA
ENDBRANCH  21  28
ENDBRANCH  20  24
ENDBRANCH   1  20
TORSDOF 5
ENDMDL
MODEL 2
REMARK VINA RESULT:      -8.3      3.874     10.186
REMARK  Name = 
REMARK  6 active torsions:
REMARK  status: ('A' for Active; 'I' for Inactive)
REMARK    1  A    between atoms: C_1  and  S_2
REMARK    2  A    between atoms: S_2  and  C_5
REMARK    3  A    between atoms: C_8  and  C_9
REMARK    4  A    between atoms: C_9  and  N_10
REMARK    5  A    between atoms: C_16  and  C_17
REMARK    6  A    between atoms: C_20  and  O_21
REMARK                            x       y       z     vdW  Elec       q    Type
REMARK                         _______ _______ _______ _____ _____    ______ ____
ROOT
ATOM      1  N   UNL     1       0.285  10.252  21.108  0.00  0.00    +0.000 N 
ATOM      2  C   UNL     1       0.942   9.754  20.011  0.00  0.00    +0.000 A 
ATOM      3  N   UNL     1       1.167  10.531  18.972  0.00  0.00    +0.000 NA
ATOM      4  C   UNL     1       1.802   9.998  17.869  0.00  0.00    +0.000 A 
ATOM      5  C   UNL     1       2.285   8.748  17.802  0.00  0.00    +0.000 A 
ATOM      6  N   UNL     1       2.137   7.923  18.908  0.00  0.00    +0.000 N 
ATOM      7  C   UNL     1       2.564   6.637  19.207  0.00  0.00    +0.000 A 
ATOM      8  C   UNL     1       2.020   6.401  20.464  0.00  0.00    +0.000 A 
ATOM      9  N   UNL     1       1.317   7.478  20.944  0.00  0.00    +0.000 NA
ATOM     10  C   UNL     1       1.428   8.379  19.991  0.00  0.00    +0.000 A 
ATOM     11  H   UNL     1      -0.406   9.640  21.528  0.00  0.00    +0.000 HD
ENDROOT
BRANCH   7  12
ATOM     12  C   UNL     1       3.369   5.760  18.350  0.00  0.00    +0.000 A 
ATOM     13  C   UNL     1       2.860   4.561  17.828  0.00  0.00    +0.000 A 
ATOM     14  C   UNL     1       3.665   3.701  17.075  0.00  0.00    +0.000 A 
ATOM     15  C   UNL     1       4.975   4.064  16.796  0.00  0.00    +0.000 A 
ATOM     16  C   UNL     1       5.486   5.272  17.248  0.00  0.00    +0.000 A 
ATOM     17  C   UNL     1       4.686   6.118  18.023  0.00  0.00    +0.000 A 
BRANCH  15  18
ATOM     18  O   UNL     1       5.795   3.257  16.067  0.00  0.00    +0.000 OA
ATOM     19  H   UNL     1       5.633   2.334  16.323  0.00  0.00    +0.000 HD
ENDBRANCH  15  18
ENDBRANCH   7  12
BRANCH   1  20
ATOM     20  C   UNL     1       0.232  11.649  21.447  0.00  0.00    +0.000 C 
BRANCH  20  24
ATOM     21  C   UNL     1      -3.860  12.676  22.368  0.00  0.00    +0.000 A 
ATOM     22  C   UNL     1      -3.381  12.860  21.071  0.00  0.00    +0.000 A 
ATOM     23  C   UNL     1      -2.053  12.537  20.780  0.00  0.00    +0.000 A 
ATOM     24  C   UNL     1      -1.194  12.041  21.780  0.00  0.00    +0.000 A 
ATOM     25  C   UNL     1      -1.691  11.890  23.080  0.00  0.00    +0.000 A 
ATOM     26  C   UNL     1      -3.015  12.207  23.380  0.00  0.00    +0.000 A 
BRANCH  21  28
ATOM     27  C   UNL     1      -6.436  12.433  21.354  0.00  0.00    +0.000 C 
ATOM     28  S   UNL     1      -5.555  13.059  22.755  0.00  0.00    +0.000 S 
ATOM     29  O   UNL     1      -5.686  14.509  22.762  0.00  0.00    +0.000 OA
ATOM     30  O   UNL     1      -5.930  12.277  23.914  0.00  0.00    +0.000 OA
ENDBRANCH  21  28
ENDBRANCH  20  24
ENDBRANCH   1  20
TORSDOF 5
ENDMDL
MODEL 3
REMARK VINA RESULT:      -8.2      3.928     10.338
REMARK  Name = 
REMARK  6 active torsions:
REMARK  status: ('A' for Active; 'I' for Inactive)
REMARK    1  A    between atoms: C_1  and  S_2
REMARK    2  A    between atoms: S_2  and  C_5
REMARK    3  A    between atoms: C_8  and  C_9
REMARK    4  A    between atoms: C_9  and  N_10
REMARK    5  A    between atoms: C_16  and  C_17
REMARK    6  A    between atoms: C_20  and  O_21
REMARK                            x       y       z     vdW  Elec       q    Type
REMARK                         _______ _______ _______ _____ _____    ______ ____
ROOT
ATOM      1  N   UNL     1       0.192  10.188  21.045  0.00  0.00    +0.000 N 
ATOM      2  C   UNL     1       0.911   9.661  20.002  0.00  0.00    +0.000 A 
ATOM      3  N   UNL     1       1.185  10.406  18.951  0.00  0.00    +0.000 NA
ATOM      4  C   UNL     1       1.883   9.844  17.902  0.00  0.00    +0.000 A 
ATOM      5  C   UNL     1       2.380   8.598  17.903  0.00  0.00    +0.000 A 
ATOM      6  N   UNL     1       2.181   7.808  19.026  0.00  0.00    +0.000 N 
ATOM      7  C   UNL     1       2.602   6.537  19.390  0.00  0.00    +0.000 A 
ATOM      8  C   UNL     1       1.993   6.337  20.624  0.00  0.00    +0.000 A 
ATOM      9  N   UNL     1       1.256   7.422  21.029  0.00  0.00    +0.000 NA
ATOM     10  C   UNL     1       1.410   8.291  20.054  0.00  0.00    +0.000 A 
ATOM     11  H   UNL     1      -0.515   9.583  21.447  0.00  0.00    +0.000 HD
ENDROOT
BRANCH   7  12
ATOM     12  C   UNL     1       3.459   5.641  18.607  0.00  0.00    +0.000 A 
ATOM     13  C   UNL     1       4.858   5.674  18.710  0.00  0.00    +0.000 A 
ATOM     14  C   UNL     1       5.663   4.865  17.903  0.00  0.00    +0.000 A 
ATOM     15  C   UNL     1       5.066   3.977  17.018  0.00  0.00    +0.000 A 
ATOM     16  C   UNL     1       3.683   3.881  16.938  0.00  0.00    +0.000 A 
ATOM     17  C   UNL     1       2.883   4.710  17.729  0.00  0.00    +0.000 A 
BRANCH  15  18
ATOM     18  O   UNL     1       5.810   3.171  16.211  0.00  0.00    +0.000 OA
ATOM     19  H   UNL     1       6.667   3.009  16.637  0.00  0.00    +0.000 HD
ENDBRANCH  15  18
ENDBRANCH   7  12
BRANCH   1  20
ATOM     20  C   UNL     1       0.108  11.595  21.333  0.00  0.00    +0.000 C 
BRANCH  20  24
ATOM     21  C   UNL     1      -3.909  12.710  22.461  0.00  0.00    +0.000 A 
ATOM     22  C   UNL     1      -3.039  12.204  23.427  0.00  0.00    +0.000 A 
ATOM     23  C   UNL     1      -1.744  11.833  23.055  0.00  0.00    +0.000 A 
ATOM     24  C   UNL     1      -1.313  11.954  21.720  0.00  0.00    +0.000 A 
ATOM     25  C   UNL     1      -2.212  12.440  20.763  0.00  0.00    +0.000 A 
ATOM     26  C   UNL     1      -3.506  12.814  21.124  0.00  0.00    +0.000 A 
BRANCH  21  28
ATOM     27  C   UNL     1      -5.293  14.768  23.713  0.00  0.00    +0.000 C 
ATOM     28  S   UNL     1      -5.555  13.210  22.918  0.00  0.00    +0.000 S 
ATOM     29  O   UNL     1      -6.039  12.267  23.916  0.00  0.00    +0.000 OA
ATOM     30  O   UNL     1      -6.299  13.441  21.698  0.00  0.00    +0.000 OA
ENDBRANCH  21  28
ENDBRANCH  20  24
ENDBRANCH   1  20
TORSDOF 5
ENDMDL
MODEL 4
REMARK VINA RESULT:      -8.2      3.870     10.239
REMARK  Name = 
REMARK  6 active torsions:
REMARK  status: ('A' for Active; 'I' for Inactive)
REMARK    1  A    between atoms: C_1  and  S_2
REMARK    2  A    between atoms: S_2  and  C_5
REMARK    3  A    between atoms: C_8  and  C_9
REMARK    4  A    between atoms: C_9  and  N_10
REMARK    5  A    between atoms: C_16  and  C_17
REMARK    6  A    between atoms: C_20  and  O_21
REMARK                            x       y       z     vdW  Elec       q    Type
REMARK                         _______ _______ _______ _____ _____    ______ ____
ROOT
ATOM      1  N   UNL     1       0.286  10.173  21.128  0.00  0.00    +0.000 N 
ATOM      2  C   UNL     1       0.940   9.694  20.021  0.00  0.00    +0.000 A 
ATOM      3  N   UNL     1       1.145  10.483  18.987  0.00  0.00    +0.000 NA
ATOM      4  C   UNL     1       1.777   9.969  17.875  0.00  0.00    +0.000 A 
ATOM      5  C   UNL     1       2.276   8.726  17.791  0.00  0.00    +0.000 A 
ATOM      6  N   UNL     1       2.149   7.889  18.891  0.00  0.00    +0.000 N 
ATOM      7  C   UNL     1       2.595   6.606  19.174  0.00  0.00    +0.000 A 
ATOM      8  C   UNL     1       2.066   6.352  20.434  0.00  0.00    +0.000 A 
ATOM      9  N   UNL     1       1.353   7.415  20.930  0.00  0.00    +0.000 NA
ATOM     10  C   UNL     1       1.444   8.325  19.985  0.00  0.00    +0.000 A 
ATOM     11  H   UNL     1      -0.393   9.548  21.549  0.00  0.00    +0.000 HD
ENDROOT
BRANCH   7  12
ATOM     12  C   UNL     1       3.404   5.748  18.302  0.00  0.00    +0.000 A 
ATOM     13  C   UNL     1       2.921   4.527  17.807  0.00  0.00    +0.000 A 
ATOM     14  C   UNL     1       3.732   3.687  17.038  0.00  0.00    +0.000 A 
ATOM     15  C   UNL     1       5.021   4.090  16.718  0.00  0.00    +0.000 A 
ATOM     16  C   UNL     1       5.504   5.319  17.144  0.00  0.00    +0.000 A 
ATOM     17  C   UNL     1       4.699   6.145  17.934  0.00  0.00    +0.000 A 
BRANCH  15  18
ATOM     18  O   UNL     1       5.846   3.303  15.973  0.00  0.00    +0.000 OA
ATOM     19  H   UNL     1       6.406   2.783  16.572  0.00  0.00    +0.000 HD
ENDBRANCH  15  18
ENDBRANCH   7  12
BRANCH   1  20
ATOM     20  C   UNL     1       0.217  11.566  21.480  0.00  0.00    +0.000 C 
BRANCH  20  24
ATOM     21  C   UNL     1      -3.846  12.753  22.332  0.00  0.00    +0.000 A 
ATOM     22  C   UNL     1      -3.065  12.197  23.346  0.00  0.00    +0.000 A 
ATOM     23  C   UNL     1      -1.755  11.804  23.063  0.00  0.00    +0.000 A 
ATOM     24  C   UNL     1      -1.220  11.951  21.769  0.00  0.00    +0.000 A 
ATOM     25  C   UNL     1      -2.031  12.487  20.761  0.00  0.00    +0.000 A 
ATOM     26  C   UNL     1      -3.340  12.884  21.034  0.00  0.00    +0.000 A 
BRANCH  21  28
ATOM     27  C   UNL     1      -5.957  14.173  21.216  0.00  0.00    +0.000 C 
ATOM     28  S   UNL     1      -5.511  13.282  22.677  0.00  0.00    +0.000 S 
ATOM     29  O   UNL     1      -5.451  14.225  23.784  0.00  0.00    +0.000 OA
ATOM     30  O   UNL     1      -6.341  12.098  22.758  0.00  0.00    +0.000 OA
ENDBRANCH  21  28
ENDBRANCH  20  24
ENDBRANCH   1  20
TORSDOF 5
ENDMDL
MODEL 5
REMARK VINA RESULT:      -8.1      2.701      3.493
REMARK  Name = 
REMARK  6 active torsions:
REMARK  status: ('A' for Active; 'I' for Inactive)
REMARK    1  A    between atoms: C_1  and  S_2
REMARK    2  A    between atoms: S_2  and  C_5
REMARK    3  A    between atoms: C_8  and  C_9
REMARK    4  A    between atoms: C_9  and  N_10
REMARK    5  A    between atoms: C_16  and  C_17
REMARK    6  A    between atoms: C_20  and  O_21
REMARK                            x       y       z     vdW  Elec       q    Type
REMARK                         _______ _______ _______ _____ _____    ______ ____
ROOT
ATOM      1  N   UNL     1       1.309   9.374  19.620  0.00  0.00    +0.000 N 
ATOM      2  C   UNL     1       0.669  10.559  19.887  0.00  0.00    +0.000 A 
ATOM      3  N   UNL     1       0.630  11.504  18.971  0.00  0.00    +0.000 NA
ATOM      4  C   UNL     1       0.007  12.697  19.274  0.00  0.00    +0.000 A 
ATOM      5  C   UNL     1      -0.639  12.945  20.424  0.00  0.00    +0.000 A 
ATOM      6  N   UNL     1      -0.687  11.943  21.384  0.00  0.00    +0.000 N 
ATOM      7  C   UNL     1      -1.308  11.830  22.619  0.00  0.00    +0.000 A 
ATOM      8  C   UNL     1      -0.893  10.584  23.075  0.00  0.00    +0.000 A 
ATOM      9  N   UNL     1      -0.084   9.937  22.175  0.00  0.00    +0.000 NA
ATOM     10  C   UNL     1      -0.000  10.775  21.165  0.00  0.00    +0.000 A 
ATOM     11  H   UNL     1       1.876   8.997  20.371  0.00  0.00    +0.000 HD
ENDROOT
BRANCH   7  12
ATOM     12  C   UNL     1      -2.164  12.832  23.264  0.00  0.00    +0.000 A 
ATOM     13  C   UNL     1      -3.537  12.622  23.456  0.00  0.00    +0.000 A 
ATOM     14  C   UNL     1      -4.352  13.617  24.005  0.00  0.00    +0.000 A 
ATOM     15  C   UNL     1      -3.782  14.815  24.413  0.00  0.00    +0.000 A 
ATOM     16  C   UNL     1      -2.416  15.027  24.290  0.00  0.00    +0.000 A 
ATOM     17  C   UNL     1      -1.609  14.039  23.717  0.00  0.00    +0.000 A 
BRANCH  15  18
ATOM     18  O   UNL     1      -4.537  15.813  24.951  0.00  0.00    +0.000 OA
ATOM     19  H   UNL     1      -5.465  15.670  24.706  0.00  0.00    +0.000 HD
ENDBRANCH  15  18
ENDBRANCH   7  12
BRANCH   1  20
ATOM     20  C   UNL     1       1.532   8.862  18.295  0.00  0.00    +0.000 C 
BRANCH  20  24
ATOM     21  C   UNL     1       4.496   5.728  18.484  0.00  0.00    +0.000 A 
ATOM     22  C   UNL     1       4.562   6.676  17.462  0.00  0.00    +0.000 A 
ATOM     23  C   UNL     1       3.594   7.681  17.399  0.00  0.00    +0.000 A 
ATOM     24  C   UNL     1       2.551   7.741  18.343  0.00  0.00    +0.000 A 
ATOM     25  C   UNL     1       2.491   6.764  19.343  0.00  0.00    +0.000 A 
ATOM     26  C   UNL     1       3.453   5.757  19.417  0.00  0.00    +0.000 A 
BRANCH  21  28
ATOM     27  C   UNL     1       6.140   4.140  16.905  0.00  0.00    +0.000 C 
ATOM     28  S   UNL     1       5.732   4.452  18.598  0.00  0.00    +0.000 S 
ATOM     29  O   UNL     1       5.088   3.263  19.136  0.00  0.00    +0.000 OA
ATOM     30  O   UNL     1       6.894   5.022  19.247  0.00  0.00    +0.000 OA
ENDBRANCH  21  28
ENDBRANCH  20  24
ENDBRANCH   1  20
TORSDOF 5
ENDMDL
MODEL 6
REMARK VINA RESULT:      -8.0      2.761      3.764
REMARK  Name = 
REMARK  6 active torsions:
REMARK  status: ('A' for Active; 'I' for Inactive)
REMARK    1  A    between atoms: C_1  and  S_2
REMARK    2  A    between atoms: S_2  and  C_5
REMARK    3  A    between atoms: C_8  and  C_9
REMARK    4  A    between atoms: C_9  and  N_10
REMARK    5  A    between atoms: C_16  and  C_17
REMARK    6  A    between atoms: C_20  and  O_21
REMARK                            x       y       z     vdW  Elec       q    Type
REMARK                         _______ _______ _______ _____ _____    ______ ____
ROOT
ATOM      1  N   UNL     1       1.222   9.526  19.711  0.00  0.00    +0.000 N 
ATOM      2  C   UNL     1       0.623  10.728  19.992  0.00  0.00    +0.000 A 
ATOM      3  N   UNL     1       0.664  11.704  19.110  0.00  0.00    +0.000 NA
ATOM      4  C   UNL     1       0.080  12.913  19.429  0.00  0.00    +0.000 A 
ATOM      5  C   UNL     1      -0.603  13.151  20.558  0.00  0.00    +0.000 A 
ATOM      6  N   UNL     1      -0.736  12.121  21.479  0.00  0.00    +0.000 N 
ATOM      7  C   UNL     1      -1.414  11.995  22.682  0.00  0.00    +0.000 A 
ATOM      8  C   UNL     1      -1.074  10.717  23.111  0.00  0.00    +0.000 A 
ATOM      9  N   UNL     1      -0.255  10.064  22.224  0.00  0.00    +0.000 NA
ATOM     10  C   UNL     1      -0.092  10.931  21.248  0.00  0.00    +0.000 A 
ATOM     11  H   UNL     1       1.739   9.098  20.471  0.00  0.00    +0.000 HD
ENDROOT
BRANCH   7  12
ATOM     12  C   UNL     1      -2.253  13.012  23.326  0.00  0.00    +0.000 A 
ATOM     13  C   UNL     1      -3.645  12.868  23.432  0.00  0.00    +0.000 A 
ATOM     14  C   UNL     1      -4.437  13.880  23.982  0.00  0.00    +0.000 A 
ATOM     15  C   UNL     1      -3.831  15.026  24.477  0.00  0.00    +0.000 A 
ATOM     16  C   UNL     1      -2.451  15.170  24.440  0.00  0.00    +0.000 A 
ATOM     17  C   UNL     1      -1.664  14.166  23.866  0.00  0.00    +0.000 A 
BRANCH  15  18
ATOM     18  O   UNL     1      -4.563  16.038  25.020  0.00  0.00    +0.000 OA
ATOM     19  H   UNL     1      -5.413  15.681  25.324  0.00  0.00    +0.000 HD
ENDBRANCH  15  18
ENDBRANCH   7  12
BRANCH   1  20
ATOM     20  C   UNL     1       1.479   9.049  18.379  0.00  0.00    +0.000 C 
BRANCH  20  24
ATOM     21  C   UNL     1       4.056   5.586  18.489  0.00  0.00    +0.000 A 
ATOM     22  C   UNL     1       3.131   5.787  19.514  0.00  0.00    +0.000 A 
ATOM     23  C   UNL     1       2.307   6.915  19.480  0.00  0.00    +0.000 A 
ATOM     24  C   UNL     1       2.408   7.852  18.434  0.00  0.00    +0.000 A 
ATOM     25  C   UNL     1       3.362   7.642  17.431  0.00  0.00    +0.000 A 
ATOM     26  C   UNL     1       4.188   6.519  17.455  0.00  0.00    +0.000 A 
BRANCH  21  28
ATOM     27  C   UNL     1       4.263   3.055  19.617  0.00  0.00    +0.000 C 
ATOM     28  S   UNL     1       5.100   4.143  18.501  0.00  0.00    +0.000 S 
ATOM     29  O   UNL     1       6.368   4.524  19.104  0.00  0.00    +0.000 OA
ATOM     30  O   UNL     1       5.056   3.558  17.178  0.00  0.00    +0.000 OA
ENDBRANCH  21  28
ENDBRANCH  20  24
ENDBRANCH   1  20
TORSDOF 5
ENDMDL
MODEL 7
REMARK VINA RESULT:      -8.0      2.957      3.855
REMARK  Name = 
REMARK  6 active torsions:
REMARK  status: ('A' for Active; 'I' for Inactive)
REMARK    1  A    between atoms: C_1  and  S_2
REMARK    2  A    between atoms: S_2  and  C_5
REMARK    3  A    between atoms: C_8  and  C_9
REMARK    4  A    between atoms: C_9  and  N_10
REMARK    5  A    between atoms: C_16  and  C_17
REMARK    6  A    between atoms: C_20  and  O_21
REMARK                            x       y       z     vdW  Elec       q    Type
REMARK                         _______ _______ _______ _____ _____    ______ ____
ROOT
ATOM      1  N   UNL     1       1.519   9.283  19.846  0.00  0.00    +0.000 N 
ATOM      2  C   UNL     1       0.730  10.398  19.968  0.00  0.00    +0.000 A 
ATOM      3  N   UNL     1       0.584  11.215  18.945  0.00  0.00    +0.000 NA
ATOM      4  C   UNL     1      -0.190  12.345  19.103  0.00  0.00    +0.000 A 
ATOM      5  C   UNL     1      -0.879  12.644  20.214  0.00  0.00    +0.000 A 
ATOM      6  N   UNL     1      -0.814  11.767  21.287  0.00  0.00    +0.000 N 
ATOM      7  C   UNL     1      -1.435  11.723  22.527  0.00  0.00    +0.000 A 
ATOM      8  C   UNL     1      -0.872  10.604  23.130  0.00  0.00    +0.000 A 
ATOM      9  N   UNL     1       0.027   9.963  22.314  0.00  0.00    +0.000 NA
ATOM     10  C   UNL     1       0.019  10.678  21.211  0.00  0.00    +0.000 A 
ATOM     11  H   UNL     1       2.118   9.073  20.637  0.00  0.00    +0.000 HD
ENDROOT
BRANCH   7  12
ATOM     12  C   UNL     1      -2.421  12.677  23.047  0.00  0.00    +0.000 A 
ATOM     13  C   UNL     1      -3.797  12.515  22.828  0.00  0.00    +0.000 A 
ATOM     14  C   UNL     1      -4.718  13.472  23.267  0.00  0.00    +0.000 A 
ATOM     15  C   UNL     1      -4.265  14.577  23.975  0.00  0.00    +0.000 A 
ATOM     16  C   UNL     1      -2.915  14.732  24.257  0.00  0.00    +0.000 A 
ATOM     17  C   UNL     1      -1.996  13.786  23.795  0.00  0.00    +0.000 A 
BRANCH  15  18
ATOM     18  O   UNL     1      -5.125  15.535  24.420  0.00  0.00    +0.000 OA
ATOM     19  H   UNL     1      -6.034  15.252  24.228  0.00  0.00    +0.000 HD
ENDBRANCH  15  18
ENDBRANCH   7  12
BRANCH   1  20
ATOM     20  C   UNL     1       1.826   8.649  18.592  0.00  0.00    +0.000 C 
BRANCH  20  24
ATOM     21  C   UNL     1       3.276   4.649  19.329  0.00  0.00    +0.000 A 
ATOM     22  C   UNL     1       3.610   5.292  18.137  0.00  0.00    +0.000 A 
ATOM     23  C   UNL     1       3.129   6.582  17.898  0.00  0.00    +0.000 A 
ATOM     24  C   UNL     1       2.305   7.232  18.837  0.00  0.00    +0.000 A 
ATOM     25  C   UNL     1       1.962   6.556  20.014  0.00  0.00    +0.000 A 
ATOM     26  C   UNL     1       2.438   5.270  20.263  0.00  0.00    +0.000 A 
BRANCH  21  28
ATOM     27  C   UNL     1       3.289   2.069  18.298  0.00  0.00    +0.000 C 
ATOM     28  S   UNL     1       3.897   3.014  19.664  0.00  0.00    +0.000 S 
ATOM     29  O   UNL     1       3.244   2.536  20.874  0.00  0.00    +0.000 OA
ATOM     30  O   UNL     1       5.341   3.065  19.574  0.00  0.00    +0.000 OA
ENDBRANCH  21  28
ENDBRANCH  20  24
ENDBRANCH   1  20
TORSDOF 5
ENDMDL
MODEL 8
REMARK VINA RESULT:      -8.0      3.157      4.108
REMARK  Name = 
REMARK  6 active torsions:
REMARK  status: ('A' for Active; 'I' for Inactive)
REMARK    1  A    between atoms: C_1  and  S_2
REMARK    2  A    between atoms: S_2  and  C_5
REMARK    3  A    between atoms: C_8  and  C_9
REMARK    4  A    between atoms: C_9  and  N_10
REMARK    5  A    between atoms: C_16  and  C_17
REMARK    6  A    between atoms: C_20  and  O_21
REMARK                            x       y       z     vdW  Elec       q    Type
REMARK                         _______ _______ _______ _____ _____    ______ ____
ROOT
ATOM      1  N   UNL     1       1.676   8.906  19.971  0.00  0.00    +0.000 N 
ATOM      2  C   UNL     1       1.063  10.120  20.155  0.00  0.00    +0.000 A 
ATOM      3  N   UNL     1       1.146  11.045  19.223  0.00  0.00    +0.000 NA
ATOM      4  C   UNL     1       0.546  12.268  19.445  0.00  0.00    +0.000 A 
ATOM      5  C   UNL     1      -0.193  12.565  20.524  0.00  0.00    +0.000 A 
ATOM      6  N   UNL     1      -0.370  11.587  21.493  0.00  0.00    +0.000 N 
ATOM      7  C   UNL     1      -1.107  11.525  22.667  0.00  0.00    +0.000 A 
ATOM      8  C   UNL     1      -0.787  10.274  23.182  0.00  0.00    +0.000 A 
ATOM      9  N   UNL     1       0.076   9.577  22.374  0.00  0.00    +0.000 NA
ATOM     10  C   UNL     1       0.287  10.389  21.361  0.00  0.00    +0.000 A 
ATOM     11  H   UNL     1       2.156   8.523  20.778  0.00  0.00    +0.000 HD
ENDROOT
BRANCH   7  12
ATOM     12  C   UNL     1      -1.978  12.573  23.211  0.00  0.00    +0.000 A 
ATOM     13  C   UNL     1      -1.478  13.822  23.609  0.00  0.00    +0.000 A 
ATOM     14  C   UNL     1      -2.310  14.781  24.194  0.00  0.00    +0.000 A 
ATOM     15  C   UNL     1      -3.664  14.511  24.338  0.00  0.00    +0.000 A 
ATOM     16  C   UNL     1      -4.196  13.307  23.899  0.00  0.00    +0.000 A 
ATOM     17  C   UNL     1      -3.356  12.341  23.338  0.00  0.00    +0.000 A 
BRANCH  15  18
ATOM     18  O   UNL     1      -4.511  15.416  24.904  0.00  0.00    +0.000 OA
ATOM     19  H   UNL     1      -4.503  16.227  24.370  0.00  0.00    +0.000 HD
ENDBRANCH  15  18
ENDBRANCH   7  12
BRANCH   1  20
ATOM     20  C   UNL     1       2.000   8.358  18.681  0.00  0.00    +0.000 C 
BRANCH  20  24
ATOM     21  C   UNL     1       2.692   4.109  19.033  0.00  0.00    +0.000 A 
ATOM     22  C   UNL     1       2.279   4.834  20.152  0.00  0.00    +0.000 A 
ATOM     23  C   UNL     1       2.067   6.210  20.036  0.00  0.00    +0.000 A 
ATOM     24  C   UNL     1       2.277   6.873  18.811  0.00  0.00    +0.000 A 
ATOM     25  C   UNL     1       2.717   6.129  17.710  0.00  0.00    +0.000 A 
ATOM     26  C   UNL     1       2.929   4.755  17.814  0.00  0.00    +0.000 A 
BRANCH  21  28
ATOM     27  C   UNL     1       4.359   2.223  20.208  0.00  0.00    +0.000 C 
ATOM     28  S   UNL     1       2.945   2.351  19.153  0.00  0.00    +0.000 S 
ATOM     29  O   UNL     1       3.319   1.871  17.831  0.00  0.00    +0.000 OA
ATOM     30  O   UNL     1       1.807   1.790  19.850  0.00  0.00    +0.000 OA
ENDBRANCH  21  28
ENDBRANCH  20  24
ENDBRANCH   1  20
TORSDOF 5
ENDMDL
MODEL 9
REMARK VINA RESULT:      -7.9      2.815      4.053
REMARK  Name = 
REMARK  6 active torsions:
REMARK  status: ('A' for Active; 'I' for Inactive)
REMARK    1  A    between atoms: C_1  and  S_2
REMARK    2  A    between atoms: S_2  and  C_5
REMARK    3  A    between atoms: C_8  and  C_9
REMARK    4  A    between atoms: C_9  and  N_10
REMARK    5  A    between atoms: C_16  and  C_17
REMARK    6  A    between atoms: C_20  and  O_21
REMARK                            x       y       z     vdW  Elec       q    Type
REMARK                         _______ _______ _______ _____ _____    ______ ____
ROOT
ATOM      1  N   UNL     1       1.404   9.805  19.483  0.00  0.00    +0.000 N 
ATOM      2  C   UNL     1       0.556  10.871  19.646  0.00  0.00    +0.000 A 
ATOM      3  N   UNL     1       0.375  11.723  18.659  0.00  0.00    +0.000 NA
ATOM      4  C   UNL     1      -0.459  12.803  18.859  0.00  0.00    +0.000 A 
ATOM      5  C   UNL     1      -1.171  13.016  19.975  0.00  0.00    +0.000 A 
ATOM      6  N   UNL     1      -1.068  12.097  21.010  0.00  0.00    +0.000 N 
ATOM      7  C   UNL     1      -1.694  11.967  22.241  0.00  0.00    +0.000 A 
ATOM      8  C   UNL     1      -1.077  10.853  22.799  0.00  0.00    +0.000 A 
ATOM      9  N   UNL     1      -0.140  10.297  21.965  0.00  0.00    +0.000 NA
ATOM     10  C   UNL     1      -0.178  11.058  20.894  0.00  0.00    +0.000 A 
ATOM     11  H   UNL     1       2.007   9.592  20.270  0.00  0.00    +0.000 HD
ENDROOT
BRANCH   7  12
ATOM     12  C   UNL     1      -2.733  12.843  22.793  0.00  0.00    +0.000 A 
ATOM     13  C   UNL     1      -2.442  13.829  23.748  0.00  0.00    +0.000 A 
ATOM     14  C   UNL     1      -3.455  14.606  24.318  0.00  0.00    +0.000 A 
ATOM     15  C   UNL     1      -4.766  14.432  23.894  0.00  0.00    +0.000 A 
ATOM     16  C   UNL     1      -5.074  13.506  22.907  0.00  0.00    +0.000 A 
ATOM     17  C   UNL     1      -4.061  12.714  22.358  0.00  0.00    +0.000 A 
BRANCH  15  18
ATOM     18  O   UNL     1      -5.785  15.165  24.423  0.00  0.00    +0.000 OA
ATOM     19  H   UNL     1      -6.611  14.921  23.973  0.00  0.00    +0.000 HD
ENDBRANCH  15  18
ENDBRANCH   7  12
BRANCH   1  20
ATOM     20  C   UNL     1       1.752   9.244  18.205  0.00  0.00    +0.000 C 
BRANCH  20  24
ATOM     21  C   UNL     1       3.651   5.400  18.725  0.00  0.00    +0.000 A 
ATOM     22  C   UNL     1       2.755   5.861  19.691  0.00  0.00    +0.000 A 
ATOM     23  C   UNL     1       2.152   7.110  19.524  0.00  0.00    +0.000 A 
ATOM     24  C   UNL     1       2.446   7.910  18.403  0.00  0.00    +0.000 A 
ATOM     25  C   UNL     1       3.367   7.438  17.461  0.00  0.00    +0.000 A 
ATOM     26  C   UNL     1       3.973   6.193  17.617  0.00  0.00    +0.000 A 
BRANCH  21  28
ATOM     27  C   UNL     1       3.468   3.054  20.201  0.00  0.00    +0.000 C 
ATOM     28  S   UNL     1       4.413   3.802  18.906  0.00  0.00    +0.000 S 
ATOM     29  O   UNL     1       5.767   4.014  19.397  0.00  0.00    +0.000 OA
ATOM     30  O   UNL     1       4.177   3.061  17.685  0.00  0.00    +0.000 OA
ENDBRANCH  21  28
ENDBRANCH  20  24
ENDBRANCH   1  20
TORSDOF 5
ENDMDL
