MODEL 1
REMARK VINA RESULT:      -7.5      0.000      0.000
REMARK  Name = 
REMARK  7 active torsions:
REMARK  status: ('A' for Active; 'I' for Inactive)
REMARK    1  A    between atoms: C_1  and  C_2
REMARK    2  A    between atoms: C_5  and  C_6
REMARK    3  A    between atoms: C_7  and  N_8
REMARK    4  A    between atoms: N_11  and  C_12
REMARK    5  A    between atoms: C_12  and  C_13
REMARK    6  A    between atoms: C_12  and  C_14
REMARK    7  A    between atoms: C_17  and  N_18
REMARK                            x       y       z     vdW  Elec       q    Type
REMARK                         _______ _______ _______ _____ _____    ______ ____
ROOT
ATOM      1  N   UNL     1       5.516   5.787  18.596  0.00  0.00    +0.000 N 
ATOM      2  C   UNL     1       4.153   5.933  18.529  0.00  0.00    +0.000 C 
ATOM      3  O   UNL     1       3.502   6.164  17.520  0.00  0.00    +0.000 OA
ATOM      4  N   UNL     1       3.533   5.841  19.759  0.00  0.00    +0.000 N 
ATOM      5  H   UNL     1       5.939   5.823  19.510  0.00  0.00    +0.000 HD
ATOM      6  H   UNL     1       4.004   5.357  20.504  0.00  0.00    +0.000 HD
ENDROOT
BRANCH   1  13
ATOM      7  C   UNL     1       5.708   3.648  16.215  0.00  0.00    +0.000 C 
ATOM      8  C   UNL     1       6.462   4.904  16.430  0.00  0.00    +0.000 A 
ATOM      9  N   UNL     1       7.397   5.248  15.537  0.00  0.00    +0.000 NA
ATOM     10  O   UNL     1       7.937   6.424  15.998  0.00  0.00    +0.000 OA
ATOM     11  C   UNL     1       7.330   6.795  17.157  0.00  0.00    +0.000 A 
ATOM     12  C   UNL     1       7.820   8.077  17.704  0.00  0.00    +0.000 C 
ATOM     13  C   UNL     1       6.379   5.850  17.500  0.00  0.00    +0.000 A 
ENDBRANCH   1  13
BRANCH   4  14
ATOM     14  C   UNL     1       2.079   5.948  19.822  0.00  0.00    +0.000 C 
ATOM     15  C   UNL     1       1.479   4.948  20.812  0.00  0.00    +0.000 C 
BRANCH  14  16
ATOM     16  C   UNL     1       1.632   7.370  20.095  0.00  0.00    +0.000 A 
ATOM     17  C   UNL     1       1.701   8.316  19.058  0.00  0.00    +0.000 A 
ATOM     18  C   UNL     1       1.284   9.635  19.250  0.00  0.00    +0.000 A 
ATOM     19  C   UNL     1       0.792  10.039  20.495  0.00  0.00    +0.000 A 
ATOM     20  C   UNL     1       0.726   9.105  21.541  0.00  0.00    +0.000 A 
ATOM     21  C   UNL     1       1.135   7.782  21.338  0.00  0.00    +0.000 A 
BRANCH  19  22
ATOM     22  N   UNL     1       0.372  11.380  20.713  0.00  0.00    +0.000 N 
ATOM     23  C   UNL     1       0.112  12.354  19.769  0.00  0.00    +0.000 A 
ATOM     24  C   UNL     1      -0.219  13.502  20.447  0.00  0.00    +0.000 A 
ATOM     25  C   UNL     1      -0.154  13.140  21.799  0.00  0.00    +0.000 A 
ATOM     26  N   UNL     1       0.185  11.863  21.972  0.00  0.00    +0.000 NA
ENDBRANCH  19  22
ENDBRANCH  14  16
ENDBRANCH   4  14
TORSDOF 4
ENDMDL
MODEL 2
REMARK VINA RESULT:      -7.5      0.450      1.088
REMARK  Name = 
REMARK  7 active torsions:
REMARK  status: ('A' for Active; 'I' for Inactive)
REMARK    1  A    between atoms: C_1  and  C_2
REMARK    2  A    between atoms: C_5  and  C_6
REMARK    3  A    between atoms: C_7  and  N_8
REMARK    4  A    between atoms: N_11  and  C_12
REMARK    5  A    between atoms: C_12  and  C_13
REMARK    6  A    between atoms: C_12  and  C_14
REMARK    7  A    between atoms: C_17  and  N_18
REMARK                            x       y       z     vdW  Elec       q    Type
REMARK                         _______ _______ _______ _____ _____    ______ ____
ROOT
ATOM      1  N   UNL     1       5.449   5.853  18.601  0.00  0.00    +0.000 N 
ATOM      2  C   UNL     1       4.085   5.992  18.541  0.00  0.00    +0.000 C 
ATOM      3  O   UNL     1       3.423   6.171  17.528  0.00  0.00    +0.000 OA
ATOM      4  N   UNL     1       3.477   5.958  19.780  0.00  0.00    +0.000 N 
ATOM      5  H   UNL     1       5.880   5.935  19.509  0.00  0.00    +0.000 HD
ATOM      6  H   UNL     1       3.956   5.511  20.542  0.00  0.00    +0.000 HD
ENDROOT
BRANCH   1  13
ATOM      7  C   UNL     1       5.497   3.698  16.227  0.00  0.00    +0.000 C 
ATOM      8  C   UNL     1       6.321   4.912  16.428  0.00  0.00    +0.000 A 
ATOM      9  N   UNL     1       7.262   5.202  15.524  0.00  0.00    +0.000 NA
ATOM     10  O   UNL     1       7.871   6.349  15.973  0.00  0.00    +0.000 OA
ATOM     11  C   UNL     1       7.298   6.756  17.138  0.00  0.00    +0.000 A 
ATOM     12  C   UNL     1       7.863   8.012  17.674  0.00  0.00    +0.000 C 
ATOM     13  C   UNL     1       6.302   5.865  17.495  0.00  0.00    +0.000 A 
ENDBRANCH   1  13
BRANCH   4  14
ATOM     14  C   UNL     1       2.023   6.064  19.851  0.00  0.00    +0.000 C 
ATOM     15  C   UNL     1       1.423   5.010  20.783  0.00  0.00    +0.000 C 
BRANCH  14  16
ATOM     16  C   UNL     1       1.580   7.468  20.206  0.00  0.00    +0.000 A 
ATOM     17  C   UNL     1       1.155   7.736  21.519  0.00  0.00    +0.000 A 
ATOM     18  C   UNL     1       0.755   9.018  21.904  0.00  0.00    +0.000 A 
ATOM     19  C   UNL     1       0.766  10.063  20.976  0.00  0.00    +0.000 A 
ATOM     20  C   UNL     1       1.181   9.806  19.660  0.00  0.00    +0.000 A 
ATOM     21  C   UNL     1       1.592   8.521  19.283  0.00  0.00    +0.000 A 
BRANCH  19  22
ATOM     22  N   UNL     1       0.352  11.372  21.347  0.00  0.00    +0.000 N 
ATOM     23  C   UNL     1       0.695  12.571  20.754  0.00  0.00    +0.000 A 
ATOM     24  C   UNL     1       0.096  13.573  21.480  0.00  0.00    +0.000 A 
ATOM     25  C   UNL     1      -0.608  12.899  22.487  0.00  0.00    +0.000 A 
ATOM     26  N   UNL     1      -0.474  11.576  22.409  0.00  0.00    +0.000 NA
ENDBRANCH  19  22
ENDBRANCH  14  16
ENDBRANCH   4  14
TORSDOF 4
ENDMDL
MODEL 3
REMARK VINA RESULT:      -7.4      4.052      8.172
REMARK  Name = 
REMARK  7 active torsions:
REMARK  status: ('A' for Active; 'I' for Inactive)
REMARK    1  A    between atoms: C_1  and  C_2
REMARK    2  A    between atoms: C_5  and  C_6
REMARK    3  A    between atoms: C_7  and  N_8
REMARK    4  A    between atoms: N_11  and  C_12
REMARK    5  A    between atoms: C_12  and  C_13
REMARK    6  A    between atoms: C_12  and  C_14
REMARK    7  A    between atoms: C_17  and  N_18
REMARK                            x       y       z     vdW  Elec       q    Type
REMARK                         _______ _______ _______ _____ _____    ______ ____
ROOT
ATOM      1  N   UNL     1       2.424  13.672  17.743  0.00  0.00    +0.000 N 
ATOM      2  C   UNL     1       1.933  12.839  18.715  0.00  0.00    +0.000 C 
ATOM      3  O   UNL     1       1.976  13.035  19.922  0.00  0.00    +0.000 OA
ATOM      4  N   UNL     1       1.392  11.672  18.214  0.00  0.00    +0.000 N 
ATOM      5  H   UNL     1       2.523  13.289  16.815  0.00  0.00    +0.000 HD
ATOM      6  H   UNL     1       1.080  11.655  17.258  0.00  0.00    +0.000 HD
ENDROOT
BRANCH   1  13
ATOM      7  C   UNL     1       0.922  16.422  18.422  0.00  0.00    +0.000 C 
ATOM      8  C   UNL     1       2.369  16.134  18.296  0.00  0.00    +0.000 A 
ATOM      9  N   UNL     1       3.238  17.137  18.461  0.00  0.00    +0.000 NA
ATOM     10  O   UNL     1       4.482  16.589  18.268  0.00  0.00    +0.000 OA
ATOM     11  C   UNL     1       4.371  15.261  17.995  0.00  0.00    +0.000 A 
ATOM     12  C   UNL     1       5.669  14.578  17.815  0.00  0.00    +0.000 C 
ATOM     13  C   UNL     1       3.034  14.906  17.983  0.00  0.00    +0.000 A 
ENDBRANCH   1  13
BRANCH   4  14
ATOM     14  C   UNL     1       0.805  10.713  19.144  0.00  0.00    +0.000 C 
ATOM     15  C   UNL     1      -0.714  10.632  18.991  0.00  0.00    +0.000 C 
BRANCH  14  16
ATOM     16  C   UNL     1       1.469   9.355  19.043  0.00  0.00    +0.000 A 
ATOM     17  C   UNL     1       2.193   9.037  17.882  0.00  0.00    +0.000 A 
ATOM     18  C   UNL     1       2.842   7.807  17.745  0.00  0.00    +0.000 A 
ATOM     19  C   UNL     1       2.773   6.862  18.773  0.00  0.00    +0.000 A 
ATOM     20  C   UNL     1       2.047   7.166  19.935  0.00  0.00    +0.000 A 
ATOM     21  C   UNL     1       1.408   8.405  20.070  0.00  0.00    +0.000 A 
BRANCH  19  22
ATOM     22  N   UNL     1       3.418   5.600  18.649  0.00  0.00    +0.000 N 
ATOM     23  C   UNL     1       3.001   4.500  17.927  0.00  0.00    +0.000 A 
ATOM     24  C   UNL     1       3.917   3.499  18.141  0.00  0.00    +0.000 A 
ATOM     25  C   UNL     1       4.871   4.075  18.991  0.00  0.00    +0.000 A 
ATOM     26  N   UNL     1       4.590   5.343  19.291  0.00  0.00    +0.000 NA
ENDBRANCH  19  22
ENDBRANCH  14  16
ENDBRANCH   4  14
TORSDOF 4
ENDMDL
MODEL 4
REMARK VINA RESULT:      -7.4      4.182      8.342
REMARK  Name = 
REMARK  7 active torsions:
REMARK  status: ('A' for Active; 'I' for Inactive)
REMARK    1  A    between atoms: C_1  and  C_2
REMARK    2  A    between atoms: C_5  and  C_6
REMARK    3  A    between atoms: C_7  and  N_8
REMARK    4  A    between atoms: N_11  and  C_12
REMARK    5  A    between atoms: C_12  and  C_13
REMARK    6  A    between atoms: C_12  and  C_14
REMARK    7  A    between atoms: C_17  and  N_18
REMARK                            x       y       z     vdW  Elec       q    Type
REMARK                         _______ _______ _______ _____ _____    ______ ____
ROOT
ATOM      1  N   UNL     1       2.428  13.871  17.800  0.00  0.00    +0.000 N 
ATOM      2  C   UNL     1       1.875  13.027  18.729  0.00  0.00    +0.000 C 
ATOM      3  O   UNL     1       1.753  13.251  19.925  0.00  0.00    +0.000 OA
ATOM      4  N   UNL     1       1.481  11.814  18.198  0.00  0.00    +0.000 N 
ATOM      5  H   UNL     1       2.668  13.477  16.903  0.00  0.00    +0.000 HD
ATOM      6  H   UNL     1       1.293  11.755  17.213  0.00  0.00    +0.000 HD
ENDROOT
BRANCH   1  13
ATOM      7  C   UNL     1       5.514  14.740  17.855  0.00  0.00    +0.000 C 
ATOM      8  C   UNL     1       4.294  15.545  18.093  0.00  0.00    +0.000 A 
ATOM      9  N   UNL     1       4.432  16.839  18.402  0.00  0.00    +0.000 NA
ATOM     10  O   UNL     1       3.158  17.317  18.585  0.00  0.00    +0.000 OA
ATOM     11  C   UNL     1       2.252  16.322  18.382  0.00  0.00    +0.000 A 
ATOM     12  C   UNL     1       0.846  16.758  18.517  0.00  0.00    +0.000 C 
ATOM     13  C   UNL     1       2.919  15.150  18.077  0.00  0.00    +0.000 A 
ENDBRANCH   1  13
BRANCH   4  14
ATOM     14  C   UNL     1       0.847  10.836  19.077  0.00  0.00    +0.000 C 
ATOM     15  C   UNL     1      -0.666  10.779  18.863  0.00  0.00    +0.000 C 
BRANCH  14  16
ATOM     16  C   UNL     1       1.499   9.474  18.963  0.00  0.00    +0.000 A 
ATOM     17  C   UNL     1       1.452   8.602  20.064  0.00  0.00    +0.000 A 
ATOM     18  C   UNL     1       2.020   7.328  20.006  0.00  0.00    +0.000 A 
ATOM     19  C   UNL     1       2.658   6.899  18.838  0.00  0.00    +0.000 A 
ATOM     20  C   UNL     1       2.718   7.763  17.734  0.00  0.00    +0.000 A 
ATOM     21  C   UNL     1       2.137   9.036  17.795  0.00  0.00    +0.000 A 
BRANCH  19  22
ATOM     22  N   UNL     1       3.251   5.609  18.762  0.00  0.00    +0.000 N 
ATOM     23  C   UNL     1       2.801   4.505  18.065  0.00  0.00    +0.000 A 
ATOM     24  C   UNL     1       3.671   3.474  18.324  0.00  0.00    +0.000 A 
ATOM     25  C   UNL     1       4.633   4.035  19.174  0.00  0.00    +0.000 A 
ATOM     26  N   UNL     1       4.401   5.322  19.432  0.00  0.00    +0.000 NA
ENDBRANCH  19  22
ENDBRANCH  14  16
ENDBRANCH   4  14
TORSDOF 4
ENDMDL
MODEL 5
REMARK VINA RESULT:      -7.3      4.126      8.326
REMARK  Name = 
REMARK  7 active torsions:
REMARK  status: ('A' for Active; 'I' for Inactive)
REMARK    1  A    between atoms: C_1  and  C_2
REMARK    2  A    between atoms: C_5  and  C_6
REMARK    3  A    between atoms: C_7  and  N_8
REMARK    4  A    between atoms: N_11  and  C_12
REMARK    5  A    between atoms: C_12  and  C_13
REMARK    6  A    between atoms: C_12  and  C_14
REMARK    7  A    between atoms: C_17  and  N_18
REMARK                            x       y       z     vdW  Elec       q    Type
REMARK                         _______ _______ _______ _____ _____    ______ ____
ROOT
ATOM      1  N   UNL     1       2.520  13.794  17.764  0.00  0.00    +0.000 N 
ATOM      2  C   UNL     1       1.977  12.946  18.696  0.00  0.00    +0.000 C 
ATOM      3  O   UNL     1       1.920  13.143  19.903  0.00  0.00    +0.000 OA
ATOM      4  N   UNL     1       1.510  11.765  18.155  0.00  0.00    +0.000 N 
ATOM      5  H   UNL     1       2.701  13.415  16.847  0.00  0.00    +0.000 HD
ATOM      6  H   UNL     1       1.274  11.741  17.178  0.00  0.00    +0.000 HD
ENDROOT
BRANCH   1  13
ATOM      7  C   UNL     1       0.898  16.440  18.569  0.00  0.00    +0.000 C 
ATOM      8  C   UNL     1       2.356  16.226  18.418  0.00  0.00    +0.000 A 
ATOM      9  N   UNL     1       3.179  17.261  18.617  0.00  0.00    +0.000 NA
ATOM     10  O   UNL     1       4.445  16.780  18.391  0.00  0.00    +0.000 OA
ATOM     11  C   UNL     1       4.393  15.461  18.065  0.00  0.00    +0.000 A 
ATOM     12  C   UNL     1       5.719  14.847  17.845  0.00  0.00    +0.000 C 
ATOM     13  C   UNL     1       3.074  15.044  18.049  0.00  0.00    +0.000 A 
ENDBRANCH   1  13
BRANCH   4  14
ATOM     14  C   UNL     1       0.879  10.789  19.038  0.00  0.00    +0.000 C 
ATOM     15  C   UNL     1      -0.635  10.731  18.829  0.00  0.00    +0.000 C 
BRANCH  14  16
ATOM     16  C   UNL     1       1.531   9.427  18.925  0.00  0.00    +0.000 A 
ATOM     17  C   UNL     1       1.471   8.550  20.022  0.00  0.00    +0.000 A 
ATOM     18  C   UNL     1       2.038   7.275  19.964  0.00  0.00    +0.000 A 
ATOM     19  C   UNL     1       2.688   6.851  18.801  0.00  0.00    +0.000 A 
ATOM     20  C   UNL     1       2.762   7.720  17.702  0.00  0.00    +0.000 A 
ATOM     21  C   UNL     1       2.181   8.993  17.762  0.00  0.00    +0.000 A 
BRANCH  19  22
ATOM     22  N   UNL     1       3.281   5.560  18.726  0.00  0.00    +0.000 N 
ATOM     23  C   UNL     1       3.890   4.844  19.738  0.00  0.00    +0.000 A 
ATOM     24  C   UNL     1       4.353   3.673  19.188  0.00  0.00    +0.000 A 
ATOM     25  C   UNL     1       3.972   3.745  17.842  0.00  0.00    +0.000 A 
ATOM     26  N   UNL     1       3.313   4.867  17.555  0.00  0.00    +0.000 NA
ENDBRANCH  19  22
ENDBRANCH  14  16
ENDBRANCH   4  14
TORSDOF 4
ENDMDL
MODEL 6
REMARK VINA RESULT:      -7.3      4.067      7.129
REMARK  Name = 
REMARK  7 active torsions:
REMARK  status: ('A' for Active; 'I' for Inactive)
REMARK    1  A    between atoms: C_1  and  C_2
REMARK    2  A    between atoms: C_5  and  C_6
REMARK    3  A    between atoms: C_7  and  N_8
REMARK    4  A    between atoms: N_11  and  C_12
REMARK    5  A    between atoms: C_12  and  C_13
REMARK    6  A    between atoms: C_12  and  C_14
REMARK    7  A    between atoms: C_17  and  N_18
REMARK                            x       y       z     vdW  Elec       q    Type
REMARK                         _______ _______ _______ _____ _____    ______ ____
ROOT
ATOM      1  N   UNL     1       3.289   4.637  18.242  0.00  0.00    +0.000 N 
ATOM      2  C   UNL     1       4.658   4.559  18.301  0.00  0.00    +0.000 C 
ATOM      3  O   UNL     1       5.314   4.074  19.213  0.00  0.00    +0.000 OA
ATOM      4  N   UNL     1       5.285   5.139  17.217  0.00  0.00    +0.000 N 
ATOM      5  H   UNL     1       2.892   5.253  17.550  0.00  0.00    +0.000 HD
ATOM      6  H   UNL     1       4.771   5.244  16.360  0.00  0.00    +0.000 HD
ENDROOT
BRANCH   1  13
ATOM      7  C   UNL     1       2.409   1.575  18.607  0.00  0.00    +0.000 C 
ATOM      8  C   UNL     1       2.031   2.774  19.389  0.00  0.00    +0.000 A 
ATOM      9  N   UNL     1       1.179   2.629  20.410  0.00  0.00    +0.000 NA
ATOM     10  O   UNL     1       0.998   3.888  20.928  0.00  0.00    +0.000 OA
ATOM     11  C   UNL     1       1.741   4.790  20.232  0.00  0.00    +0.000 A 
ATOM     12  C   UNL     1       1.641   6.171  20.749  0.00  0.00    +0.000 C 
ATOM     13  C   UNL     1       2.420   4.140  19.217  0.00  0.00    +0.000 A 
ENDBRANCH   1  13
BRANCH   4  14
ATOM     14  C   UNL     1       6.742   5.096  17.142  0.00  0.00    +0.000 C 
ATOM     15  C   UNL     1       7.227   4.709  15.745  0.00  0.00    +0.000 C 
BRANCH  14  16
ATOM     16  C   UNL     1       7.367   6.385  17.635  0.00  0.00    +0.000 A 
ATOM     17  C   UNL     1       7.183   7.560  16.886  0.00  0.00    +0.000 A 
ATOM     18  C   UNL     1       7.721   8.779  17.305  0.00  0.00    +0.000 A 
ATOM     19  C   UNL     1       8.466   8.846  18.486  0.00  0.00    +0.000 A 
ATOM     20  C   UNL     1       8.662   7.678  19.239  0.00  0.00    +0.000 A 
ATOM     21  C   UNL     1       8.111   6.461  18.819  0.00  0.00    +0.000 A 
BRANCH  19  22
ATOM     22  N   UNL     1       9.030  10.076  18.924  0.00  0.00    +0.000 N 
ATOM     23  C   UNL     1       9.464  11.135  18.152  0.00  0.00    +0.000 A 
ATOM     24  C   UNL     1       9.974  12.083  19.006  0.00  0.00    +0.000 A 
ATOM     25  C   UNL     1       9.798  11.532  20.283  0.00  0.00    +0.000 A 
ATOM     26  N   UNL     1       9.218  10.333  20.248  0.00  0.00    +0.000 NA
ENDBRANCH  19  22
ENDBRANCH  14  16
ENDBRANCH   4  14
TORSDOF 4
ENDMDL
MODEL 7
REMARK VINA RESULT:      -7.2      4.286      8.118
REMARK  Name = 
REMARK  7 active torsions:
REMARK  status: ('A' for Active; 'I' for Inactive)
REMARK    1  A    between atoms: C_1  and  C_2
REMARK    2  A    between atoms: C_5  and  C_6
REMARK    3  A    between atoms: C_7  and  N_8
REMARK    4  A    between atoms: N_11  and  C_12
REMARK    5  A    between atoms: C_12  and  C_13
REMARK    6  A    between atoms: C_12  and  C_14
REMARK    7  A    between atoms: C_17  and  N_18
REMARK                            x       y       z     vdW  Elec       q    Type
REMARK                         _______ _______ _______ _____ _____    ______ ____
ROOT
ATOM      1  N   UNL     1       2.822  13.844  17.715  0.00  0.00    +0.000 N 
ATOM      2  C   UNL     1       2.129  13.074  18.614  0.00  0.00    +0.000 C 
ATOM      3  O   UNL     1       1.984  13.312  19.806  0.00  0.00    +0.000 OA
ATOM      4  N   UNL     1       1.611  11.920  18.061  0.00  0.00    +0.000 N 
ATOM      5  H   UNL     1       3.049  13.424  16.827  0.00  0.00    +0.000 HD
ATOM      6  H   UNL     1       1.460  11.885  17.068  0.00  0.00    +0.000 HD
ENDROOT
BRANCH   1  13
ATOM      7  C   UNL     1       5.987  14.347  17.816  0.00  0.00    +0.000 C 
ATOM      8  C   UNL     1       4.866  15.284  18.057  0.00  0.00    +0.000 A 
ATOM      9  N   UNL     1       5.149  16.548  18.390  0.00  0.00    +0.000 NA
ATOM     10  O   UNL     1       3.937  17.168  18.570  0.00  0.00    +0.000 OA
ATOM     11  C   UNL     1       2.924  16.289  18.340  0.00  0.00    +0.000 A 
ATOM     12  C   UNL     1       1.578  16.883  18.469  0.00  0.00    +0.000 C 
ATOM     13  C   UNL     1       3.454  15.052  18.020  0.00  0.00    +0.000 A 
ENDBRANCH   1  13
BRANCH   4  14
ATOM     14  C   UNL     1       0.824  11.028  18.906  0.00  0.00    +0.000 C 
ATOM     15  C   UNL     1      -0.650  11.015  18.498  0.00  0.00    +0.000 C 
BRANCH  14  16
ATOM     16  C   UNL     1       1.421   9.637  18.962  0.00  0.00    +0.000 A 
ATOM     17  C   UNL     1       2.101   9.143  17.835  0.00  0.00    +0.000 A 
ATOM     18  C   UNL     1       2.687   7.875  17.840  0.00  0.00    +0.000 A 
ATOM     19  C   UNL     1       2.598   7.067  18.977  0.00  0.00    +0.000 A 
ATOM     20  C   UNL     1       1.915   7.547  20.106  0.00  0.00    +0.000 A 
ATOM     21  C   UNL     1       1.339   8.823  20.099  0.00  0.00    +0.000 A 
BRANCH  19  22
ATOM     22  N   UNL     1       3.179   5.769  18.998  0.00  0.00    +0.000 N 
ATOM     23  C   UNL     1       3.061   4.801  19.975  0.00  0.00    +0.000 A 
ATOM     24  C   UNL     1       3.831   3.731  19.586  0.00  0.00    +0.000 A 
ATOM     25  C   UNL     1       4.371   4.121  18.353  0.00  0.00    +0.000 A 
ATOM     26  N   UNL     1       3.974   5.337  17.981  0.00  0.00    +0.000 NA
ENDBRANCH  19  22
ENDBRANCH  14  16
ENDBRANCH   4  14
TORSDOF 4
ENDMDL
MODEL 8
REMARK VINA RESULT:      -7.2      2.669      8.613
REMARK  Name = 
REMARK  7 active torsions:
REMARK  status: ('A' for Active; 'I' for Inactive)
REMARK    1  A    between atoms: C_1  and  C_2
REMARK    2  A    between atoms: C_5  and  C_6
REMARK    3  A    between atoms: C_7  and  N_8
REMARK    4  A    between atoms: N_11  and  C_12
REMARK    5  A    between atoms: C_12  and  C_13
REMARK    6  A    between atoms: C_12  and  C_14
REMARK    7  A    between atoms: C_17  and  N_18
REMARK                            x       y       z     vdW  Elec       q    Type
REMARK                         _______ _______ _______ _____ _____    ______ ____
ROOT
ATOM      1  N   UNL     1       0.766   9.726  20.248  0.00  0.00    +0.000 N 
ATOM      2  C   UNL     1       1.498   8.631  20.632  0.00  0.00    +0.000 C 
ATOM      3  O   UNL     1       1.976   8.437  21.742  0.00  0.00    +0.000 OA
ATOM      4  N   UNL     1       1.709   7.728  19.610  0.00  0.00    +0.000 N 
ATOM      5  H   UNL     1       0.626   9.862  19.259  0.00  0.00    +0.000 HD
ATOM      6  H   UNL     1       1.079   7.728  18.827  0.00  0.00    +0.000 HD
ENDROOT
BRANCH   1  13
ATOM      7  C   UNL     1       1.358  12.829  19.696  0.00  0.00    +0.000 C 
ATOM      8  C   UNL     1       0.677  12.178  20.839  0.00  0.00    +0.000 A 
ATOM      9  N   UNL     1       0.231  12.945  21.840  0.00  0.00    +0.000 NA
ATOM     10  O   UNL     1      -0.326  12.083  22.752  0.00  0.00    +0.000 OA
ATOM     11  C   UNL     1      -0.226  10.802  22.306  0.00  0.00    +0.000 A 
ATOM     12  C   UNL     1      -0.841   9.806  23.208  0.00  0.00    +0.000 C 
ATOM     13  C   UNL     1       0.424  10.791  21.085  0.00  0.00    +0.000 A 
ENDBRANCH   1  13
BRANCH   4  14
ATOM     14  C   UNL     1       2.448   6.503  19.896  0.00  0.00    +0.000 C 
ATOM     15  C   UNL     1       1.526   5.384  20.381  0.00  0.00    +0.000 C 
BRANCH  14  16
ATOM     16  C   UNL     1       3.305   6.077  18.721  0.00  0.00    +0.000 A 
ATOM     17  C   UNL     1       3.705   7.046  17.785  0.00  0.00    +0.000 A 
ATOM     18  C   UNL     1       4.512   6.711  16.695  0.00  0.00    +0.000 A 
ATOM     19  C   UNL     1       4.932   5.390  16.514  0.00  0.00    +0.000 A 
ATOM     20  C   UNL     1       4.532   4.413  17.439  0.00  0.00    +0.000 A 
ATOM     21  C   UNL     1       3.733   4.757  18.536  0.00  0.00    +0.000 A 
BRANCH  19  22
ATOM     22  N   UNL     1       5.744   5.028  15.405  0.00  0.00    +0.000 N 
ATOM     23  C   UNL     1       5.412   4.218  14.336  0.00  0.00    +0.000 A 
ATOM     24  C   UNL     1       6.526   4.117  13.538  0.00  0.00    +0.000 A 
ATOM     25  C   UNL     1       7.488   4.908  14.180  0.00  0.00    +0.000 A 
ATOM     26  N   UNL     1       7.026   5.473  15.295  0.00  0.00    +0.000 NA
ENDBRANCH  19  22
ENDBRANCH  14  16
ENDBRANCH   4  14
TORSDOF 4
ENDMDL
MODEL 9
REMARK VINA RESULT:      -7.2      3.423      4.979
REMARK  Name = 
REMARK  7 active torsions:
REMARK  status: ('A' for Active; 'I' for Inactive)
REMARK    1  A    between atoms: C_1  and  C_2
REMARK    2  A    between atoms: C_5  and  C_6
REMARK    3  A    between atoms: C_7  and  N_8
REMARK    4  A    between atoms: N_11  and  C_12
REMARK    5  A    between atoms: C_12  and  C_13
REMARK    6  A    between atoms: C_12  and  C_14
REMARK    7  A    between atoms: C_17  and  N_18
REMARK                            x       y       z     vdW  Elec       q    Type
REMARK                         _______ _______ _______ _____ _____    ______ ____
ROOT
ATOM      1  N   UNL     1       2.249   6.314  17.952  0.00  0.00    +0.000 N 
ATOM      2  C   UNL     1       2.077   7.464  18.680  0.00  0.00    +0.000 C 
ATOM      3  O   UNL     1       2.339   7.614  19.865  0.00  0.00    +0.000 OA
ATOM      4  N   UNL     1       1.511   8.492  17.952  0.00  0.00    +0.000 N 
ATOM      5  H   UNL     1       1.789   6.262  17.057  0.00  0.00    +0.000 HD
ATOM      6  H   UNL     1       1.589   8.475  16.950  0.00  0.00    +0.000 HD
ENDROOT
BRANCH   1  13
ATOM      7  C   UNL     1       5.116   5.079  17.216  0.00  0.00    +0.000 C 
ATOM      8  C   UNL     1       4.070   4.576  18.136  0.00  0.00    +0.000 A 
ATOM      9  N   UNL     1       4.284   3.422  18.777  0.00  0.00    +0.000 NA
ATOM     10  O   UNL     1       3.157   3.198  19.529  0.00  0.00    +0.000 OA
ATOM     11  C   UNL     1       2.268   4.212  19.352  0.00  0.00    +0.000 A 
ATOM     12  C   UNL     1       1.038   4.076  20.160  0.00  0.00    +0.000 C 
ATOM     13  C   UNL     1       2.788   5.126  18.454  0.00  0.00    +0.000 A 
ENDBRANCH   1  13
BRANCH   4  14
ATOM     14  C   UNL     1       1.302   9.782  18.602  0.00  0.00    +0.000 C 
ATOM     15  C   UNL     1       2.310  10.827  18.123  0.00  0.00    +0.000 C 
BRANCH  14  16
ATOM     16  C   UNL     1      -0.130  10.254  18.465  0.00  0.00    +0.000 A 
ATOM     17  C   UNL     1      -0.616  11.222  19.361  0.00  0.00    +0.000 A 
ATOM     18  C   UNL     1      -1.923  11.706  19.266  0.00  0.00    +0.000 A 
ATOM     19  C   UNL     1      -2.778  11.224  18.271  0.00  0.00    +0.000 A 
ATOM     20  C   UNL     1      -2.306  10.251  17.375  0.00  0.00    +0.000 A 
ATOM     21  C   UNL     1      -0.992   9.778  17.468  0.00  0.00    +0.000 A 
BRANCH  19  22
ATOM     22  N   UNL     1      -4.115  11.697  18.165  0.00  0.00    +0.000 N 
ATOM     23  C   UNL     1      -4.916  11.737  17.041  0.00  0.00    +0.000 A 
ATOM     24  C   UNL     1      -6.107  12.316  17.408  0.00  0.00    +0.000 A 
ATOM     25  C   UNL     1      -5.958  12.583  18.776  0.00  0.00    +0.000 A 
ATOM     26  N   UNL     1      -4.771  12.202  19.246  0.00  0.00    +0.000 NA
ENDBRANCH  19  22
ENDBRANCH  14  16
ENDBRANCH   4  14
TORSDOF 4
ENDMDL
