MODEL 1
REMARK VINA RESULT:      -7.5      0.000      0.000
REMARK  Name = 
REMARK  5 active torsions:
REMARK  status: ('A' for Active; 'I' for Inactive)
REMARK    1  A    between atoms: C_1  and  C_2
REMARK    2  A    between atoms: C_2  and  C_3
REMARK    3  A    between atoms: N_12  and  C_13
REMARK    4  A    between atoms: C_13  and  N_14
REMARK    5  A    between atoms: N_17  and  C_18
REMARK                            x       y       z     vdW  Elec       q    Type
REMARK                         _______ _______ _______ _____ _____    ______ ____
ROOT
ATOM      1  C   UNL     1       2.445   4.566  18.173  0.00  0.00    +0.000 C 
ATOM      2  C   UNL     1       2.913   6.008  18.428  0.00  0.00    +0.000 C 
ATOM      3  C   UNL     1       2.324   7.011  17.425  0.00  0.00    +0.000 C 
ATOM      4  C   UNL     1       2.132   8.255  18.249  0.00  0.00    +0.000 C 
ATOM      5  O   UNL     1       1.852   9.350  17.782  0.00  0.00    +0.000 OA
ATOM      6  N   UNL     1       2.157   7.919  19.572  0.00  0.00    +0.000 N 
ATOM      7  C   UNL     1       2.273   6.558  19.706  0.00  0.00    +0.000 C 
ATOM      8  O   UNL     1       1.857   5.878  20.635  0.00  0.00    +0.000 OA
ENDROOT
BRANCH   2   9
ATOM      9  C   UNL     1       4.448   6.038  18.418  0.00  0.00    +0.000 A 
ATOM     10  C   UNL     1       5.132   6.685  17.367  0.00  0.00    +0.000 A 
ATOM     11  C   UNL     1       6.525   6.673  17.290  0.00  0.00    +0.000 A 
ATOM     12  C   UNL     1       7.266   6.020  18.268  0.00  0.00    +0.000 A 
ATOM     13  C   UNL     1       6.613   5.389  19.323  0.00  0.00    +0.000 A 
ATOM     14  C   UNL     1       5.217   5.392  19.398  0.00  0.00    +0.000 A 
ENDBRANCH   2   9
BRANCH   6  15
ATOM     15  C   UNL     1       1.581   8.776  20.584  0.00  0.00    +0.000 C 
BRANCH  15  16
ATOM     16  N   UNL     1       0.117   8.656  20.632  0.00  0.00    +0.000 NA
ATOM     17  C   UNL     1      -0.438   8.545  22.012  0.00  0.00    +0.000 C 
ATOM     18  C   UNL     1      -0.471   9.838  22.897  0.00  0.00    +0.000 C 
ATOM     19  N   UNL     1      -1.031  10.971  22.129  0.00  0.00    +0.000 N 
ATOM     20  C   UNL     1      -0.359  11.154  20.828  0.00  0.00    +0.000 C 
ATOM     21  C   UNL     1      -0.497   9.856  20.001  0.00  0.00    +0.000 C 
BRANCH  19  22
ATOM     22  C   UNL     1      -1.349  12.187  22.734  0.00  0.00    +0.000 A 
ATOM     23  C   UNL     1      -0.552  13.337  22.671  0.00  0.00    +0.000 A 
ATOM     24  C   UNL     1      -1.003  14.558  23.209  0.00  0.00    +0.000 A 
ATOM     25  C   UNL     1      -2.247  14.631  23.831  0.00  0.00    +0.000 A 
ATOM     26 CL   UNL     1      -2.830  16.137  24.431  0.00  0.00    +0.000 Cl
ATOM     27  C   UNL     1      -3.033  13.497  23.953  0.00  0.00    +0.000 A 
ATOM     28  C   UNL     1      -2.581  12.285  23.412  0.00  0.00    +0.000 A 
ENDBRANCH  19  22
ENDBRANCH  15  16
ENDBRANCH   6  15
TORSDOF 4
ENDMDL
MODEL 2
REMARK VINA RESULT:      -7.4      0.414      1.346
REMARK  Name = 
REMARK  5 active torsions:
REMARK  status: ('A' for Active; 'I' for Inactive)
REMARK    1  A    between atoms: C_1  and  C_2
REMARK    2  A    between atoms: C_2  and  C_3
REMARK    3  A    between atoms: N_12  and  C_13
REMARK    4  A    between atoms: C_13  and  N_14
REMARK    5  A    between atoms: N_17  and  C_18
REMARK                            x       y       z     vdW  Elec       q    Type
REMARK                         _______ _______ _______ _____ _____    ______ ____
ROOT
ATOM      1  C   UNL     1       2.186   4.743  17.974  0.00  0.00    +0.000 C 
ATOM      2  C   UNL     1       2.735   6.133  18.336  0.00  0.00    +0.000 C 
ATOM      3  C   UNL     1       2.183   7.245  17.432  0.00  0.00    +0.000 C 
ATOM      4  C   UNL     1       2.073   8.425  18.360  0.00  0.00    +0.000 C 
ATOM      5  O   UNL     1       1.844   9.568  17.990  0.00  0.00    +0.000 OA
ATOM      6  N   UNL     1       2.102   7.978  19.650  0.00  0.00    +0.000 N 
ATOM      7  C   UNL     1       2.148   6.607  19.669  0.00  0.00    +0.000 C 
ATOM      8  O   UNL     1       1.712   5.874  20.548  0.00  0.00    +0.000 OA
ENDROOT
BRANCH   2   9
ATOM      9  C   UNL     1       4.269   6.084  18.296  0.00  0.00    +0.000 A 
ATOM     10  C   UNL     1       4.976   5.348  19.270  0.00  0.00    +0.000 A 
ATOM     11  C   UNL     1       6.371   5.338  19.305  0.00  0.00    +0.000 A 
ATOM     12  C   UNL     1       7.091   6.057  18.358  0.00  0.00    +0.000 A 
ATOM     13  C   UNL     1       6.415   6.777  17.376  0.00  0.00    +0.000 A 
ATOM     14  C   UNL     1       5.017   6.796  17.346  0.00  0.00    +0.000 A 
ENDBRANCH   2   9
BRANCH   6  15
ATOM     15  C   UNL     1       1.591   8.777  20.741  0.00  0.00    +0.000 C 
BRANCH  15  16
ATOM     16  N   UNL     1       0.128   8.687  20.844  0.00  0.00    +0.000 NA
ATOM     17  C   UNL     1      -0.386   8.729  22.243  0.00  0.00    +0.000 C 
ATOM     18  C   UNL     1      -0.374  10.107  22.989  0.00  0.00    +0.000 C 
ATOM     19  N   UNL     1      -0.942  11.163  22.125  0.00  0.00    +0.000 N 
ATOM     20  C   UNL     1      -0.308  11.199  20.792  0.00  0.00    +0.000 C 
ATOM     21  C   UNL     1      -0.489   9.825  20.109  0.00  0.00    +0.000 C 
BRANCH  19  22
ATOM     22  C   UNL     1      -1.225  12.442  22.608  0.00  0.00    +0.000 A 
ATOM     23  C   UNL     1      -2.324  12.759  23.416  0.00  0.00    +0.000 A 
ATOM     24  C   UNL     1      -2.471  14.051  23.958  0.00  0.00    +0.000 A 
ATOM     25  C   UNL     1      -1.529  15.038  23.680  0.00  0.00    +0.000 A 
ATOM     26 CL   UNL     1      -1.670  16.598  24.395  0.00  0.00    +0.000 Cl
ATOM     27  C   UNL     1      -0.461  14.765  22.842  0.00  0.00    +0.000 A 
ATOM     28  C   UNL     1      -0.316  13.477  22.307  0.00  0.00    +0.000 A 
ENDBRANCH  19  22
ENDBRANCH  15  16
ENDBRANCH   6  15
TORSDOF 4
ENDMDL
MODEL 3
REMARK VINA RESULT:      -7.2      2.360      3.560
REMARK  Name = 
REMARK  5 active torsions:
REMARK  status: ('A' for Active; 'I' for Inactive)
REMARK    1  A    between atoms: C_1  and  C_2
REMARK    2  A    between atoms: C_2  and  C_3
REMARK    3  A    between atoms: N_12  and  C_13
REMARK    4  A    between atoms: C_13  and  N_14
REMARK    5  A    between atoms: N_17  and  C_18
REMARK                            x       y       z     vdW  Elec       q    Type
REMARK                         _______ _______ _______ _____ _____    ______ ____
ROOT
ATOM      1  C   UNL     1       4.852   2.832  19.374  0.00  0.00    +0.000 C 
ATOM      2  C   UNL     1       4.138   3.814  18.431  0.00  0.00    +0.000 C 
ATOM      3  C   UNL     1       2.862   3.223  17.813  0.00  0.00    +0.000 C 
ATOM      4  C   UNL     1       1.942   4.410  17.713  0.00  0.00    +0.000 C 
ATOM      5  O   UNL     1       0.882   4.406  17.104  0.00  0.00    +0.000 OA
ATOM      6  N   UNL     1       2.402   5.397  18.537  0.00  0.00    +0.000 N 
ATOM      7  C   UNL     1       3.500   4.954  19.230  0.00  0.00    +0.000 C 
ATOM      8  O   UNL     1       3.864   5.327  20.337  0.00  0.00    +0.000 OA
ENDROOT
BRANCH   2   9
ATOM      9  C   UNL     1       5.128   4.268  17.349  0.00  0.00    +0.000 A 
ATOM     10  C   UNL     1       5.030   3.746  16.042  0.00  0.00    +0.000 A 
ATOM     11  C   UNL     1       5.955   4.084  15.052  0.00  0.00    +0.000 A 
ATOM     12  C   UNL     1       6.993   4.959  15.347  0.00  0.00    +0.000 A 
ATOM     13  C   UNL     1       7.101   5.499  16.625  0.00  0.00    +0.000 A 
ATOM     14  C   UNL     1       6.181   5.155  17.620  0.00  0.00    +0.000 A 
ENDBRANCH   2   9
BRANCH   6  15
ATOM     15  C   UNL     1       1.541   6.463  18.998  0.00  0.00    +0.000 C 
BRANCH  15  16
ATOM     16  N   UNL     1       2.281   7.716  19.196  0.00  0.00    +0.000 NA
ATOM     17  C   UNL     1       2.108   8.705  18.093  0.00  0.00    +0.000 C 
ATOM     18  C   UNL     1       0.745   9.474  18.005  0.00  0.00    +0.000 C 
ATOM     19  N   UNL     1       0.367  10.003  19.333  0.00  0.00    +0.000 N 
ATOM     20  C   UNL     1       0.401   8.965  20.381  0.00  0.00    +0.000 C 
ATOM     21  C   UNL     1       1.823   8.366  20.454  0.00  0.00    +0.000 C 
BRANCH  19  22
ATOM     22  C   UNL     1      -0.701  10.886  19.500  0.00  0.00    +0.000 A 
ATOM     23  C   UNL     1      -1.747  11.049  18.583  0.00  0.00    +0.000 A 
ATOM     24  C   UNL     1      -2.847  11.875  18.883  0.00  0.00    +0.000 A 
ATOM     25  C   UNL     1      -2.899  12.558  20.096  0.00  0.00    +0.000 A 
ATOM     26 CL   UNL     1      -4.273  13.516  20.494  0.00  0.00    +0.000 Cl
ATOM     27  C   UNL     1      -1.853  12.456  20.998  0.00  0.00    +0.000 A 
ATOM     28  C   UNL     1      -0.762  11.629  20.696  0.00  0.00    +0.000 A 
ENDBRANCH  19  22
ENDBRANCH  15  16
ENDBRANCH   6  15
TORSDOF 4
ENDMDL
MODEL 4
REMARK VINA RESULT:      -7.1      2.188      3.342
REMARK  Name = 
REMARK  5 active torsions:
REMARK  status: ('A' for Active; 'I' for Inactive)
REMARK    1  A    between atoms: C_1  and  C_2
REMARK    2  A    between atoms: C_2  and  C_3
REMARK    3  A    between atoms: N_12  and  C_13
REMARK    4  A    between atoms: C_13  and  N_14
REMARK    5  A    between atoms: N_17  and  C_18
REMARK                            x       y       z     vdW  Elec       q    Type
REMARK                         _______ _______ _______ _____ _____    ______ ____
ROOT
ATOM      1  C   UNL     1       4.382   2.414  19.596  0.00  0.00    +0.000 C 
ATOM      2  C   UNL     1       3.868   3.514  18.653  0.00  0.00    +0.000 C 
ATOM      3  C   UNL     1       2.635   3.078  17.846  0.00  0.00    +0.000 C 
ATOM      4  C   UNL     1       1.830   4.344  17.731  0.00  0.00    +0.000 C 
ATOM      5  O   UNL     1       0.856   4.473  17.003  0.00  0.00    +0.000 OA
ATOM      6  N   UNL     1       2.262   5.232  18.675  0.00  0.00    +0.000 N 
ATOM      7  C   UNL     1       3.228   4.650  19.456  0.00  0.00    +0.000 C 
ATOM      8  O   UNL     1       3.481   4.917  20.624  0.00  0.00    +0.000 OA
ENDROOT
BRANCH   2   9
ATOM      9  C   UNL     1       5.016   3.951  17.732  0.00  0.00    +0.000 A 
ATOM     10  C   UNL     1       4.936   3.709  16.344  0.00  0.00    +0.000 A 
ATOM     11  C   UNL     1       5.990   4.030  15.487  0.00  0.00    +0.000 A 
ATOM     12  C   UNL     1       7.145   4.609  15.999  0.00  0.00    +0.000 A 
ATOM     13  C   UNL     1       7.241   4.872  17.363  0.00  0.00    +0.000 A 
ATOM     14  C   UNL     1       6.189   4.543  18.224  0.00  0.00    +0.000 A 
ENDBRANCH   2   9
BRANCH   6  15
ATOM     15  C   UNL     1       1.437   6.336  19.112  0.00  0.00    +0.000 C 
BRANCH  15  16
ATOM     16  N   UNL     1       2.231   7.546  19.359  0.00  0.00    +0.000 NA
ATOM     17  C   UNL     1       2.013   8.631  18.358  0.00  0.00    +0.000 C 
ATOM     18  C   UNL     1       0.674   9.441  18.434  0.00  0.00    +0.000 C 
ATOM     19  N   UNL     1       0.408   9.865  19.825  0.00  0.00    +0.000 N 
ATOM     20  C   UNL     1       0.481   8.741  20.778  0.00  0.00    +0.000 C 
ATOM     21  C   UNL     1       1.884   8.099  20.697  0.00  0.00    +0.000 C 
BRANCH  19  22
ATOM     22  C   UNL     1      -0.615  10.760  20.142  0.00  0.00    +0.000 A 
ATOM     23  C   UNL     1      -0.809  11.326  21.408  0.00  0.00    +0.000 A 
ATOM     24  C   UNL     1      -1.795  12.311  21.614  0.00  0.00    +0.000 A 
ATOM     25  C   UNL     1      -2.605  12.721  20.558  0.00  0.00    +0.000 A 
ATOM     26 CL   UNL     1      -3.766  13.972  20.791  0.00  0.00    +0.000 Cl
ATOM     27  C   UNL     1      -2.469  12.140  19.309  0.00  0.00    +0.000 A 
ATOM     28  C   UNL     1      -1.484  11.163  19.108  0.00  0.00    +0.000 A 
ENDBRANCH  19  22
ENDBRANCH  15  16
ENDBRANCH   6  15
TORSDOF 4
ENDMDL
MODEL 5
REMARK VINA RESULT:      -7.0      2.044      3.201
REMARK  Name = 
REMARK  5 active torsions:
REMARK  status: ('A' for Active; 'I' for Inactive)
REMARK    1  A    between atoms: C_1  and  C_2
REMARK    2  A    between atoms: C_2  and  C_3
REMARK    3  A    between atoms: N_12  and  C_13
REMARK    4  A    between atoms: C_13  and  N_14
REMARK    5  A    between atoms: N_17  and  C_18
REMARK                            x       y       z     vdW  Elec       q    Type
REMARK                         _______ _______ _______ _____ _____    ______ ____
ROOT
ATOM      1  C   UNL     1       4.240   2.311  19.555  0.00  0.00    +0.000 C 
ATOM      2  C   UNL     1       3.766   3.433  18.618  0.00  0.00    +0.000 C 
ATOM      3  C   UNL     1       2.509   3.052  17.821  0.00  0.00    +0.000 C 
ATOM      4  C   UNL     1       1.758   4.351  17.714  0.00  0.00    +0.000 C 
ATOM      5  O   UNL     1       0.784   4.522  16.994  0.00  0.00    +0.000 OA
ATOM      6  N   UNL     1       2.234   5.218  18.656  0.00  0.00    +0.000 N 
ATOM      7  C   UNL     1       3.181   4.594  19.428  0.00  0.00    +0.000 C 
ATOM      8  O   UNL     1       3.454   4.847  20.595  0.00  0.00    +0.000 OA
ENDROOT
BRANCH   2   9
ATOM      9  C   UNL     1       4.924   3.823  17.689  0.00  0.00    +0.000 A 
ATOM     10  C   UNL     1       6.078   4.437  18.222  0.00  0.00    +0.000 A 
ATOM     11  C   UNL     1       7.119   4.867  17.399  0.00  0.00    +0.000 A 
ATOM     12  C   UNL     1       7.035   4.684  16.024  0.00  0.00    +0.000 A 
ATOM     13  C   UNL     1       5.913   4.066  15.477  0.00  0.00    +0.000 A 
ATOM     14  C   UNL     1       4.864   3.642  16.299  0.00  0.00    +0.000 A 
ENDBRANCH   2   9
BRANCH   6  15
ATOM     15  C   UNL     1       1.459   6.354  19.102  0.00  0.00    +0.000 C 
BRANCH  15  16
ATOM     16  N   UNL     1       2.307   7.527  19.355  0.00  0.00    +0.000 NA
ATOM     17  C   UNL     1       1.948   8.723  18.539  0.00  0.00    +0.000 C 
ATOM     18  C   UNL     1       0.656   9.518  18.931  0.00  0.00    +0.000 C 
ATOM     19  N   UNL     1       0.632   9.772  20.388  0.00  0.00    +0.000 N 
ATOM     20  C   UNL     1       0.839   8.542  21.176  0.00  0.00    +0.000 C 
ATOM     21  C   UNL     1       2.196   7.915  20.787  0.00  0.00    +0.000 C 
BRANCH  19  22
ATOM     22  C   UNL     1      -0.307  10.622  20.974  0.00  0.00    +0.000 A 
ATOM     23  C   UNL     1      -1.101  11.534  20.270  0.00  0.00    +0.000 A 
ATOM     24  C   UNL     1      -2.108  12.271  20.923  0.00  0.00    +0.000 A 
ATOM     25  C   UNL     1      -2.314  12.112  22.291  0.00  0.00    +0.000 A 
ATOM     26 CL   UNL     1      -3.587  12.961  23.082  0.00  0.00    +0.000 Cl
ATOM     27  C   UNL     1      -1.508  11.255  23.023  0.00  0.00    +0.000 A 
ATOM     28  C   UNL     1      -0.509  10.521  22.366  0.00  0.00    +0.000 A 
ENDBRANCH  19  22
ENDBRANCH  15  16
ENDBRANCH   6  15
TORSDOF 4
ENDMDL
MODEL 6
REMARK VINA RESULT:      -6.9      3.851      9.756
REMARK  Name = 
REMARK  5 active torsions:
REMARK  status: ('A' for Active; 'I' for Inactive)
REMARK    1  A    between atoms: C_1  and  C_2
REMARK    2  A    between atoms: C_2  and  C_3
REMARK    3  A    between atoms: N_12  and  C_13
REMARK    4  A    between atoms: C_13  and  N_14
REMARK    5  A    between atoms: N_17  and  C_18
REMARK                            x       y       z     vdW  Elec       q    Type
REMARK                         _______ _______ _______ _____ _____    ______ ____
ROOT
ATOM      1  C   UNL     1      -1.664  14.643  23.167  0.00  0.00    +0.000 C 
ATOM      2  C   UNL     1      -2.290  13.512  22.335  0.00  0.00    +0.000 C 
ATOM      3  C   UNL     1      -2.314  13.823  20.831  0.00  0.00    +0.000 C 
ATOM      4  C   UNL     1      -2.095  12.477  20.194  0.00  0.00    +0.000 C 
ATOM      5  O   UNL     1      -2.228  12.256  18.999  0.00  0.00    +0.000 OA
ATOM      6  N   UNL     1      -1.576  11.625  21.126  0.00  0.00    +0.000 N 
ATOM      7  C   UNL     1      -1.360  12.295  22.304  0.00  0.00    +0.000 C 
ATOM      8  O   UNL     1      -0.511  12.035  23.147  0.00  0.00    +0.000 OA
ENDROOT
BRANCH   2   9
ATOM      9  C   UNL     1      -3.699  13.224  22.873  0.00  0.00    +0.000 A 
ATOM     10  C   UNL     1      -4.829  13.691  22.169  0.00  0.00    +0.000 A 
ATOM     11  C   UNL     1      -6.121  13.509  22.664  0.00  0.00    +0.000 A 
ATOM     12  C   UNL     1      -6.312  12.845  23.870  0.00  0.00    +0.000 A 
ATOM     13  C   UNL     1      -5.213  12.361  24.574  0.00  0.00    +0.000 A 
ATOM     14  C   UNL     1      -3.917  12.551  24.084  0.00  0.00    +0.000 A 
ENDBRANCH   2   9
BRANCH   6  15
ATOM     15  C   UNL     1      -0.861  10.427  20.744  0.00  0.00    +0.000 C 
BRANCH  15  16
ATOM     16  N   UNL     1       0.589  10.576  20.927  0.00  0.00    +0.000 NA
ATOM     17  C   UNL     1       1.202   9.530  21.796  0.00  0.00    +0.000 C 
ATOM     18  C   UNL     1       1.380   8.092  21.200  0.00  0.00    +0.000 C 
ATOM     19  N   UNL     1       1.988   8.166  19.854  0.00  0.00    +0.000 N 
ATOM     20  C   UNL     1       1.268   9.097  18.963  0.00  0.00    +0.000 C 
ATOM     21  C   UNL     1       1.263  10.504  19.602  0.00  0.00    +0.000 C 
BRANCH  19  22
ATOM     22  C   UNL     1       2.430   7.027  19.179  0.00  0.00    +0.000 A 
ATOM     23  C   UNL     1       3.188   7.046  18.002  0.00  0.00    +0.000 A 
ATOM     24  C   UNL     1       3.693   5.854  17.450  0.00  0.00    +0.000 A 
ATOM     25  C   UNL     1       3.428   4.632  18.062  0.00  0.00    +0.000 A 
ATOM     26 CL   UNL     1       4.099   3.179  17.427  0.00  0.00    +0.000 Cl
ATOM     27  C   UNL     1       2.637   4.578  19.198  0.00  0.00    +0.000 A 
ATOM     28  C   UNL     1       2.139   5.769  19.746  0.00  0.00    +0.000 A 
ENDBRANCH  19  22
ENDBRANCH  15  16
ENDBRANCH   6  15
TORSDOF 4
ENDMDL
MODEL 7
REMARK VINA RESULT:      -6.8      3.856      9.622
REMARK  Name = 
REMARK  5 active torsions:
REMARK  status: ('A' for Active; 'I' for Inactive)
REMARK    1  A    between atoms: C_1  and  C_2
REMARK    2  A    between atoms: C_2  and  C_3
REMARK    3  A    between atoms: N_12  and  C_13
REMARK    4  A    between atoms: C_13  and  N_14
REMARK    5  A    between atoms: N_17  and  C_18
REMARK                            x       y       z     vdW  Elec       q    Type
REMARK                         _______ _______ _______ _____ _____    ______ ____
ROOT
ATOM      1  C   UNL     1      -1.382  14.577  23.783  0.00  0.00    +0.000 C 
ATOM      2  C   UNL     1      -1.394  14.117  22.317  0.00  0.00    +0.000 C 
ATOM      3  C   UNL     1      -0.517  14.995  21.411  0.00  0.00    +0.000 C 
ATOM      4  C   UNL     1       0.033  14.018  20.407  0.00  0.00    +0.000 C 
ATOM      5  O   UNL     1       0.636  14.343  19.394  0.00  0.00    +0.000 OA
ATOM      6  N   UNL     1      -0.108  12.752  20.898  0.00  0.00    +0.000 N 
ATOM      7  C   UNL     1      -0.632  12.797  22.165  0.00  0.00    +0.000 C 
ATOM      8  O   UNL     1      -0.453  11.981  23.059  0.00  0.00    +0.000 OA
ENDROOT
BRANCH   2   9
ATOM      9  C   UNL     1      -2.847  14.077  21.824  0.00  0.00    +0.000 A 
ATOM     10  C   UNL     1      -3.566  12.862  21.851  0.00  0.00    +0.000 A 
ATOM     11  C   UNL     1      -4.864  12.773  21.348  0.00  0.00    +0.000 A 
ATOM     12  C   UNL     1      -5.477  13.900  20.814  0.00  0.00    +0.000 A 
ATOM     13  C   UNL     1      -4.794  15.114  20.791  0.00  0.00    +0.000 A 
ATOM     14  C   UNL     1      -3.489  15.202  21.287  0.00  0.00    +0.000 A 
ENDBRANCH   2   9
BRANCH   6  15
ATOM     15  C   UNL     1       0.689  11.653  20.400  0.00  0.00    +0.000 C 
BRANCH  15  16
ATOM     16  N   UNL     1      -0.148  10.563  19.881  0.00  0.00    +0.000 NA
ATOM     17  C   UNL     1       0.080  10.256  18.440  0.00  0.00    +0.000 C 
ATOM     18  C   UNL     1       1.392   9.492  18.051  0.00  0.00    +0.000 C 
ATOM     19  N   UNL     1       1.589   8.325  18.937  0.00  0.00    +0.000 N 
ATOM     20  C   UNL     1       1.508   8.686  20.366  0.00  0.00    +0.000 C 
ATOM     21  C   UNL     1       0.128   9.319  20.651  0.00  0.00    +0.000 C 
BRANCH  19  22
ATOM     22  C   UNL     1       2.572   7.367  18.691  0.00  0.00    +0.000 A 
ATOM     23  C   UNL     1       3.455   7.396  17.604  0.00  0.00    +0.000 A 
ATOM     24  C   UNL     1       4.495   6.454  17.493  0.00  0.00    +0.000 A 
ATOM     25  C   UNL     1       4.648   5.464  18.461  0.00  0.00    +0.000 A 
ATOM     26 CL   UNL     1       5.959   4.352  18.364  0.00  0.00    +0.000 Cl
ATOM     27  C   UNL     1       3.758   5.380  19.518  0.00  0.00    +0.000 A 
ATOM     28  C   UNL     1       2.726   6.323  19.626  0.00  0.00    +0.000 A 
ENDBRANCH  19  22
ENDBRANCH  15  16
ENDBRANCH   6  15
TORSDOF 4
ENDMDL
MODEL 8
REMARK VINA RESULT:      -6.7      4.062      9.742
REMARK  Name = 
REMARK  5 active torsions:
REMARK  status: ('A' for Active; 'I' for Inactive)
REMARK    1  A    between atoms: C_1  and  C_2
REMARK    2  A    between atoms: C_2  and  C_3
REMARK    3  A    between atoms: N_12  and  C_13
REMARK    4  A    between atoms: C_13  and  N_14
REMARK    5  A    between atoms: N_17  and  C_18
REMARK                            x       y       z     vdW  Elec       q    Type
REMARK                         _______ _______ _______ _____ _____    ______ ____
ROOT
ATOM      1  C   UNL     1      -5.397  15.258  20.830  0.00  0.00    +0.000 C 
ATOM      2  C   UNL     1      -4.658  13.912  20.894  0.00  0.00    +0.000 C 
ATOM      3  C   UNL     1      -5.065  12.955  19.763  0.00  0.00    +0.000 C 
ATOM      4  C   UNL     1      -3.790  12.219  19.455  0.00  0.00    +0.000 C 
ATOM      5  O   UNL     1      -3.725  11.233  18.734  0.00  0.00    +0.000 OA
ATOM      6  N   UNL     1      -2.737  12.922  19.966  0.00  0.00    +0.000 N 
ATOM      7  C   UNL     1      -3.184  14.094  20.522  0.00  0.00    +0.000 C 
ATOM      8  O   UNL     1      -2.556  15.141  20.622  0.00  0.00    +0.000 OA
ENDROOT
BRANCH   2   9
ATOM      9  C   UNL     1      -4.895  13.283  22.274  0.00  0.00    +0.000 A 
ATOM     10  C   UNL     1      -6.212  13.042  22.721  0.00  0.00    +0.000 A 
ATOM     11  C   UNL     1      -6.467  12.537  23.996  0.00  0.00    +0.000 A 
ATOM     12  C   UNL     1      -5.409  12.252  24.851  0.00  0.00    +0.000 A 
ATOM     13  C   UNL     1      -4.100  12.466  24.426  0.00  0.00    +0.000 A 
ATOM     14  C   UNL     1      -3.843  12.981  23.152  0.00  0.00    +0.000 A 
ENDBRANCH   2   9
BRANCH   6  15
ATOM     15  C   UNL     1      -1.388  12.729  19.481  0.00  0.00    +0.000 C 
BRANCH  15  16
ATOM     16  N   UNL     1      -0.446  12.471  20.578  0.00  0.00    +0.000 NA
ATOM     17  C   UNL     1      -0.726  11.220  21.339  0.00  0.00    +0.000 C 
ATOM     18  C   UNL     1      -0.376   9.853  20.658  0.00  0.00    +0.000 C 
ATOM     19  N   UNL     1       0.987   9.898  20.087  0.00  0.00    +0.000 N 
ATOM     20  C   UNL     1       1.190  11.070  19.213  0.00  0.00    +0.000 C 
ATOM     21  C   UNL     1       0.932  12.358  20.027  0.00  0.00    +0.000 C 
BRANCH  19  22
ATOM     22  C   UNL     1       1.620   8.757  19.593  0.00  0.00    +0.000 A 
ATOM     23  C   UNL     1       1.783   7.566  20.311  0.00  0.00    +0.000 A 
ATOM     24  C   UNL     1       2.329   6.422  19.697  0.00  0.00    +0.000 A 
ATOM     25  C   UNL     1       2.731   6.468  18.365  0.00  0.00    +0.000 A 
ATOM     26 CL   UNL     1       3.336   5.053  17.592  0.00  0.00    +0.000 Cl
ATOM     27  C   UNL     1       2.629   7.647  17.646  0.00  0.00    +0.000 A 
ATOM     28  C   UNL     1       2.082   8.783  18.261  0.00  0.00    +0.000 A 
ENDBRANCH  19  22
ENDBRANCH  15  16
ENDBRANCH   6  15
TORSDOF 4
ENDMDL
MODEL 9
REMARK VINA RESULT:      -6.7      4.114      9.187
REMARK  Name = 
REMARK  5 active torsions:
REMARK  status: ('A' for Active; 'I' for Inactive)
REMARK    1  A    between atoms: C_1  and  C_2
REMARK    2  A    between atoms: C_2  and  C_3
REMARK    3  A    between atoms: N_12  and  C_13
REMARK    4  A    between atoms: C_13  and  N_14
REMARK    5  A    between atoms: N_17  and  C_18
REMARK                            x       y       z     vdW  Elec       q    Type
REMARK                         _______ _______ _______ _____ _____    ______ ____
ROOT
ATOM      1  C   UNL     1      -0.865  14.102  19.062  0.00  0.00    +0.000 C 
ATOM      2  C   UNL     1      -1.187  12.613  19.270  0.00  0.00    +0.000 C 
ATOM      3  C   UNL     1      -2.170  12.066  18.224  0.00  0.00    +0.000 C 
ATOM      4  C   UNL     1      -1.705  10.650  18.017  0.00  0.00    +0.000 C 
ATOM      5  O   UNL     1      -2.333   9.807  17.393  0.00  0.00    +0.000 OA
ATOM      6  N   UNL     1      -0.427  10.530  18.485  0.00  0.00    +0.000 N 
ATOM      7  C   UNL     1       0.028  11.750  18.918  0.00  0.00    +0.000 C 
ATOM      8  O   UNL     1       1.191  12.131  18.934  0.00  0.00    +0.000 OA
ENDROOT
BRANCH   2   9
ATOM      9  C   UNL     1      -1.717  12.417  20.697  0.00  0.00    +0.000 A 
ATOM     10  C   UNL     1      -3.056  12.743  21.001  0.00  0.00    +0.000 A 
ATOM     11  C   UNL     1      -3.552  12.643  22.302  0.00  0.00    +0.000 A 
ATOM     12  C   UNL     1      -2.722  12.205  23.327  0.00  0.00    +0.000 A 
ATOM     13  C   UNL     1      -1.401  11.861  23.047  0.00  0.00    +0.000 A 
ATOM     14  C   UNL     1      -0.900  11.970  21.746  0.00  0.00    +0.000 A 
ENDBRANCH   2   9
BRANCH   6  15
ATOM     15  C   UNL     1       0.442   9.459  18.053  0.00  0.00    +0.000 C 
BRANCH  15  16
ATOM     16  N   UNL     1       1.687   9.418  18.832  0.00  0.00    +0.000 NA
ATOM     17  C   UNL     1       1.563   8.710  20.138  0.00  0.00    +0.000 C 
ATOM     18  C   UNL     1       1.472   7.145  20.119  0.00  0.00    +0.000 C 
ATOM     19  N   UNL     1       2.521   6.581  19.243  0.00  0.00    +0.000 N 
ATOM     20  C   UNL     1       2.523   7.196  17.901  0.00  0.00    +0.000 C 
ATOM     21  C   UNL     1       2.738   8.719  18.044  0.00  0.00    +0.000 C 
BRANCH  19  22
ATOM     22  C   UNL     1       2.786   5.212  19.195  0.00  0.00    +0.000 A 
ATOM     23  C   UNL     1       1.819   4.223  18.977  0.00  0.00    +0.000 A 
ATOM     24  C   UNL     1       2.189   2.872  18.825  0.00  0.00    +0.000 A 
ATOM     25  C   UNL     1       3.528   2.501  18.910  0.00  0.00    +0.000 A 
ATOM     26 CL   UNL     1       3.990   0.860  18.660  0.00  0.00    +0.000 Cl
ATOM     27  C   UNL     1       4.500   3.450  19.178  0.00  0.00    +0.000 A 
ATOM     28  C   UNL     1       4.127   4.794  19.324  0.00  0.00    +0.000 A 
ENDBRANCH  19  22
ENDBRANCH  15  16
ENDBRANCH   6  15
TORSDOF 4
ENDMDL
