MODEL 1
REMARK VINA RESULT:      -8.3      0.000      0.000
REMARK  Name = 
REMARK  3 active torsions:
REMARK  status: ('A' for Active; 'I' for Inactive)
REMARK    1  A    between atoms: C_1  and  N_2
REMARK    2  A    between atoms: C_8  and  C_9
REMARK    3  A    between atoms: C_16  and  O_17
REMARK                            x       y       z     vdW  Elec       q    Type
REMARK                         _______ _______ _______ _____ _____    ______ ____
ROOT
ATOM      1  C   UNL     1       4.178   1.742  20.066  0.00  0.00    +0.000 C 
ATOM      2  N   UNL     1       3.385   2.833  20.604  0.00  0.00    +0.000 NA
ATOM      3  C   UNL     1       2.008   2.463  20.993  0.00  0.00    +0.000 C 
ATOM      4  N   UNL     1       0.912   3.246  20.337  0.00  0.00    +0.000 NA
ATOM      5  C   UNL     1       1.399   4.594  20.170  0.00  0.00    +0.000 C 
ATOM      6  C   UNL     1       1.044   6.089  20.392  0.00  0.00    +0.000 C 
ATOM      7  C   UNL     1       2.406   6.981  19.987  0.00  0.00    +0.000 C 
ATOM      8  C   UNL     1       2.987   6.784  18.464  0.00  0.00    +0.000 C 
ATOM      9  C   UNL     1       2.891   8.145  17.754  0.00  0.00    +0.000 C 
ATOM     10  C   UNL     1       1.943   5.818  18.065  0.00  0.00    +0.000 C 
ATOM     11  C   UNL     1       2.360   4.524  19.000  0.00  0.00    +0.000 C 
ATOM     12  C   UNL     1       2.693   3.672  17.799  0.00  0.00    +0.000 C 
ATOM     13  C   UNL     1       3.945   4.495  17.287  0.00  0.00    +0.000 A 
ATOM     14  C   UNL     1       4.852   3.820  16.468  0.00  0.00    +0.000 A 
ATOM     15  C   UNL     1       6.006   4.471  16.064  0.00  0.00    +0.000 A 
ATOM     16  C   UNL     1       6.257   5.778  16.505  0.00  0.00    +0.000 A 
ATOM     17  C   UNL     1       5.379   6.489  17.346  0.00  0.00    +0.000 A 
ATOM     18  C   UNL     1       4.177   5.905  17.757  0.00  0.00    +0.000 A 
ATOM     19  C   UNL     1       3.612   4.152  19.957  0.00  0.00    +0.000 C 
ATOM     20  H   UNL     1       0.097   3.215  20.944  0.00  0.00    +0.000 HD
ENDROOT
BRANCH  16  21
ATOM     21  O   UNL     1       7.393   6.416  16.092  0.00  0.00    +0.000 OA
ATOM     22  H   UNL     1       8.103   6.229  16.730  0.00  0.00    +0.000 HD
ENDBRANCH  16  21
TORSDOF 1
ENDMDL
MODEL 2
REMARK VINA RESULT:      -7.9      2.724      4.835
REMARK  Name = 
REMARK  3 active torsions:
REMARK  status: ('A' for Active; 'I' for Inactive)
REMARK    1  A    between atoms: C_1  and  N_2
REMARK    2  A    between atoms: C_8  and  C_9
REMARK    3  A    between atoms: C_16  and  O_17
REMARK                            x       y       z     vdW  Elec       q    Type
REMARK                         _______ _______ _______ _____ _____    ______ ____
ROOT
ATOM      1  C   UNL     1       6.522   6.818  17.719  0.00  0.00    +0.000 C 
ATOM      2  N   UNL     1       6.245   5.471  18.186  0.00  0.00    +0.000 NA
ATOM      3  C   UNL     1       6.608   4.400  17.236  0.00  0.00    +0.000 C 
ATOM      4  N   UNL     1       5.499   3.474  16.840  0.00  0.00    +0.000 NA
ATOM      5  C   UNL     1       4.654   3.311  17.999  0.00  0.00    +0.000 C 
ATOM      6  C   UNL     1       3.941   2.257  18.890  0.00  0.00    +0.000 C 
ATOM      7  C   UNL     1       3.266   3.087  20.183  0.00  0.00    +0.000 C 
ATOM      8  C   UNL     1       2.208   4.287  19.814  0.00  0.00    +0.000 C 
ATOM      9  C   UNL     1       0.844   3.899  20.410  0.00  0.00    +0.000 C 
ATOM     10  C   UNL     1       2.309   4.087  18.353  0.00  0.00    +0.000 C 
ATOM     11  C   UNL     1       3.856   4.596  18.089  0.00  0.00    +0.000 C 
ATOM     12  C   UNL     1       3.403   5.763  17.243  0.00  0.00    +0.000 C 
ATOM     13  C   UNL     1       2.667   6.584  18.380  0.00  0.00    +0.000 A 
ATOM     14  C   UNL     1       2.492   7.951  18.158  0.00  0.00    +0.000 A 
ATOM     15  C   UNL     1       1.930   8.727  19.158  0.00  0.00    +0.000 A 
ATOM     16  C   UNL     1       1.575   8.137  20.380  0.00  0.00    +0.000 A 
ATOM     17  C   UNL     1       1.750   6.767  20.652  0.00  0.00    +0.000 A 
ATOM     18  C   UNL     1       2.274   5.919  19.671  0.00  0.00    +0.000 A 
ATOM     19  C   UNL     1       4.995   5.327  18.978  0.00  0.00    +0.000 C 
ATOM     20  H   UNL     1       5.914   2.591  16.553  0.00  0.00    +0.000 HD
ENDROOT
BRANCH  16  21
ATOM     21  O   UNL     1       1.010   8.909  21.356  0.00  0.00    +0.000 OA
ATOM     22  H   UNL     1       0.068   9.033  21.146  0.00  0.00    +0.000 HD
ENDBRANCH  16  21
TORSDOF 1
ENDMDL
MODEL 3
REMARK VINA RESULT:      -7.9      1.818      3.676
REMARK  Name = 
REMARK  3 active torsions:
REMARK  status: ('A' for Active; 'I' for Inactive)
REMARK    1  A    between atoms: C_1  and  N_2
REMARK    2  A    between atoms: C_8  and  C_9
REMARK    3  A    between atoms: C_16  and  O_17
REMARK                            x       y       z     vdW  Elec       q    Type
REMARK                         _______ _______ _______ _____ _____    ______ ____
ROOT
ATOM      1  C   UNL     1       3.083   8.428  17.991  0.00  0.00    +0.000 C 
ATOM      2  N   UNL     1       2.200   7.403  18.518  0.00  0.00    +0.000 NA
ATOM      3  C   UNL     1       1.727   7.643  19.898  0.00  0.00    +0.000 C 
ATOM      4  N   UNL     1       2.026   6.560  20.889  0.00  0.00    +0.000 NA
ATOM      5  C   UNL     1       1.933   5.306  20.181  0.00  0.00    +0.000 C 
ATOM      6  C   UNL     1       1.318   3.881  20.236  0.00  0.00    +0.000 C 
ATOM      7  C   UNL     1       1.680   3.135  18.777  0.00  0.00    +0.000 C 
ATOM      8  C   UNL     1       3.271   3.023  18.385  0.00  0.00    +0.000 C 
ATOM      9  C   UNL     1       3.620   1.527  18.297  0.00  0.00    +0.000 C 
ATOM     10  C   UNL     1       3.743   3.682  19.621  0.00  0.00    +0.000 C 
ATOM     11  C   UNL     1       3.205   5.220  19.362  0.00  0.00    +0.000 C 
ATOM     12  C   UNL     1       4.608   5.777  19.303  0.00  0.00    +0.000 C 
ATOM     13  C   UNL     1       5.074   5.053  17.974  0.00  0.00    +0.000 A 
ATOM     14  C   UNL     1       6.145   5.626  17.286  0.00  0.00    +0.000 A 
ATOM     15  C   UNL     1       6.536   5.079  16.075  0.00  0.00    +0.000 A 
ATOM     16  C   UNL     1       5.836   3.983  15.550  0.00  0.00    +0.000 A 
ATOM     17  C   UNL     1       4.740   3.386  16.201  0.00  0.00    +0.000 A 
ATOM     18  C   UNL     1       4.320   3.863  17.446  0.00  0.00    +0.000 A 
ATOM     19  C   UNL     1       2.541   6.013  18.116  0.00  0.00    +0.000 C 
ATOM     20  H   UNL     1       1.338   6.620  21.636  0.00  0.00    +0.000 HD
ENDROOT
BRANCH  16  21
ATOM     21  O   UNL     1       6.236   3.443  14.360  0.00  0.00    +0.000 OA
ATOM     22  H   UNL     1       7.110   3.032  14.485  0.00  0.00    +0.000 HD
ENDBRANCH  16  21
TORSDOF 1
ENDMDL
MODEL 4
REMARK VINA RESULT:      -7.7      2.208      4.212
REMARK  Name = 
REMARK  3 active torsions:
REMARK  status: ('A' for Active; 'I' for Inactive)
REMARK    1  A    between atoms: C_1  and  N_2
REMARK    2  A    between atoms: C_8  and  C_9
REMARK    3  A    between atoms: C_16  and  O_17
REMARK                            x       y       z     vdW  Elec       q    Type
REMARK                         _______ _______ _______ _____ _____    ______ ____
ROOT
ATOM      1  C   UNL     1       0.635   3.037  18.965  0.00  0.00    +0.000 C 
ATOM      2  N   UNL     1       1.713   2.919  18.000  0.00  0.00    +0.000 NA
ATOM      3  C   UNL     1       2.552   1.712  18.155  0.00  0.00    +0.000 C 
ATOM      4  N   UNL     1       4.018   1.955  18.343  0.00  0.00    +0.000 NA
ATOM      5  C   UNL     1       4.358   3.112  17.550  0.00  0.00    +0.000 C 
ATOM      6  C   UNL     1       5.366   3.659  16.503  0.00  0.00    +0.000 C 
ATOM      7  C   UNL     1       4.814   5.173  16.037  0.00  0.00    +0.000 C 
ATOM      8  C   UNL     1       4.617   6.284  17.230  0.00  0.00    +0.000 C 
ATOM      9  C   UNL     1       5.577   7.449  16.938  0.00  0.00    +0.000 C 
ATOM     10  C   UNL     1       5.073   5.380  18.307  0.00  0.00    +0.000 C 
ATOM     11  C   UNL     1       3.829   4.296  18.333  0.00  0.00    +0.000 C 
ATOM     12  C   UNL     1       3.416   4.696  19.730  0.00  0.00    +0.000 C 
ATOM     13  C   UNL     1       2.945   6.172  19.405  0.00  0.00    +0.000 A 
ATOM     14  C   UNL     1       2.059   6.764  20.307  0.00  0.00    +0.000 A 
ATOM     15  C   UNL     1       1.552   8.022  20.024  0.00  0.00    +0.000 A 
ATOM     16  C   UNL     1       1.912   8.663  18.830  0.00  0.00    +0.000 A 
ATOM     17  C   UNL     1       2.787   8.095  17.885  0.00  0.00    +0.000 A 
ATOM     18  C   UNL     1       3.366   6.846  18.128  0.00  0.00    +0.000 A 
ATOM     19  C   UNL     1       2.371   4.200  17.634  0.00  0.00    +0.000 C 
ATOM     20  H   UNL     1       4.517   1.127  18.029  0.00  0.00    +0.000 HD
ENDROOT
BRANCH  16  21
ATOM     21  O   UNL     1       1.415   9.909  18.564  0.00  0.00    +0.000 OA
ATOM     22  H   UNL     1       0.920   9.872  17.727  0.00  0.00    +0.000 HD
ENDBRANCH  16  21
TORSDOF 1
ENDMDL
MODEL 5
REMARK VINA RESULT:      -7.0      9.701     12.082
REMARK  Name = 
REMARK  3 active torsions:
REMARK  status: ('A' for Active; 'I' for Inactive)
REMARK    1  A    between atoms: C_1  and  N_2
REMARK    2  A    between atoms: C_8  and  C_9
REMARK    3  A    between atoms: C_16  and  O_17
REMARK                            x       y       z     vdW  Elec       q    Type
REMARK                         _______ _______ _______ _____ _____    ______ ____
ROOT
ATOM      1  C   UNL     1      11.145  16.739  20.520  0.00  0.00    +0.000 C 
ATOM      2  N   UNL     1      11.628  15.894  19.443  0.00  0.00    +0.000 NA
ATOM      3  C   UNL     1      11.703  16.556  18.123  0.00  0.00    +0.000 C 
ATOM      4  N   UNL     1      10.930  15.901  17.019  0.00  0.00    +0.000 NA
ATOM      5  C   UNL     1      11.001  14.477  17.244  0.00  0.00    +0.000 C 
ATOM      6  C   UNL     1      11.302  13.116  16.559  0.00  0.00    +0.000 C 
ATOM      7  C   UNL     1      11.263  11.946  17.761  0.00  0.00    +0.000 C 
ATOM      8  C   UNL     1       9.869  11.822  18.621  0.00  0.00    +0.000 C 
ATOM      9  C   UNL     1       9.298  10.416  18.373  0.00  0.00    +0.000 C 
ATOM     10  C   UNL     1       9.178  12.896  17.878  0.00  0.00    +0.000 C 
ATOM     11  C   UNL     1      10.039  14.210  18.384  0.00  0.00    +0.000 C 
ATOM     12  C   UNL     1       8.844  14.814  19.083  0.00  0.00    +0.000 C 
ATOM     13  C   UNL     1       8.672  13.715  20.210  0.00  0.00    +0.000 A 
ATOM     14  C   UNL     1       7.979  14.095  21.361  0.00  0.00    +0.000 A 
ATOM     15  C   UNL     1       7.876  13.197  22.410  0.00  0.00    +0.000 A 
ATOM     16  C   UNL     1       8.489  11.940  22.312  0.00  0.00    +0.000 A 
ATOM     17  C   UNL     1       9.212  11.523  21.178  0.00  0.00    +0.000 A 
ATOM     18  C   UNL     1       9.320  12.365  20.068  0.00  0.00    +0.000 A 
ATOM     19  C   UNL     1      11.177  14.479  19.503  0.00  0.00    +0.000 C 
ATOM     20  H   UNL     1      11.362  16.163  16.137  0.00  0.00    +0.000 HD
ENDROOT
BRANCH  16  21
ATOM     21  O   UNL     1       8.372  11.056  23.348  0.00  0.00    +0.000 OA
ATOM     22  H   UNL     1       8.980  10.312  23.191  0.00  0.00    +0.000 HD
ENDBRANCH  16  21
TORSDOF 1
ENDMDL
MODEL 6
REMARK VINA RESULT:      -6.8      3.192      5.001
REMARK  Name = 
REMARK  3 active torsions:
REMARK  status: ('A' for Active; 'I' for Inactive)
REMARK    1  A    between atoms: C_1  and  N_2
REMARK    2  A    between atoms: C_8  and  C_9
REMARK    3  A    between atoms: C_16  and  O_17
REMARK                            x       y       z     vdW  Elec       q    Type
REMARK                         _______ _______ _______ _____ _____    ______ ____
ROOT
ATOM      1  C   UNL     1       5.925   3.264  14.765  0.00  0.00    +0.000 C 
ATOM      2  N   UNL     1       5.797   4.676  15.077  0.00  0.00    +0.000 NA
ATOM      3  C   UNL     1       7.079   5.403  15.193  0.00  0.00    +0.000 C 
ATOM      4  N   UNL     1       7.315   6.107  16.494  0.00  0.00    +0.000 NA
ATOM      5  C   UNL     1       6.035   6.595  16.947  0.00  0.00    +0.000 C 
ATOM      6  C   UNL     1       5.294   7.847  17.491  0.00  0.00    +0.000 C 
ATOM      7  C   UNL     1       3.668   7.446  17.596  0.00  0.00    +0.000 C 
ATOM      8  C   UNL     1       3.290   6.147  18.527  0.00  0.00    +0.000 C 
ATOM      9  C   UNL     1       2.398   6.647  19.675  0.00  0.00    +0.000 C 
ATOM     10  C   UNL     1       4.688   5.875  18.920  0.00  0.00    +0.000 C 
ATOM     11  C   UNL     1       5.312   5.373  17.478  0.00  0.00    +0.000 C 
ATOM     12  C   UNL     1       5.578   3.980  17.996  0.00  0.00    +0.000 C 
ATOM     13  C   UNL     1       4.073   3.534  18.208  0.00  0.00    +0.000 A 
ATOM     14  C   UNL     1       3.820   2.162  18.240  0.00  0.00    +0.000 A 
ATOM     15  C   UNL     1       2.510   1.722  18.338  0.00  0.00    +0.000 A 
ATOM     16  C   UNL     1       1.465   2.656  18.375  0.00  0.00    +0.000 A 
ATOM     17  C   UNL     1       1.674   4.047  18.327  0.00  0.00    +0.000 A 
ATOM     18  C   UNL     1       2.974   4.559  18.269  0.00  0.00    +0.000 A 
ATOM     19  C   UNL     1       4.701   5.013  16.022  0.00  0.00    +0.000 C 
ATOM     20  H   UNL     1       7.967   6.868  16.326  0.00  0.00    +0.000 HD
ENDROOT
BRANCH  16  21
ATOM     21  O   UNL     1       0.177   2.213  18.484  0.00  0.00    +0.000 OA
ATOM     22  H   UNL     1       0.190   1.306  18.836  0.00  0.00    +0.000 HD
ENDBRANCH  16  21
TORSDOF 1
ENDMDL
MODEL 7
REMARK VINA RESULT:      -6.7      9.730     12.194
REMARK  Name = 
REMARK  3 active torsions:
REMARK  status: ('A' for Active; 'I' for Inactive)
REMARK    1  A    between atoms: C_1  and  N_2
REMARK    2  A    between atoms: C_8  and  C_9
REMARK    3  A    between atoms: C_16  and  O_17
REMARK                            x       y       z     vdW  Elec       q    Type
REMARK                         _______ _______ _______ _____ _____    ______ ____
ROOT
ATOM      1  C   UNL     1      10.359  17.346  19.203  0.00  0.00    +0.000 C 
ATOM      2  N   UNL     1      11.124  16.264  18.607  0.00  0.00    +0.000 NA
ATOM      3  C   UNL     1      11.384  16.415  17.160  0.00  0.00    +0.000 C 
ATOM      4  N   UNL     1      10.910  15.291  16.291  0.00  0.00    +0.000 NA
ATOM      5  C   UNL     1      11.078  14.074  17.047  0.00  0.00    +0.000 C 
ATOM      6  C   UNL     1      11.642  12.628  16.982  0.00  0.00    +0.000 C 
ATOM      7  C   UNL     1      11.489  11.974  18.520  0.00  0.00    +0.000 C 
ATOM      8  C   UNL     1       9.976  11.937  19.156  0.00  0.00    +0.000 C 
ATOM      9  C   UNL     1       9.608  10.461  19.383  0.00  0.00    +0.000 C 
ATOM     10  C   UNL     1       9.336  12.545  17.971  0.00  0.00    +0.000 C 
ATOM     11  C   UNL     1       9.946  14.076  18.055  0.00  0.00    +0.000 C 
ATOM     12  C   UNL     1       8.584  14.682  18.295  0.00  0.00    +0.000 C 
ATOM     13  C   UNL     1       8.310  14.046  19.719  0.00  0.00    +0.000 A 
ATOM     14  C   UNL     1       7.373  14.691  20.528  0.00  0.00    +0.000 A 
ATOM     15  C   UNL     1       7.160  14.223  21.814  0.00  0.00    +0.000 A 
ATOM     16  C   UNL     1       7.904  13.134  22.289  0.00  0.00    +0.000 A 
ATOM     17  C   UNL     1       8.871  12.466  21.514  0.00  0.00    +0.000 A 
ATOM     18  C   UNL     1       9.106  12.861  20.194  0.00  0.00    +0.000 A 
ATOM     19  C   UNL     1      10.814  14.911  19.137  0.00  0.00    +0.000 C 
ATOM     20  H   UNL     1      11.475  15.287  15.446  0.00  0.00    +0.000 HD
ENDROOT
BRANCH  16  21
ATOM     21  O   UNL     1       7.679  12.672  23.556  0.00  0.00    +0.000 OA
ATOM     22  H   UNL     1       8.398  12.984  24.132  0.00  0.00    +0.000 HD
ENDBRANCH  16  21
TORSDOF 1
ENDMDL
MODEL 8
REMARK VINA RESULT:      -6.4      9.559     11.512
REMARK  Name = 
REMARK  3 active torsions:
REMARK  status: ('A' for Active; 'I' for Inactive)
REMARK    1  A    between atoms: C_1  and  N_2
REMARK    2  A    between atoms: C_8  and  C_9
REMARK    3  A    between atoms: C_16  and  O_17
REMARK                            x       y       z     vdW  Elec       q    Type
REMARK                         _______ _______ _______ _____ _____    ______ ____
ROOT
ATOM      1  C   UNL     1       7.348  15.787  21.717  0.00  0.00    +0.000 C 
ATOM      2  N   UNL     1       7.432  14.340  21.629  0.00  0.00    +0.000 NA
ATOM      3  C   UNL     1       7.491  13.643  22.931  0.00  0.00    +0.000 C 
ATOM      4  N   UNL     1       8.677  12.752  23.141  0.00  0.00    +0.000 NA
ATOM      5  C   UNL     1       8.991  12.160  21.863  0.00  0.00    +0.000 C 
ATOM      6  C   UNL     1       9.300  10.817  21.148  0.00  0.00    +0.000 C 
ATOM      7  C   UNL     1       9.392  11.147  19.505  0.00  0.00    +0.000 C 
ATOM      8  C   UNL     1      10.496  12.272  19.043  0.00  0.00    +0.000 C 
ATOM      9  C   UNL     1      11.512  11.572  18.125  0.00  0.00    +0.000 C 
ATOM     10  C   UNL     1      10.989  12.522  20.413  0.00  0.00    +0.000 C 
ATOM     11  C   UNL     1       9.671  13.262  21.075  0.00  0.00    +0.000 C 
ATOM     12  C   UNL     1      10.410  14.564  21.268  0.00  0.00    +0.000 C 
ATOM     13  C   UNL     1      10.621  14.925  19.741  0.00  0.00    +0.000 A 
ATOM     14  C   UNL     1      10.854  16.267  19.436  0.00  0.00    +0.000 A 
ATOM     15  C   UNL     1      10.960  16.646  18.108  0.00  0.00    +0.000 A 
ATOM     16  C   UNL     1      10.804  15.687  17.098  0.00  0.00    +0.000 A 
ATOM     17  C   UNL     1      10.551  14.327  17.360  0.00  0.00    +0.000 A 
ATOM     18  C   UNL     1      10.473  13.871  18.679  0.00  0.00    +0.000 A 
ATOM     19  C   UNL     1       8.263  13.826  20.509  0.00  0.00    +0.000 C 
ATOM     20  H   UNL     1       8.422  12.046  23.827  0.00  0.00    +0.000 HD
ENDROOT
BRANCH  16  21
ATOM     21  O   UNL     1      10.923  16.068  15.790  0.00  0.00    +0.000 OA
ATOM     22  H   UNL     1      10.153  15.731  15.299  0.00  0.00    +0.000 HD
ENDBRANCH  16  21
TORSDOF 1
ENDMDL
MODEL 9
REMARK VINA RESULT:      -6.3      4.945      7.099
REMARK  Name = 
REMARK  3 active torsions:
REMARK  status: ('A' for Active; 'I' for Inactive)
REMARK    1  A    between atoms: C_1  and  N_2
REMARK    2  A    between atoms: C_8  and  C_9
REMARK    3  A    between atoms: C_16  and  O_17
REMARK                            x       y       z     vdW  Elec       q    Type
REMARK                         _______ _______ _______ _____ _____    ______ ____
ROOT
ATOM      1  C   UNL     1      -1.959  10.027  16.876  0.00  0.00    +0.000 C 
ATOM      2  N   UNL     1      -2.242  10.429  18.242  0.00  0.00    +0.000 NA
ATOM      3  C   UNL     1      -2.692  11.828  18.395  0.00  0.00    +0.000 C 
ATOM      4  N   UNL     1      -1.873  12.680  19.316  0.00  0.00    +0.000 NA
ATOM      5  C   UNL     1      -1.422  11.826  20.389  0.00  0.00    +0.000 C 
ATOM      6  C   UNL     1      -1.312  11.710  21.934  0.00  0.00    +0.000 C 
ATOM      7  C   UNL     1      -0.734  10.171  22.268  0.00  0.00    +0.000 C 
ATOM      8  C   UNL     1       0.706   9.764  21.591  0.00  0.00    +0.000 C 
ATOM      9  C   UNL     1       1.695   9.494  22.738  0.00  0.00    +0.000 C 
ATOM     10  C   UNL     1       0.894  11.069  20.924  0.00  0.00    +0.000 C 
ATOM     11  C   UNL     1      -0.302  10.999  19.790  0.00  0.00    +0.000 C 
ATOM     12  C   UNL     1       0.683  11.004  18.645  0.00  0.00    +0.000 C 
ATOM     13  C   UNL     1       1.352   9.596  18.927  0.00  0.00    +0.000 A 
ATOM     14  C   UNL     1       1.999   8.980  17.855  0.00  0.00    +0.000 A 
ATOM     15  C   UNL     1       2.525   7.710  18.028  0.00  0.00    +0.000 A 
ATOM     16  C   UNL     1       2.376   7.058  19.260  0.00  0.00    +0.000 A 
ATOM     17  C   UNL     1       1.716   7.636  20.361  0.00  0.00    +0.000 A 
ATOM     18  C   UNL     1       1.197   8.931  20.267  0.00  0.00    +0.000 A 
ATOM     19  C   UNL     1      -1.327   9.860  19.265  0.00  0.00    +0.000 C 
ATOM     20  H   UNL     1      -2.467  13.430  19.660  0.00  0.00    +0.000 HD
ENDROOT
BRANCH  16  21
ATOM     21  O   UNL     1       2.910   5.811  19.425  0.00  0.00    +0.000 OA
ATOM     22  H   UNL     1       3.880   5.887  19.428  0.00  0.00    +0.000 HD
ENDBRANCH  16  21
TORSDOF 1
ENDMDL
