MODEL 1
REMARK VINA RESULT:      -7.9      0.000      0.000
REMARK  Name = 
REMARK  4 active torsions:
REMARK  status: ('A' for Active; 'I' for Inactive)
REMARK    1  A    between atoms: C_5  and  C_7
REMARK    2  A    between atoms: C_7  and  C_8
REMARK    3  A    between atoms: C_8  and  N_9
REMARK    4  A    between atoms: C_10  and  C_11
REMARK                            x       y       z     vdW  Elec       q    Type
REMARK                         _______ _______ _______ _____ _____    ______ ____
ROOT
ATOM      1  N   UNL     1       2.451   4.587  18.690  0.00  0.00    +0.000 N 
ATOM      2  C   UNL     1       2.198   4.012  19.923  0.00  0.00    +0.000 A 
ATOM      3  C   UNL     1       1.847   5.042  20.788  0.00  0.00    +0.000 A 
ATOM      4  C   UNL     1       1.922   6.264  20.084  0.00  0.00    +0.000 A 
ATOM      5  C   UNL     1       1.732   7.617  20.412  0.00  0.00    +0.000 A 
ATOM      6  C   UNL     1       1.941   8.559  19.409  0.00  0.00    +0.000 A 
ATOM      7  C   UNL     1       2.307   8.121  18.143  0.00  0.00    +0.000 A 
ATOM      8  N   UNL     1       2.484   6.832  17.772  0.00  0.00    +0.000 NA
ATOM      9  C   UNL     1       2.292   5.956  18.780  0.00  0.00    +0.000 A 
ENDROOT
BRANCH   2  10
ATOM     10  C   UNL     1       2.309   2.565  20.248  0.00  0.00    +0.000 C 
ATOM     11  F   UNL     1       1.826   2.236  21.470  0.00  0.00    +0.000 F 
ATOM     12  F   UNL     1       1.644   1.808  19.341  0.00  0.00    +0.000 F 
ATOM     13  F   UNL     1       3.604   2.158  20.224  0.00  0.00    +0.000 F 
ENDBRANCH   2  10
BRANCH   1  14
ATOM     14  C   UNL     1       2.905   3.924  17.472  0.00  0.00    +0.000 C 
BRANCH  14  15
ATOM     15  C   UNL     1       4.400   3.604  17.482  0.00  0.00    +0.000 C 
BRANCH  15  20
ATOM     16  O   UNL     1       8.110   5.390  20.589  0.00  0.00    +0.000 OA
ATOM     17  C   UNL     1       7.726   5.638  19.449  0.00  0.00    +0.000 C 
ATOM     18  C   UNL     1       6.930   4.615  18.613  0.00  0.00    +0.000 C 
ATOM     19  N   UNL     1       6.362   5.133  17.362  0.00  0.00    +0.000 N 
ATOM     20  C   UNL     1       5.187   4.695  16.770  0.00  0.00    +0.000 C 
ATOM     21  O   UNL     1       4.784   5.171  15.709  0.00  0.00    +0.000 OA
ATOM     22  C   UNL     1       7.195   6.114  16.665  0.00  0.00    +0.000 C 
ATOM     23  C   UNL     1       7.511   7.274  17.604  0.00  0.00    +0.000 C 
ATOM     24  N   UNL     1       8.104   6.811  18.843  0.00  0.00    +0.000 N 
ATOM     25  H   UNL     1       8.577   7.468  19.452  0.00  0.00    +0.000 HD
ENDBRANCH  15  20
ENDBRANCH  14  15
ENDBRANCH   1  14
TORSDOF 4
ENDMDL
MODEL 2
REMARK VINA RESULT:      -7.6      1.604      2.566
REMARK  Name = 
REMARK  4 active torsions:
REMARK  status: ('A' for Active; 'I' for Inactive)
REMARK    1  A    between atoms: C_5  and  C_7
REMARK    2  A    between atoms: C_7  and  C_8
REMARK    3  A    between atoms: C_8  and  N_9
REMARK    4  A    between atoms: C_10  and  C_11
REMARK                            x       y       z     vdW  Elec       q    Type
REMARK                         _______ _______ _______ _____ _____    ______ ____
ROOT
ATOM      1  N   UNL     1       2.085   4.202  19.117  0.00  0.00    +0.000 N 
ATOM      2  C   UNL     1       1.851   3.965  20.461  0.00  0.00    +0.000 A 
ATOM      3  C   UNL     1       1.731   5.204  21.078  0.00  0.00    +0.000 A 
ATOM      4  C   UNL     1       1.931   6.210  20.106  0.00  0.00    +0.000 A 
ATOM      5  C   UNL     1       1.975   7.614  20.119  0.00  0.00    +0.000 A 
ATOM      6  C   UNL     1       2.240   8.263  18.916  0.00  0.00    +0.000 A 
ATOM      7  C   UNL     1       2.430   7.501  17.771  0.00  0.00    +0.000 A 
ATOM      8  N   UNL     1       2.380   6.150  17.702  0.00  0.00    +0.000 NA
ATOM      9  C   UNL     1       2.141   5.564  18.894  0.00  0.00    +0.000 A 
ENDROOT
BRANCH   2  10
ATOM     10  C   UNL     1       1.769   2.629  21.107  0.00  0.00    +0.000 C 
ATOM     11  F   UNL     1       2.958   2.157  21.552  0.00  0.00    +0.000 F 
ATOM     12  F   UNL     1       0.928   2.650  22.170  0.00  0.00    +0.000 F 
ATOM     13  F   UNL     1       1.285   1.698  20.244  0.00  0.00    +0.000 F 
ENDBRANCH   2  10
BRANCH   1  14
ATOM     14  C   UNL     1       2.331   3.220  18.067  0.00  0.00    +0.000 C 
BRANCH  14  15
ATOM     15  C   UNL     1       3.646   2.460  18.250  0.00  0.00    +0.000 C 
BRANCH  15  20
ATOM     16  O   UNL     1       6.072   3.957  13.950  0.00  0.00    +0.000 OA
ATOM     17  C   UNL     1       6.195   4.184  15.152  0.00  0.00    +0.000 C 
ATOM     18  C   UNL     1       5.029   3.993  16.144  0.00  0.00    +0.000 C 
ATOM     19  N   UNL     1       5.390   4.099  17.563  0.00  0.00    +0.000 N 
ATOM     20  C   UNL     1       4.774   3.418  18.602  0.00  0.00    +0.000 C 
ATOM     21  O   UNL     1       5.127   3.572  19.771  0.00  0.00    +0.000 OA
ATOM     22  C   UNL     1       6.416   5.098  17.867  0.00  0.00    +0.000 C 
ATOM     23  C   UNL     1       7.666   4.813  17.040  0.00  0.00    +0.000 C 
ATOM     24  N   UNL     1       7.362   4.731  15.625  0.00  0.00    +0.000 N 
ATOM     25  H   UNL     1       8.111   4.785  14.945  0.00  0.00    +0.000 HD
ENDBRANCH  15  20
ENDBRANCH  14  15
ENDBRANCH   1  14
TORSDOF 4
ENDMDL
MODEL 3
REMARK VINA RESULT:      -7.5      2.389      3.524
REMARK  Name = 
REMARK  4 active torsions:
REMARK  status: ('A' for Active; 'I' for Inactive)
REMARK    1  A    between atoms: C_5  and  C_7
REMARK    2  A    between atoms: C_7  and  C_8
REMARK    3  A    between atoms: C_8  and  N_9
REMARK    4  A    between atoms: C_10  and  C_11
REMARK                            x       y       z     vdW  Elec       q    Type
REMARK                         _______ _______ _______ _____ _____    ______ ____
ROOT
ATOM      1  N   UNL     1       2.708   4.985  18.441  0.00  0.00    +0.000 N 
ATOM      2  C   UNL     1       2.472   6.222  19.015  0.00  0.00    +0.000 A 
ATOM      3  C   UNL     1       2.128   5.996  20.342  0.00  0.00    +0.000 A 
ATOM      4  C   UNL     1       2.117   4.602  20.571  0.00  0.00    +0.000 A 
ATOM      5  C   UNL     1       1.814   3.773  21.664  0.00  0.00    +0.000 A 
ATOM      6  C   UNL     1       1.894   2.397  21.472  0.00  0.00    +0.000 A 
ATOM      7  C   UNL     1       2.280   1.914  20.229  0.00  0.00    +0.000 A 
ATOM      8  N   UNL     1       2.600   2.669  19.151  0.00  0.00    +0.000 NA
ATOM      9  C   UNL     1       2.488   3.994  19.377  0.00  0.00    +0.000 A 
ENDROOT
BRANCH   2  10
ATOM     10  C   UNL     1       2.556   7.534  18.321  0.00  0.00    +0.000 C 
ATOM     11  F   UNL     1       3.755   7.776  17.740  0.00  0.00    +0.000 F 
ATOM     12  F   UNL     1       1.617   7.634  17.348  0.00  0.00    +0.000 F 
ATOM     13  F   UNL     1       2.335   8.558  19.185  0.00  0.00    +0.000 F 
ENDBRANCH   2  10
BRANCH   1  14
ATOM     14  C   UNL     1       3.049   4.696  17.052  0.00  0.00    +0.000 C 
BRANCH  14  15
ATOM     15  C   UNL     1       4.494   4.227  16.871  0.00  0.00    +0.000 C 
BRANCH  15  20
ATOM     16  O   UNL     1       8.049   5.245  20.467  0.00  0.00    +0.000 OA
ATOM     17  C   UNL     1       7.758   5.705  19.365  0.00  0.00    +0.000 C 
ATOM     18  C   UNL     1       6.979   4.886  18.316  0.00  0.00    +0.000 C 
ATOM     19  N   UNL     1       6.525   5.641  17.141  0.00  0.00    +0.000 N 
ATOM     20  C   UNL     1       5.377   5.377  16.410  0.00  0.00    +0.000 C 
ATOM     21  O   UNL     1       5.072   6.050  15.425  0.00  0.00    +0.000 OA
ATOM     22  C   UNL     1       7.449   6.678  16.679  0.00  0.00    +0.000 C 
ATOM     23  C   UNL     1       7.748   7.642  17.823  0.00  0.00    +0.000 C 
ATOM     24  N   UNL     1       8.231   6.941  18.997  0.00  0.00    +0.000 N 
ATOM     25  H   UNL     1       8.688   7.457  19.739  0.00  0.00    +0.000 HD
ENDBRANCH  15  20
ENDBRANCH  14  15
ENDBRANCH   1  14
TORSDOF 4
ENDMDL
MODEL 4
REMARK VINA RESULT:      -7.4      3.068      4.524
REMARK  Name = 
REMARK  4 active torsions:
REMARK  status: ('A' for Active; 'I' for Inactive)
REMARK    1  A    between atoms: C_5  and  C_7
REMARK    2  A    between atoms: C_7  and  C_8
REMARK    3  A    between atoms: C_8  and  N_9
REMARK    4  A    between atoms: C_10  and  C_11
REMARK                            x       y       z     vdW  Elec       q    Type
REMARK                         _______ _______ _______ _____ _____    ______ ____
ROOT
ATOM      1  N   UNL     1       2.633   6.794  19.489  0.00  0.00    +0.000 N 
ATOM      2  C   UNL     1       3.243   6.729  18.248  0.00  0.00    +0.000 A 
ATOM      3  C   UNL     1       2.906   7.894  17.569  0.00  0.00    +0.000 A 
ATOM      4  C   UNL     1       2.051   8.661  18.391  0.00  0.00    +0.000 A 
ATOM      5  C   UNL     1       1.363   9.879  18.253  0.00  0.00    +0.000 A 
ATOM      6  C   UNL     1       0.566  10.294  19.316  0.00  0.00    +0.000 A 
ATOM      7  C   UNL     1       0.503   9.502  20.456  0.00  0.00    +0.000 A 
ATOM      8  N   UNL     1       1.159   8.334  20.645  0.00  0.00    +0.000 NA
ATOM      9  C   UNL     1       1.901   7.961  19.582  0.00  0.00    +0.000 A 
ENDROOT
BRANCH   2  10
ATOM     10  C   UNL     1       4.079   5.607  17.746  0.00  0.00    +0.000 C 
ATOM     11  F   UNL     1       4.711   4.911  18.720  0.00  0.00    +0.000 F 
ATOM     12  F   UNL     1       3.335   4.719  17.043  0.00  0.00    +0.000 F 
ATOM     13  F   UNL     1       5.047   6.058  16.907  0.00  0.00    +0.000 F 
ENDBRANCH   2  10
BRANCH   1  14
ATOM     14  C   UNL     1       2.645   5.784  20.543  0.00  0.00    +0.000 C 
BRANCH  14  15
ATOM     15  C   UNL     1       1.387   4.915  20.558  0.00  0.00    +0.000 C 
BRANCH  15  20
ATOM     16  O   UNL     1       5.348   1.698  21.312  0.00  0.00    +0.000 OA
ATOM     17  C   UNL     1       4.468   1.822  20.464  0.00  0.00    +0.000 C 
ATOM     18  C   UNL     1       3.143   2.554  20.761  0.00  0.00    +0.000 C 
ATOM     19  N   UNL     1       2.289   2.804  19.593  0.00  0.00    +0.000 N 
ATOM     20  C   UNL     1       1.433   3.885  19.440  0.00  0.00    +0.000 C 
ATOM     21  O   UNL     1       0.737   4.016  18.433  0.00  0.00    +0.000 OA
ATOM     22  C   UNL     1       2.296   1.744  18.584  0.00  0.00    +0.000 C 
ATOM     23  C   UNL     1       3.728   1.485  18.126  0.00  0.00    +0.000 C 
ATOM     24  N   UNL     1       4.602   1.201  19.247  0.00  0.00    +0.000 N 
ATOM     25  H   UNL     1       5.511   0.783  19.084  0.00  0.00    +0.000 HD
ENDBRANCH  15  20
ENDBRANCH  14  15
ENDBRANCH   1  14
TORSDOF 4
ENDMDL
MODEL 5
REMARK VINA RESULT:      -7.3      3.792      6.424
REMARK  Name = 
REMARK  4 active torsions:
REMARK  status: ('A' for Active; 'I' for Inactive)
REMARK    1  A    between atoms: C_5  and  C_7
REMARK    2  A    between atoms: C_7  and  C_8
REMARK    3  A    between atoms: C_8  and  N_9
REMARK    4  A    between atoms: C_10  and  C_11
REMARK                            x       y       z     vdW  Elec       q    Type
REMARK                         _______ _______ _______ _____ _____    ______ ____
ROOT
ATOM      1  N   UNL     1       3.451   5.716  17.818  0.00  0.00    +0.000 N 
ATOM      2  C   UNL     1       4.429   5.361  16.905  0.00  0.00    +0.000 A 
ATOM      3  C   UNL     1       4.341   3.985  16.728  0.00  0.00    +0.000 A 
ATOM      4  C   UNL     1       3.322   3.489  17.572  0.00  0.00    +0.000 A 
ATOM      5  C   UNL     1       2.802   2.218  17.866  0.00  0.00    +0.000 A 
ATOM      6  C   UNL     1       1.785   2.141  18.813  0.00  0.00    +0.000 A 
ATOM      7  C   UNL     1       1.326   3.312  19.403  0.00  0.00    +0.000 A 
ATOM      8  N   UNL     1       1.780   4.560  19.140  0.00  0.00    +0.000 NA
ATOM      9  C   UNL     1       2.778   4.584  18.233  0.00  0.00    +0.000 A 
ENDROOT
BRANCH   2  10
ATOM     10  C   UNL     1       5.397   6.288  16.261  0.00  0.00    +0.000 C 
ATOM     11  F   UNL     1       6.096   7.050  17.135  0.00  0.00    +0.000 F 
ATOM     12  F   UNL     1       6.302   5.609  15.514  0.00  0.00    +0.000 F 
ATOM     13  F   UNL     1       4.764   7.148  15.422  0.00  0.00    +0.000 F 
ENDBRANCH   2  10
BRANCH   1  14
ATOM     14  C   UNL     1       3.181   7.041  18.366  0.00  0.00    +0.000 C 
BRANCH  14  15
ATOM     15  C   UNL     1       1.829   7.608  17.931  0.00  0.00    +0.000 C 
BRANCH  15  20
ATOM     16  O   UNL     1      -0.766   8.383  22.321  0.00  0.00    +0.000 OA
ATOM     17  C   UNL     1      -0.219   9.100  21.486  0.00  0.00    +0.000 C 
ATOM     18  C   UNL     1       0.891   8.573  20.555  0.00  0.00    +0.000 C 
ATOM     19  N   UNL     1       1.292   9.485  19.477  0.00  0.00    +0.000 N 
ATOM     20  C   UNL     1       1.753   9.099  18.227  0.00  0.00    +0.000 C 
ATOM     21  O   UNL     1       2.084   9.927  17.379  0.00  0.00    +0.000 OA
ATOM     22  C   UNL     1       1.291  10.904  19.835  0.00  0.00    +0.000 C 
ATOM     23  C   UNL     1      -0.089  11.297  20.354  0.00  0.00    +0.000 C 
ATOM     24  N   UNL     1      -0.513  10.441  21.444  0.00  0.00    +0.000 N 
ATOM     25  H   UNL     1      -1.285  10.724  22.036  0.00  0.00    +0.000 HD
ENDBRANCH  15  20
ENDBRANCH  14  15
ENDBRANCH   1  14
TORSDOF 4
ENDMDL
MODEL 6
REMARK VINA RESULT:      -7.3      3.306      5.931
REMARK  Name = 
REMARK  4 active torsions:
REMARK  status: ('A' for Active; 'I' for Inactive)
REMARK    1  A    between atoms: C_5  and  C_7
REMARK    2  A    between atoms: C_7  and  C_8
REMARK    3  A    between atoms: C_8  and  N_9
REMARK    4  A    between atoms: C_10  and  C_11
REMARK                            x       y       z     vdW  Elec       q    Type
REMARK                         _______ _______ _______ _____ _____    ______ ____
ROOT
ATOM      1  N   UNL     1       3.449   5.622  18.647  0.00  0.00    +0.000 N 
ATOM      2  C   UNL     1       3.378   4.388  19.270  0.00  0.00    +0.000 A 
ATOM      3  C   UNL     1       4.645   3.822  19.197  0.00  0.00    +0.000 A 
ATOM      4  C   UNL     1       5.491   4.705  18.490  0.00  0.00    +0.000 A 
ATOM      5  C   UNL     1       6.831   4.679  18.069  0.00  0.00    +0.000 A 
ATOM      6  C   UNL     1       7.299   5.769  17.340  0.00  0.00    +0.000 A 
ATOM      7  C   UNL     1       6.435   6.825  17.082  0.00  0.00    +0.000 A 
ATOM      8  N   UNL     1       5.144   6.907  17.482  0.00  0.00    +0.000 NA
ATOM      9  C   UNL     1       4.728   5.820  18.165  0.00  0.00    +0.000 A 
ENDROOT
BRANCH   2  10
ATOM     10  C   UNL     1       2.160   3.788  19.876  0.00  0.00    +0.000 C 
ATOM     11  F   UNL     1       1.655   4.495  20.914  0.00  0.00    +0.000 F 
ATOM     12  F   UNL     1       1.168   3.663  18.960  0.00  0.00    +0.000 F 
ATOM     13  F   UNL     1       2.415   2.540  20.348  0.00  0.00    +0.000 F 
ENDBRANCH   2  10
BRANCH   1  14
ATOM     14  C   UNL     1       2.365   6.572  18.422  0.00  0.00    +0.000 C 
BRANCH  14  15
ATOM     15  C   UNL     1       2.162   7.543  19.586  0.00  0.00    +0.000 C 
BRANCH  15  20
ATOM     16  O   UNL     1      -0.028   9.959  23.583  0.00  0.00    +0.000 OA
ATOM     17  C   UNL     1       0.066  10.167  22.376  0.00  0.00    +0.000 C 
ATOM     18  C   UNL     1       1.189   9.544  21.522  0.00  0.00    +0.000 C 
ATOM     19  N   UNL     1       1.042   9.713  20.071  0.00  0.00    +0.000 N 
ATOM     20  C   UNL     1       1.487   8.819  19.108  0.00  0.00    +0.000 C 
ATOM     21  O   UNL     1       1.338   9.042  17.907  0.00  0.00    +0.000 OA
ATOM     22  C   UNL     1       0.471  10.995  19.654  0.00  0.00    +0.000 C 
ATOM     23  C   UNL     1      -0.880  11.196  20.333  0.00  0.00    +0.000 C 
ATOM     24  N   UNL     1      -0.777  11.069  21.773  0.00  0.00    +0.000 N 
ATOM     25  H   UNL     1      -1.527  11.406  22.364  0.00  0.00    +0.000 HD
ENDBRANCH  15  20
ENDBRANCH  14  15
ENDBRANCH   1  14
TORSDOF 4
ENDMDL
MODEL 7
REMARK VINA RESULT:      -7.3      2.940      5.677
REMARK  Name = 
REMARK  4 active torsions:
REMARK  status: ('A' for Active; 'I' for Inactive)
REMARK    1  A    between atoms: C_5  and  C_7
REMARK    2  A    between atoms: C_7  and  C_8
REMARK    3  A    between atoms: C_8  and  N_9
REMARK    4  A    between atoms: C_10  and  C_11
REMARK                            x       y       z     vdW  Elec       q    Type
REMARK                         _______ _______ _______ _____ _____    ______ ____
ROOT
ATOM      1  N   UNL     1       3.007   4.842  17.794  0.00  0.00    +0.000 N 
ATOM      2  C   UNL     1       2.930   3.508  18.156  0.00  0.00    +0.000 A 
ATOM      3  C   UNL     1       4.057   2.881  17.638  0.00  0.00    +0.000 A 
ATOM      4  C   UNL     1       4.812   3.835  16.920  0.00  0.00    +0.000 A 
ATOM      5  C   UNL     1       5.993   3.806  16.160  0.00  0.00    +0.000 A 
ATOM      6  C   UNL     1       6.405   4.994  15.564  0.00  0.00    +0.000 A 
ATOM      7  C   UNL     1       5.649   6.142  15.760  0.00  0.00    +0.000 A 
ATOM      8  N   UNL     1       4.517   6.227  16.497  0.00  0.00    +0.000 NA
ATOM      9  C   UNL     1       4.143   5.049  17.038  0.00  0.00    +0.000 A 
ENDROOT
BRANCH   2  10
ATOM     10  C   UNL     1       1.830   2.878  18.934  0.00  0.00    +0.000 C 
ATOM     11  F   UNL     1       1.600   3.461  20.134  0.00  0.00    +0.000 F 
ATOM     12  F   UNL     1       0.663   2.913  18.246  0.00  0.00    +0.000 F 
ATOM     13  F   UNL     1       2.098   1.571  19.186  0.00  0.00    +0.000 F 
ENDBRANCH   2  10
BRANCH   1  14
ATOM     14  C   UNL     1       2.032   5.896  18.059  0.00  0.00    +0.000 C 
BRANCH  14  15
ATOM     15  C   UNL     1       2.554   6.974  19.010  0.00  0.00    +0.000 C 
BRANCH  15  20
ATOM     16  O   UNL     1      -0.592   9.008  22.555  0.00  0.00    +0.000 OA
ATOM     17  C   UNL     1      -0.148   9.367  21.467  0.00  0.00    +0.000 C 
ATOM     18  C   UNL     1       1.147   8.773  20.876  0.00  0.00    +0.000 C 
ATOM     19  N   UNL     1       1.429   9.144  19.484  0.00  0.00    +0.000 N 
ATOM     20  C   UNL     1       2.096   8.353  18.560  0.00  0.00    +0.000 C 
ATOM     21  O   UNL     1       2.307   8.743  17.412  0.00  0.00    +0.000 OA
ATOM     22  C   UNL     1       1.054  10.511  19.121  0.00  0.00    +0.000 C 
ATOM     23  C   UNL     1      -0.427  10.730  19.420  0.00  0.00    +0.000 C 
ATOM     24  N   UNL     1      -0.745  10.405  20.796  0.00  0.00    +0.000 N 
ATOM     25  H   UNL     1      -1.620  10.721  21.199  0.00  0.00    +0.000 HD
ENDBRANCH  15  20
ENDBRANCH  14  15
ENDBRANCH   1  14
TORSDOF 4
ENDMDL
MODEL 8
REMARK VINA RESULT:      -7.3      3.365      5.021
REMARK  Name = 
REMARK  4 active torsions:
REMARK  status: ('A' for Active; 'I' for Inactive)
REMARK    1  A    between atoms: C_5  and  C_7
REMARK    2  A    between atoms: C_7  and  C_8
REMARK    3  A    between atoms: C_8  and  N_9
REMARK    4  A    between atoms: C_10  and  C_11
REMARK                            x       y       z     vdW  Elec       q    Type
REMARK                         _______ _______ _______ _____ _____    ______ ____
ROOT
ATOM      1  N   UNL     1       4.276   4.871  18.704  0.00  0.00    +0.000 N 
ATOM      2  C   UNL     1       3.678   6.044  18.278  0.00  0.00    +0.000 A 
ATOM      3  C   UNL     1       2.429   6.108  18.885  0.00  0.00    +0.000 A 
ATOM      4  C   UNL     1       2.247   4.942  19.661  0.00  0.00    +0.000 A 
ATOM      5  C   UNL     1       1.208   4.422  20.451  0.00  0.00    +0.000 A 
ATOM      6  C   UNL     1       1.411   3.181  21.048  0.00  0.00    +0.000 A 
ATOM      7  C   UNL     1       2.623   2.531  20.850  0.00  0.00    +0.000 A 
ATOM      8  N   UNL     1       3.660   2.997  20.116  0.00  0.00    +0.000 NA
ATOM      9  C   UNL     1       3.411   4.192  19.540  0.00  0.00    +0.000 A 
ENDROOT
BRANCH   2  10
ATOM     10  C   UNL     1       4.267   7.028  17.332  0.00  0.00    +0.000 C 
ATOM     11  F   UNL     1       5.530   7.405  17.644  0.00  0.00    +0.000 F 
ATOM     12  F   UNL     1       4.301   6.534  16.071  0.00  0.00    +0.000 F 
ATOM     13  F   UNL     1       3.527   8.166  17.287  0.00  0.00    +0.000 F 
ENDBRANCH   2  10
BRANCH   1  14
ATOM     14  C   UNL     1       5.571   4.332  18.303  0.00  0.00    +0.000 C 
BRANCH  14  15
ATOM     15  C   UNL     1       5.571   3.757  16.886  0.00  0.00    +0.000 C 
BRANCH  15  20
ATOM     16  O   UNL     1       4.559   3.064  11.875  0.00  0.00    +0.000 OA
ATOM     17  C   UNL     1       5.452   3.606  12.524  0.00  0.00    +0.000 C 
ATOM     18  C   UNL     1       5.234   4.084  13.974  0.00  0.00    +0.000 C 
ATOM     19  N   UNL     1       6.447   4.513  14.681  0.00  0.00    +0.000 N 
ATOM     20  C   UNL     1       6.664   4.401  16.046  0.00  0.00    +0.000 C 
ATOM     21  O   UNL     1       7.706   4.800  16.567  0.00  0.00    +0.000 OA
ATOM     22  C   UNL     1       7.432   5.209  13.852  0.00  0.00    +0.000 C 
ATOM     23  C   UNL     1       7.815   4.328  12.667  0.00  0.00    +0.000 C 
ATOM     24  N   UNL     1       6.647   3.905  11.919  0.00  0.00    +0.000 N 
ATOM     25  H   UNL     1       6.757   3.522  10.987  0.00  0.00    +0.000 HD
ENDBRANCH  15  20
ENDBRANCH  14  15
ENDBRANCH   1  14
TORSDOF 4
ENDMDL
MODEL 9
REMARK VINA RESULT:      -7.2      3.546      6.850
REMARK  Name = 
REMARK  4 active torsions:
REMARK  status: ('A' for Active; 'I' for Inactive)
REMARK    1  A    between atoms: C_5  and  C_7
REMARK    2  A    between atoms: C_7  and  C_8
REMARK    3  A    between atoms: C_8  and  N_9
REMARK    4  A    between atoms: C_10  and  C_11
REMARK                            x       y       z     vdW  Elec       q    Type
REMARK                         _______ _______ _______ _____ _____    ______ ____
ROOT
ATOM      1  N   UNL     1       5.794   4.887  15.645  0.00  0.00    +0.000 N 
ATOM      2  C   UNL     1       6.923   5.612  15.985  0.00  0.00    +0.000 A 
ATOM      3  C   UNL     1       7.754   5.617  14.871  0.00  0.00    +0.000 A 
ATOM      4  C   UNL     1       7.142   4.854  13.851  0.00  0.00    +0.000 A 
ATOM      5  C   UNL     1       7.496   4.466  12.549  0.00  0.00    +0.000 A 
ATOM      6  C   UNL     1       6.603   3.655  11.853  0.00  0.00    +0.000 A 
ATOM      7  C   UNL     1       5.412   3.288  12.465  0.00  0.00    +0.000 A 
ATOM      8  N   UNL     1       5.018   3.651  13.708  0.00  0.00    +0.000 NA
ATOM      9  C   UNL     1       5.922   4.417  14.352  0.00  0.00    +0.000 A 
ENDROOT
BRANCH   2  10
ATOM     10  C   UNL     1       7.188   6.242  17.305  0.00  0.00    +0.000 C 
ATOM     11  F   UNL     1       7.814   5.428  18.189  0.00  0.00    +0.000 F 
ATOM     12  F   UNL     1       7.957   7.350  17.173  0.00  0.00    +0.000 F 
ATOM     13  F   UNL     1       6.031   6.636  17.898  0.00  0.00    +0.000 F 
ENDBRANCH   2  10
BRANCH   1  14
ATOM     14  C   UNL     1       4.656   4.555  16.496  0.00  0.00    +0.000 C 
BRANCH  14  15
ATOM     15  C   UNL     1       4.838   3.245  17.262  0.00  0.00    +0.000 C 
BRANCH  15  20
ATOM     16  O   UNL     1      -0.063   2.125  18.416  0.00  0.00    +0.000 OA
ATOM     17  C   UNL     1       0.919   2.515  19.043  0.00  0.00    +0.000 C 
ATOM     18  C   UNL     1       2.357   2.285  18.536  0.00  0.00    +0.000 C 
ATOM     19  N   UNL     1       3.406   2.990  19.283  0.00  0.00    +0.000 N 
ATOM     20  C   UNL     1       4.599   3.456  18.750  0.00  0.00    +0.000 C 
ATOM     21  O   UNL     1       5.436   4.027  19.448  0.00  0.00    +0.000 OA
ATOM     22  C   UNL     1       3.176   3.091  20.726  0.00  0.00    +0.000 C 
ATOM     23  C   UNL     1       1.828   3.756  20.982  0.00  0.00    +0.000 C 
ATOM     24  N   UNL     1       0.755   3.072  20.287  0.00  0.00    +0.000 N 
ATOM     25  H   UNL     1      -0.208   3.250  20.548  0.00  0.00    +0.000 HD
ENDBRANCH  15  20
ENDBRANCH  14  15
ENDBRANCH   1  14
TORSDOF 4
ENDMDL
