MODEL 1
REMARK VINA RESULT:      -6.4      0.000      0.000
REMARK  Name = 
REMARK  9 active torsions:
REMARK  status: ('A' for Active; 'I' for Inactive)
REMARK    1  A    between atoms: C_1  and  O_2
REMARK    2  A    between atoms: O_2  and  C_3
REMARK    3  A    between atoms: C_5  and  O_6
REMARK    4  A    between atoms: C_10  and  O_11
REMARK    5  A    between atoms: C_16  and  O_17
REMARK    6  A    between atoms: C_18  and  O_19
REMARK    7  A    between atoms: C_20  and  C_21
REMARK    8  A    between atoms: C_20  and  O_22
REMARK    9  A    between atoms: C_23  and  O_24
REMARK                            x       y       z     vdW  Elec       q    Type
REMARK                         _______ _______ _______ _____ _____    ______ ____
ROOT
ATOM      1  C   UNL     1       2.323   5.639  20.451  0.00  0.00    +0.000 A 
ATOM      2  C   UNL     1       2.982   5.969  19.265  0.00  0.00    +0.000 A 
ATOM      3  C   UNL     1       2.758   7.210  18.660  0.00  0.00    +0.000 A 
ATOM      4  C   UNL     1       1.880   8.140  19.235  0.00  0.00    +0.000 A 
ATOM      5  C   UNL     1       1.247   7.834  20.449  0.00  0.00    +0.000 A 
ATOM      6  C   UNL     1       1.501   6.585  21.055  0.00  0.00    +0.000 A 
ATOM      7  C   UNL     1       0.371   8.815  21.180  0.00  0.00    +0.000 C 
ATOM      8  C   UNL     1      -0.094   9.998  20.322  0.00  0.00    +0.000 C 
ATOM      9  C   UNL     1       1.060  10.565  19.481  0.00  0.00    +0.000 C 
ATOM     10  C   UNL     1       1.553   9.439  18.573  0.00  0.00    +0.000 C 
ATOM     11  O   UNL     1       1.637   9.557  17.352  0.00  0.00    +0.000 OA
ATOM     12  C   UNL     1       0.583  11.778  18.656  0.00  0.00    +0.000 C 
ATOM     13  C   UNL     1      -0.141  12.850  19.508  0.00  0.00    +0.000 C 
ATOM     14  C   UNL     1      -1.268  12.266  20.376  0.00  0.00    +0.000 C 
ATOM     15  C   UNL     1      -1.884  13.345  21.277  0.00  0.00    +0.000 C 
ATOM     16  C   UNL     1      -0.750  11.076  21.212  0.00  0.00    +0.000 C 
ENDROOT
BRANCH   1  18
ATOM     17  C   UNL     1       1.485   3.501  20.950  0.00  0.00    +0.000 C 
ATOM     18  O   UNL     1       2.589   4.403  20.967  0.00  0.00    +0.000 OA
ENDBRANCH   1  18
BRANCH   3  19
ATOM     19  O   UNL     1       3.451   7.519  17.527  0.00  0.00    +0.000 OA
ATOM     20  H   UNL     1       2.896   7.378  16.743  0.00  0.00    +0.000 HD
ENDBRANCH   3  19
BRANCH   7  21
ATOM     21  O   UNL     1      -0.787   8.131  21.661  0.00  0.00    +0.000 OA
ATOM     22  H   UNL     1      -1.494   8.236  20.998  0.00  0.00    +0.000 HD
ENDBRANCH   7  21
BRANCH  12  23
ATOM     23  O   UNL     1       1.677  12.435  18.002  0.00  0.00    +0.000 OA
ATOM     24  H   UNL     1       1.340  13.085  17.364  0.00  0.00    +0.000 HD
ENDBRANCH  12  23
BRANCH  13  25
ATOM     25  O   UNL     1      -0.706  13.865  18.657  0.00  0.00    +0.000 OA
ATOM     26  H   UNL     1      -1.515  14.197  19.091  0.00  0.00    +0.000 HD
ENDBRANCH  13  25
BRANCH  14  27
ATOM     27  O   UNL     1      -2.306  11.795  19.499  0.00  0.00    +0.000 OA
ATOM     28  H   UNL     1      -2.458  10.860  19.744  0.00  0.00    +0.000 HD
ENDBRANCH  14  27
BRANCH  16  29
ATOM     29  O   UNL     1       0.158  11.493  22.237  0.00  0.00    +0.000 OA
ATOM     30  H   UNL     1       1.073  11.263  22.013  0.00  0.00    +0.000 HD
ENDBRANCH  16  29
TORSDOF 7
ENDMDL
MODEL 2
REMARK VINA RESULT:      -6.4      1.508      3.541
REMARK  Name = 
REMARK  9 active torsions:
REMARK  status: ('A' for Active; 'I' for Inactive)
REMARK    1  A    between atoms: C_1  and  O_2
REMARK    2  A    between atoms: O_2  and  C_3
REMARK    3  A    between atoms: C_5  and  O_6
REMARK    4  A    between atoms: C_10  and  O_11
REMARK    5  A    between atoms: C_16  and  O_17
REMARK    6  A    between atoms: C_18  and  O_19
REMARK    7  A    between atoms: C_20  and  C_21
REMARK    8  A    between atoms: C_20  and  O_22
REMARK    9  A    between atoms: C_23  and  O_24
REMARK                            x       y       z     vdW  Elec       q    Type
REMARK                         _______ _______ _______ _____ _____    ______ ____
ROOT
ATOM      1  C   UNL     1       3.371   6.412  17.783  0.00  0.00    +0.000 A 
ATOM      2  C   UNL     1       3.156   5.825  19.031  0.00  0.00    +0.000 A 
ATOM      3  C   UNL     1       2.459   6.524  20.023  0.00  0.00    +0.000 A 
ATOM      4  C   UNL     1       1.963   7.812  19.780  0.00  0.00    +0.000 A 
ATOM      5  C   UNL     1       2.137   8.391  18.513  0.00  0.00    +0.000 A 
ATOM      6  C   UNL     1       2.824   7.663  17.518  0.00  0.00    +0.000 A 
ATOM      7  C   UNL     1       1.548   9.724  18.141  0.00  0.00    +0.000 C 
ATOM      8  C   UNL     1       1.098  10.567  19.341  0.00  0.00    +0.000 C 
ATOM      9  C   UNL     1       0.336   9.714  20.367  0.00  0.00    +0.000 C 
ATOM     10  C   UNL     1       1.290   8.618  20.842  0.00  0.00    +0.000 C 
ATOM     11  O   UNL     1       1.542   8.424  22.029  0.00  0.00    +0.000 OA
ATOM     12  C   UNL     1      -0.141  10.588  21.546  0.00  0.00    +0.000 C 
ATOM     13  C   UNL     1      -0.918  11.850  21.098  0.00  0.00    +0.000 C 
ATOM     14  C   UNL     1      -0.164  12.674  20.041  0.00  0.00    +0.000 C 
ATOM     15  C   UNL     1      -1.016  13.854  19.553  0.00  0.00    +0.000 C 
ATOM     16  C   UNL     1       0.271  11.779  18.861  0.00  0.00    +0.000 C 
ENDROOT
BRANCH   1  18
ATOM     17  C   UNL     1       5.169   6.344  16.271  0.00  0.00    +0.000 C 
ATOM     18  O   UNL     1       4.071   5.667  16.877  0.00  0.00    +0.000 OA
ENDBRANCH   1  18
BRANCH   3  19
ATOM     19  O   UNL     1       2.227   5.905  21.217  0.00  0.00    +0.000 OA
ATOM     20  H   UNL     1       1.367   6.176  21.576  0.00  0.00    +0.000 HD
ENDBRANCH   3  19
BRANCH   7  21
ATOM     21  O   UNL     1       2.521  10.472  17.411  0.00  0.00    +0.000 OA
ATOM     22  H   UNL     1       3.010  11.028  18.046  0.00  0.00    +0.000 HD
ENDBRANCH   7  21
BRANCH  12  23
ATOM     23  O   UNL     1      -1.006   9.857  22.427  0.00  0.00    +0.000 OA
ATOM     24  H   UNL     1      -1.343   9.064  21.978  0.00  0.00    +0.000 HD
ENDBRANCH  12  23
BRANCH  13  25
ATOM     25  O   UNL     1      -1.184  12.700  22.229  0.00  0.00    +0.000 OA
ATOM     26  H   UNL     1      -1.371  12.122  22.995  0.00  0.00    +0.000 HD
ENDBRANCH  13  25
BRANCH  14  27
ATOM     27  O   UNL     1       1.013  13.222  20.662  0.00  0.00    +0.000 OA
ATOM     28  H   UNL     1       1.335  12.532  21.275  0.00  0.00    +0.000 HD
ENDBRANCH  14  27
BRANCH  16  29
ATOM     29  O   UNL     1      -0.844  11.341  18.079  0.00  0.00    +0.000 OA
ATOM     30  H   UNL     1      -0.564  10.742  17.370  0.00  0.00    +0.000 HD
ENDBRANCH  16  29
TORSDOF 7
ENDMDL
MODEL 3
REMARK VINA RESULT:      -6.2      2.229      7.169
REMARK  Name = 
REMARK  9 active torsions:
REMARK  status: ('A' for Active; 'I' for Inactive)
REMARK    1  A    between atoms: C_1  and  O_2
REMARK    2  A    between atoms: O_2  and  C_3
REMARK    3  A    between atoms: C_5  and  O_6
REMARK    4  A    between atoms: C_10  and  O_11
REMARK    5  A    between atoms: C_16  and  O_17
REMARK    6  A    between atoms: C_18  and  O_19
REMARK    7  A    between atoms: C_20  and  C_21
REMARK    8  A    between atoms: C_20  and  O_22
REMARK    9  A    between atoms: C_23  and  O_24
REMARK                            x       y       z     vdW  Elec       q    Type
REMARK                         _______ _______ _______ _____ _____    ______ ____
ROOT
ATOM      1  C   UNL     1       0.538   9.236  20.674  0.00  0.00    +0.000 A 
ATOM      2  C   UNL     1       1.031   9.908  19.554  0.00  0.00    +0.000 A 
ATOM      3  C   UNL     1       1.880   9.249  18.658  0.00  0.00    +0.000 A 
ATOM      4  C   UNL     1       2.241   7.910  18.865  0.00  0.00    +0.000 A 
ATOM      5  C   UNL     1       1.715   7.214  19.964  0.00  0.00    +0.000 A 
ATOM      6  C   UNL     1       0.843   7.890  20.846  0.00  0.00    +0.000 A 
ATOM      7  C   UNL     1       1.971   5.751  20.199  0.00  0.00    +0.000 C 
ATOM      8  C   UNL     1       3.149   5.185  19.395  0.00  0.00    +0.000 C 
ATOM      9  C   UNL     1       3.118   5.677  17.940  0.00  0.00    +0.000 C 
ATOM     10  C   UNL     1       3.211   7.202  17.976  0.00  0.00    +0.000 C 
ATOM     11  O   UNL     1       4.062   7.832  17.352  0.00  0.00    +0.000 OA
ATOM     12  C   UNL     1       4.287   5.066  17.139  0.00  0.00    +0.000 C 
ATOM     13  C   UNL     1       4.376   3.525  17.265  0.00  0.00    +0.000 C 
ATOM     14  C   UNL     1       4.365   3.042  18.725  0.00  0.00    +0.000 C 
ATOM     15  C   UNL     1       4.349   1.509  18.796  0.00  0.00    +0.000 C 
ATOM     16  C   UNL     1       3.167   3.644  19.489  0.00  0.00    +0.000 C 
ENDROOT
BRANCH   1  18
ATOM     17  C   UNL     1      -0.161   9.620  22.884  0.00  0.00    +0.000 C 
ATOM     18  O   UNL     1      -0.273   9.956  21.503  0.00  0.00    +0.000 OA
ENDBRANCH   1  18
BRANCH   3  19
ATOM     19  O   UNL     1       2.309   9.920  17.550  0.00  0.00    +0.000 OA
ATOM     20  H   UNL     1       2.420   9.307  16.806  0.00  0.00    +0.000 HD
ENDBRANCH   3  19
BRANCH   7  21
ATOM     21  O   UNL     1       2.240   5.546  21.587  0.00  0.00    +0.000 OA
ATOM     22  H   UNL     1       3.157   5.832  21.760  0.00  0.00    +0.000 HD
ENDBRANCH   7  21
BRANCH  12  23
ATOM     23  O   UNL     1       4.179   5.364  15.740  0.00  0.00    +0.000 OA
ATOM     24  H   UNL     1       4.659   4.698  15.221  0.00  0.00    +0.000 HD
ENDBRANCH  12  23
BRANCH  13  25
ATOM     25  O   UNL     1       5.578   3.042  16.637  0.00  0.00    +0.000 OA
ATOM     26  H   UNL     1       6.263   3.731  16.742  0.00  0.00    +0.000 HD
ENDBRANCH  13  25
BRANCH  14  27
ATOM     27  O   UNL     1       5.582   3.488  19.349  0.00  0.00    +0.000 OA
ATOM     28  H   UNL     1       5.404   4.400  19.657  0.00  0.00    +0.000 HD
ENDBRANCH  14  27
BRANCH  16  29
ATOM     29  O   UNL     1       1.919   3.105  19.044  0.00  0.00    +0.000 OA
ATOM     30  H   UNL     1       1.171   3.626  19.376  0.00  0.00    +0.000 HD
ENDBRANCH  16  29
TORSDOF 7
ENDMDL
MODEL 4
REMARK VINA RESULT:      -6.2      4.129      5.944
REMARK  Name = 
REMARK  9 active torsions:
REMARK  status: ('A' for Active; 'I' for Inactive)
REMARK    1  A    between atoms: C_1  and  O_2
REMARK    2  A    between atoms: O_2  and  C_3
REMARK    3  A    between atoms: C_5  and  O_6
REMARK    4  A    between atoms: C_10  and  O_11
REMARK    5  A    between atoms: C_16  and  O_17
REMARK    6  A    between atoms: C_18  and  O_19
REMARK    7  A    between atoms: C_20  and  C_21
REMARK    8  A    between atoms: C_20  and  O_22
REMARK    9  A    between atoms: C_23  and  O_24
REMARK                            x       y       z     vdW  Elec       q    Type
REMARK                         _______ _______ _______ _____ _____    ______ ____
ROOT
ATOM      1  C   UNL     1      -3.458  10.471  16.418  0.00  0.00    +0.000 A 
ATOM      2  C   UNL     1      -2.122  10.086  16.538  0.00  0.00    +0.000 A 
ATOM      3  C   UNL     1      -1.378  10.479  17.656  0.00  0.00    +0.000 A 
ATOM      4  C   UNL     1      -1.959  11.255  18.669  0.00  0.00    +0.000 A 
ATOM      5  C   UNL     1      -3.314  11.609  18.576  0.00  0.00    +0.000 A 
ATOM      6  C   UNL     1      -4.055  11.186  17.451  0.00  0.00    +0.000 A 
ATOM      7  C   UNL     1      -4.037  12.351  19.666  0.00  0.00    +0.000 C 
ATOM      8  C   UNL     1      -3.110  13.030  20.682  0.00  0.00    +0.000 C 
ATOM      9  C   UNL     1      -1.961  12.099  21.098  0.00  0.00    +0.000 C 
ATOM     10  C   UNL     1      -1.172  11.763  19.832  0.00  0.00    +0.000 C 
ATOM     11  O   UNL     1       0.041  11.938  19.738  0.00  0.00    +0.000 OA
ATOM     12  C   UNL     1      -1.062  12.785  22.149  0.00  0.00    +0.000 C 
ATOM     13  C   UNL     1      -1.854  13.357  23.350  0.00  0.00    +0.000 C 
ATOM     14  C   UNL     1      -3.027  14.255  22.922  0.00  0.00    +0.000 C 
ATOM     15  C   UNL     1      -3.843  14.712  24.140  0.00  0.00    +0.000 C 
ATOM     16  C   UNL     1      -3.923  13.529  21.896  0.00  0.00    +0.000 C 
ENDROOT
BRANCH   1  18
ATOM     17  C   UNL     1      -3.337  10.142  14.094  0.00  0.00    +0.000 C 
ATOM     18  O   UNL     1      -4.108  10.056  15.290  0.00  0.00    +0.000 OA
ENDBRANCH   1  18
BRANCH   3  19
ATOM     19  O   UNL     1      -0.087  10.049  17.766  0.00  0.00    +0.000 OA
ATOM     20  H   UNL     1       0.208   9.651  16.931  0.00  0.00    +0.000 HD
ENDBRANCH   3  19
BRANCH   7  21
ATOM     21  O   UNL     1      -4.860  13.356  19.074  0.00  0.00    +0.000 OA
ATOM     22  H   UNL     1      -4.310  14.149  18.930  0.00  0.00    +0.000 HD
ENDBRANCH   7  21
BRANCH  12  23
ATOM     23  O   UNL     1      -0.090  11.877  22.685  0.00  0.00    +0.000 OA
ATOM     24  H   UNL     1      -0.341  11.617  23.586  0.00  0.00    +0.000 HD
ENDBRANCH  12  23
BRANCH  13  25
ATOM     25  O   UNL     1      -0.983  14.126  24.201  0.00  0.00    +0.000 OA
ATOM     26  H   UNL     1      -1.246  13.953  25.126  0.00  0.00    +0.000 HD
ENDBRANCH  13  25
BRANCH  14  27
ATOM     27  O   UNL     1      -2.481  15.434  22.304  0.00  0.00    +0.000 OA
ATOM     28  H   UNL     1      -2.447  16.112  23.008  0.00  0.00    +0.000 HD
ENDBRANCH  14  27
BRANCH  16  29
ATOM     29  O   UNL     1      -4.647  12.445  22.487  0.00  0.00    +0.000 OA
ATOM     30  H   UNL     1      -4.052  11.732  22.763  0.00  0.00    +0.000 HD
ENDBRANCH  16  29
TORSDOF 7
ENDMDL
MODEL 5
REMARK VINA RESULT:      -6.1      5.343      7.444
REMARK  Name = 
REMARK  9 active torsions:
REMARK  status: ('A' for Active; 'I' for Inactive)
REMARK    1  A    between atoms: C_1  and  O_2
REMARK    2  A    between atoms: O_2  and  C_3
REMARK    3  A    between atoms: C_5  and  O_6
REMARK    4  A    between atoms: C_10  and  O_11
REMARK    5  A    between atoms: C_16  and  O_17
REMARK    6  A    between atoms: C_18  and  O_19
REMARK    7  A    between atoms: C_20  and  C_21
REMARK    8  A    between atoms: C_20  and  O_22
REMARK    9  A    between atoms: C_23  and  O_24
REMARK                            x       y       z     vdW  Elec       q    Type
REMARK                         _______ _______ _______ _____ _____    ______ ____
ROOT
ATOM      1  C   UNL     1      -3.072  11.114  16.713  0.00  0.00    +0.000 A 
ATOM      2  C   UNL     1      -4.453  11.113  16.509  0.00  0.00    +0.000 A 
ATOM      3  C   UNL     1      -5.313  11.523  17.533  0.00  0.00    +0.000 A 
ATOM      4  C   UNL     1      -4.806  11.945  18.770  0.00  0.00    +0.000 A 
ATOM      5  C   UNL     1      -3.417  11.990  18.968  0.00  0.00    +0.000 A 
ATOM      6  C   UNL     1      -2.564  11.593  17.916  0.00  0.00    +0.000 A 
ATOM      7  C   UNL     1      -2.792  12.526  20.227  0.00  0.00    +0.000 C 
ATOM      8  C   UNL     1      -3.763  12.638  21.409  0.00  0.00    +0.000 C 
ATOM      9  C   UNL     1      -5.107  13.241  20.971  0.00  0.00    +0.000 C 
ATOM     10  C   UNL     1      -5.697  12.308  19.913  0.00  0.00    +0.000 C 
ATOM     11  O   UNL     1      -6.826  11.831  20.001  0.00  0.00    +0.000 OA
ATOM     12  C   UNL     1      -6.055  13.382  22.180  0.00  0.00    +0.000 C 
ATOM     13  C   UNL     1      -5.412  14.123  23.378  0.00  0.00    +0.000 C 
ATOM     14  C   UNL     1      -4.048  13.537  23.783  0.00  0.00    +0.000 C 
ATOM     15  C   UNL     1      -3.404  14.366  24.903  0.00  0.00    +0.000 C 
ATOM     16  C   UNL     1      -3.114  13.439  22.558  0.00  0.00    +0.000 C 
ENDROOT
BRANCH   1  18
ATOM     17  C   UNL     1      -3.034  10.058  14.614  0.00  0.00    +0.000 C 
ATOM     18  O   UNL     1      -2.306  10.687  15.666  0.00  0.00    +0.000 OA
ENDBRANCH   1  18
BRANCH   3  19
ATOM     19  O   UNL     1      -6.655  11.553  17.287  0.00  0.00    +0.000 OA
ATOM     20  H   UNL     1      -7.148  11.648  18.118  0.00  0.00    +0.000 HD
ENDBRANCH   3  19
BRANCH   7  21
ATOM     21  O   UNL     1      -1.719  11.665  20.613  0.00  0.00    +0.000 OA
ATOM     22  H   UNL     1      -1.084  11.628  19.873  0.00  0.00    +0.000 HD
ENDBRANCH   7  21
BRANCH  12  23
ATOM     23  O   UNL     1      -7.245  14.104  21.835  0.00  0.00    +0.000 OA
ATOM     24  H   UNL     1      -7.999  13.494  21.780  0.00  0.00    +0.000 HD
ENDBRANCH  12  23
BRANCH  13  25
ATOM     25  O   UNL     1      -6.284  14.070  24.523  0.00  0.00    +0.000 OA
ATOM     26  H   UNL     1      -6.642  13.163  24.580  0.00  0.00    +0.000 HD
ENDBRANCH  13  25
BRANCH  14  27
ATOM     27  O   UNL     1      -4.270  12.214  24.301  0.00  0.00    +0.000 OA
ATOM     28  H   UNL     1      -3.462  11.988  24.806  0.00  0.00    +0.000 HD
ENDBRANCH  14  27
BRANCH  16  29
ATOM     29  O   UNL     1      -2.699  14.727  22.094  0.00  0.00    +0.000 OA
ATOM     30  H   UNL     1      -1.889  14.667  21.564  0.00  0.00    +0.000 HD
ENDBRANCH  16  29
TORSDOF 7
ENDMDL
MODEL 6
REMARK VINA RESULT:      -6.1      1.458      2.273
REMARK  Name = 
REMARK  9 active torsions:
REMARK  status: ('A' for Active; 'I' for Inactive)
REMARK    1  A    between atoms: C_1  and  O_2
REMARK    2  A    between atoms: O_2  and  C_3
REMARK    3  A    between atoms: C_5  and  O_6
REMARK    4  A    between atoms: C_10  and  O_11
REMARK    5  A    between atoms: C_16  and  O_17
REMARK    6  A    between atoms: C_18  and  O_19
REMARK    7  A    between atoms: C_20  and  C_21
REMARK    8  A    between atoms: C_20  and  O_22
REMARK    9  A    between atoms: C_23  and  O_24
REMARK                            x       y       z     vdW  Elec       q    Type
REMARK                         _______ _______ _______ _____ _____    ______ ____
ROOT
ATOM      1  C   UNL     1       2.050   7.460  20.066  0.00  0.00    +0.000 A 
ATOM      2  C   UNL     1       2.164   8.021  18.793  0.00  0.00    +0.000 A 
ATOM      3  C   UNL     1       1.485   9.206  18.486  0.00  0.00    +0.000 A 
ATOM      4  C   UNL     1       0.691   9.847  19.447  0.00  0.00    +0.000 A 
ATOM      5  C   UNL     1       0.606   9.312  20.741  0.00  0.00    +0.000 A 
ATOM      6  C   UNL     1       1.315   8.128  21.039  0.00  0.00    +0.000 A 
ATOM      7  C   UNL     1      -0.142   9.993  21.855  0.00  0.00    +0.000 C 
ATOM      8  C   UNL     1      -1.118  11.078  21.382  0.00  0.00    +0.000 C 
ATOM      9  C   UNL     1      -0.481  11.969  20.304  0.00  0.00    +0.000 C 
ATOM     10  C   UNL     1      -0.115  11.064  19.128  0.00  0.00    +0.000 C 
ATOM     11  O   UNL     1      -0.492  11.281  17.979  0.00  0.00    +0.000 OA
ATOM     12  C   UNL     1      -1.464  13.077  19.870  0.00  0.00    +0.000 C 
ATOM     13  C   UNL     1      -2.049  13.876  21.061  0.00  0.00    +0.000 C 
ATOM     14  C   UNL     1      -2.648  12.972  22.152  0.00  0.00    +0.000 C 
ATOM     15  C   UNL     1      -3.120  13.802  23.355  0.00  0.00    +0.000 C 
ATOM     16  C   UNL     1      -1.630  11.896  22.586  0.00  0.00    +0.000 C 
ENDROOT
BRANCH   1  18
ATOM     17  C   UNL     1       1.928   5.198  20.692  0.00  0.00    +0.000 C 
ATOM     18  O   UNL     1       2.736   6.298  20.277  0.00  0.00    +0.000 OA
ENDBRANCH   1  18
BRANCH   3  19
ATOM     19  O   UNL     1       1.653   9.753  17.247  0.00  0.00    +0.000 OA
ATOM     20  H   UNL     1       2.193  10.557  17.304  0.00  0.00    +0.000 HD
ENDBRANCH   3  19
BRANCH   7  21
ATOM     21  O   UNL     1      -0.884   9.012  22.580  0.00  0.00    +0.000 OA
ATOM     22  H   UNL     1      -1.803   9.329  22.659  0.00  0.00    +0.000 HD
ENDBRANCH   7  21
BRANCH  12  23
ATOM     23  O   UNL     1      -0.835  14.028  19.000  0.00  0.00    +0.000 OA
ATOM     24  H   UNL     1      -0.165  13.585  18.453  0.00  0.00    +0.000 HD
ENDBRANCH  12  23
BRANCH  13  25
ATOM     25  O   UNL     1      -3.078  14.772  20.601  0.00  0.00    +0.000 OA
ATOM     26  H   UNL     1      -3.873  14.613  21.146  0.00  0.00    +0.000 HD
ENDBRANCH  13  25
BRANCH  14  27
ATOM     27  O   UNL     1      -3.804  12.317  21.602  0.00  0.00    +0.000 OA
ATOM     28  H   UNL     1      -4.565  12.892  21.822  0.00  0.00    +0.000 HD
ENDBRANCH  14  27
BRANCH  16  29
ATOM     29  O   UNL     1      -0.530  12.457  23.309  0.00  0.00    +0.000 OA
ATOM     30  H   UNL     1      -0.731  12.534  24.254  0.00  0.00    +0.000 HD
ENDBRANCH  16  29
TORSDOF 7
ENDMDL
MODEL 7
REMARK VINA RESULT:      -6.0      1.760      3.976
REMARK  Name = 
REMARK  9 active torsions:
REMARK  status: ('A' for Active; 'I' for Inactive)
REMARK    1  A    between atoms: C_1  and  O_2
REMARK    2  A    between atoms: O_2  and  C_3
REMARK    3  A    between atoms: C_5  and  O_6
REMARK    4  A    between atoms: C_10  and  O_11
REMARK    5  A    between atoms: C_16  and  O_17
REMARK    6  A    between atoms: C_18  and  O_19
REMARK    7  A    between atoms: C_20  and  C_21
REMARK    8  A    between atoms: C_20  and  O_22
REMARK    9  A    between atoms: C_23  and  O_24
REMARK                            x       y       z     vdW  Elec       q    Type
REMARK                         _______ _______ _______ _____ _____    ______ ____
ROOT
ATOM      1  C   UNL     1       2.285   8.464  18.013  0.00  0.00    +0.000 A 
ATOM      2  C   UNL     1       2.253   7.756  19.216  0.00  0.00    +0.000 A 
ATOM      3  C   UNL     1       1.612   8.301  20.333  0.00  0.00    +0.000 A 
ATOM      4  C   UNL     1       0.989   9.555  20.262  0.00  0.00    +0.000 A 
ATOM      5  C   UNL     1       0.979  10.254  19.045  0.00  0.00    +0.000 A 
ATOM      6  C   UNL     1       1.614   9.679  17.923  0.00  0.00    +0.000 A 
ATOM      7  C   UNL     1       0.248  11.555  18.860  0.00  0.00    +0.000 C 
ATOM      8  C   UNL     1      -0.138  12.248  20.173  0.00  0.00    +0.000 C 
ATOM      9  C   UNL     1      -0.715  11.246  21.184  0.00  0.00    +0.000 C 
ATOM     10  C   UNL     1       0.369  10.204  21.457  0.00  0.00    +0.000 C 
ATOM     11  O   UNL     1       0.762   9.932  22.590  0.00  0.00    +0.000 OA
ATOM     12  C   UNL     1      -1.134  11.968  22.482  0.00  0.00    +0.000 C 
ATOM     13  C   UNL     1      -2.054  13.188  22.234  0.00  0.00    +0.000 C 
ATOM     14  C   UNL     1      -1.485  14.165  21.190  0.00  0.00    +0.000 C 
ATOM     15  C   UNL     1      -2.478  15.300  20.902  0.00  0.00    +0.000 C 
ATOM     16  C   UNL     1      -1.107  13.417  19.894  0.00  0.00    +0.000 C 
ENDROOT
BRANCH   1  18
ATOM     17  C   UNL     1       4.032   7.031  17.365  0.00  0.00    +0.000 C 
ATOM     18  O   UNL     1       2.943   7.866  16.977  0.00  0.00    +0.000 OA
ENDBRANCH   1  18
BRANCH   3  19
ATOM     19  O   UNL     1       1.559   7.564  21.480  0.00  0.00    +0.000 OA
ATOM     20  H   UNL     1       2.410   7.126  21.639  0.00  0.00    +0.000 HD
ENDBRANCH   3  19
BRANCH   7  21
ATOM     21  O   UNL     1       1.074  12.448  18.112  0.00  0.00    +0.000 OA
ATOM     22  H   UNL     1       1.415  13.126  18.724  0.00  0.00    +0.000 HD
ENDBRANCH   7  21
BRANCH  12  23
ATOM     23  O   UNL     1      -1.837  11.089  23.371  0.00  0.00    +0.000 OA
ATOM     24  H   UNL     1      -1.704  10.166  23.099  0.00  0.00    +0.000 HD
ENDBRANCH  12  23
BRANCH  13  25
ATOM     25  O   UNL     1      -2.266  13.911  23.461  0.00  0.00    +0.000 OA
ATOM     26  H   UNL     1      -2.110  14.857  23.277  0.00  0.00    +0.000 HD
ENDBRANCH  13  25
BRANCH  14  27
ATOM     27  O   UNL     1      -0.298  14.762  21.741  0.00  0.00    +0.000 OA
ATOM     28  H   UNL     1      -0.587  15.232  22.549  0.00  0.00    +0.000 HD
ENDBRANCH  14  27
BRANCH  16  29
ATOM     29  O   UNL     1      -2.260  12.948  19.188  0.00  0.00    +0.000 OA
ATOM     30  H   UNL     1      -3.008  13.557  19.290  0.00  0.00    +0.000 HD
ENDBRANCH  16  29
TORSDOF 7
ENDMDL
MODEL 8
REMARK VINA RESULT:      -6.0      2.611      4.859
REMARK  Name = 
REMARK  9 active torsions:
REMARK  status: ('A' for Active; 'I' for Inactive)
REMARK    1  A    between atoms: C_1  and  O_2
REMARK    2  A    between atoms: O_2  and  C_3
REMARK    3  A    between atoms: C_5  and  O_6
REMARK    4  A    between atoms: C_10  and  O_11
REMARK    5  A    between atoms: C_16  and  O_17
REMARK    6  A    between atoms: C_18  and  O_19
REMARK    7  A    between atoms: C_20  and  C_21
REMARK    8  A    between atoms: C_20  and  O_22
REMARK    9  A    between atoms: C_23  and  O_24
REMARK                            x       y       z     vdW  Elec       q    Type
REMARK                         _______ _______ _______ _____ _____    ______ ____
ROOT
ATOM      1  C   UNL     1       0.863   9.608  19.446  0.00  0.00    +0.000 A 
ATOM      2  C   UNL     1       0.069   9.971  18.356  0.00  0.00    +0.000 A 
ATOM      3  C   UNL     1      -0.966  10.898  18.520  0.00  0.00    +0.000 A 
ATOM      4  C   UNL     1      -1.217  11.479  19.771  0.00  0.00    +0.000 A 
ATOM      5  C   UNL     1      -0.397  11.152  20.862  0.00  0.00    +0.000 A 
ATOM      6  C   UNL     1       0.656  10.231  20.673  0.00  0.00    +0.000 A 
ATOM      7  C   UNL     1      -0.536  11.806  22.209  0.00  0.00    +0.000 C 
ATOM      8  C   UNL     1      -1.867  12.542  22.413  0.00  0.00    +0.000 C 
ATOM      9  C   UNL     1      -2.239  13.374  21.176  0.00  0.00    +0.000 C 
ATOM     10  C   UNL     1      -2.366  12.405  20.001  0.00  0.00    +0.000 C 
ATOM     11  O   UNL     1      -3.371  12.341  19.297  0.00  0.00    +0.000 OA
ATOM     12  C   UNL     1      -3.559  14.137  21.416  0.00  0.00    +0.000 C 
ATOM     13  C   UNL     1      -3.563  14.954  22.731  0.00  0.00    +0.000 C 
ATOM     14  C   UNL     1      -3.150  14.121  23.956  0.00  0.00    +0.000 C 
ATOM     15  C   UNL     1      -3.069  14.997  25.214  0.00  0.00    +0.000 C 
ATOM     16  C   UNL     1      -1.812  13.398  23.696  0.00  0.00    +0.000 C 
ENDROOT
BRANCH   1  18
ATOM     17  C   UNL     1       2.216   8.567  17.831  0.00  0.00    +0.000 C 
ATOM     18  O   UNL     1       1.842   8.689  19.202  0.00  0.00    +0.000 OA
ENDBRANCH   1  18
BRANCH   3  19
ATOM     19  O   UNL     1      -1.694  11.264  17.426  0.00  0.00    +0.000 OA
ATOM     20  H   UNL     1      -1.573  12.209  17.242  0.00  0.00    +0.000 HD
ENDBRANCH   3  19
BRANCH   7  21
ATOM     21  O   UNL     1      -0.420  10.806  23.223  0.00  0.00    +0.000 OA
ATOM     22  H   UNL     1       0.525  10.715  23.447  0.00  0.00    +0.000 HD
ENDBRANCH   7  21
BRANCH  12  23
ATOM     23  O   UNL     1      -3.836  15.057  20.352  0.00  0.00    +0.000 OA
ATOM     24  H   UNL     1      -3.927  14.577  19.513  0.00  0.00    +0.000 HD
ENDBRANCH  12  23
BRANCH  13  25
ATOM     25  O   UNL     1      -4.874  15.499  22.975  0.00  0.00    +0.000 OA
ATOM     26  H   UNL     1      -5.168  15.179  23.850  0.00  0.00    +0.000 HD
ENDBRANCH  13  25
BRANCH  14  27
ATOM     27  O   UNL     1      -4.171  13.133  24.186  0.00  0.00    +0.000 OA
ATOM     28  H   UNL     1      -4.276  13.082  25.157  0.00  0.00    +0.000 HD
ENDBRANCH  14  27
BRANCH  16  29
ATOM     29  O   UNL     1      -0.710  14.310  23.638  0.00  0.00    +0.000 OA
ATOM     30  H   UNL     1      -0.067  14.131  24.341  0.00  0.00    +0.000 HD
ENDBRANCH  16  29
TORSDOF 7
ENDMDL
MODEL 9
REMARK VINA RESULT:      -6.0      8.414      9.788
REMARK  Name = 
REMARK  9 active torsions:
REMARK  status: ('A' for Active; 'I' for Inactive)
REMARK    1  A    between atoms: C_1  and  O_2
REMARK    2  A    between atoms: O_2  and  C_3
REMARK    3  A    between atoms: C_5  and  O_6
REMARK    4  A    between atoms: C_10  and  O_11
REMARK    5  A    between atoms: C_16  and  O_17
REMARK    6  A    between atoms: C_18  and  O_19
REMARK    7  A    between atoms: C_20  and  C_21
REMARK    8  A    between atoms: C_20  and  O_22
REMARK    9  A    between atoms: C_23  and  O_24
REMARK                            x       y       z     vdW  Elec       q    Type
REMARK                         _______ _______ _______ _____ _____    ______ ____
ROOT
ATOM      1  C   UNL     1      10.997  12.859  18.609  0.00  0.00    +0.000 A 
ATOM      2  C   UNL     1      10.388  14.081  18.323  0.00  0.00    +0.000 A 
ATOM      3  C   UNL     1       9.372  14.569  19.153  0.00  0.00    +0.000 A 
ATOM      4  C   UNL     1       8.957  13.846  20.280  0.00  0.00    +0.000 A 
ATOM      5  C   UNL     1       9.595  12.637  20.598  0.00  0.00    +0.000 A 
ATOM      6  C   UNL     1      10.632  12.171  19.761  0.00  0.00    +0.000 A 
ATOM      7  C   UNL     1       9.279  11.854  21.843  0.00  0.00    +0.000 C 
ATOM      8  C   UNL     1       7.959  12.251  22.515  0.00  0.00    +0.000 C 
ATOM      9  C   UNL     1       7.804  13.779  22.577  0.00  0.00    +0.000 C 
ATOM     10  C   UNL     1       7.820  14.294  21.138  0.00  0.00    +0.000 C 
ATOM     11  O   UNL     1       6.929  15.002  20.675  0.00  0.00    +0.000 OA
ATOM     12  C   UNL     1       6.490  14.159  23.291  0.00  0.00    +0.000 C 
ATOM     13  C   UNL     1       6.318  13.467  24.666  0.00  0.00    +0.000 C 
ATOM     14  C   UNL     1       6.515  11.944  24.599  0.00  0.00    +0.000 C 
ATOM     15  C   UNL     1       6.439  11.317  25.998  0.00  0.00    +0.000 C 
ATOM     16  C   UNL     1       7.852  11.598  23.909  0.00  0.00    +0.000 C 
ENDROOT
BRANCH   1  18
ATOM     17  C   UNL     1      12.333  13.418  16.758  0.00  0.00    +0.000 C 
ATOM     18  O   UNL     1      11.970  12.451  17.741  0.00  0.00    +0.000 OA
ENDBRANCH   1  18
BRANCH   3  19
ATOM     19  O   UNL     1       8.827  15.788  18.872  0.00  0.00    +0.000 OA
ATOM     20  H   UNL     1       7.877  15.786  19.068  0.00  0.00    +0.000 HD
ENDBRANCH   3  19
BRANCH   7  21
ATOM     21  O   UNL     1       9.209  10.466  21.511  0.00  0.00    +0.000 OA
ATOM     22  H   UNL     1       9.355  10.380  20.550  0.00  0.00    +0.000 HD
ENDBRANCH   7  21
BRANCH  12  23
ATOM     23  O   UNL     1       6.405  15.572  23.522  0.00  0.00    +0.000 OA
ATOM     24  H   UNL     1       6.185  16.031  22.695  0.00  0.00    +0.000 HD
ENDBRANCH  12  23
BRANCH  13  25
ATOM     25  O   UNL     1       5.005  13.731  25.196  0.00  0.00    +0.000 OA
ATOM     26  H   UNL     1       4.389  13.093  24.786  0.00  0.00    +0.000 HD
ENDBRANCH  13  25
BRANCH  14  27
ATOM     27  O   UNL     1       5.439  11.390  23.822  0.00  0.00    +0.000 OA
ATOM     28  H   UNL     1       5.793  11.284  22.916  0.00  0.00    +0.000 HD
ENDBRANCH  14  27
BRANCH  16  29
ATOM     29  O   UNL     1       8.981  11.956  24.713  0.00  0.00    +0.000 OA
ATOM     30  H   UNL     1       9.129  11.310  25.421  0.00  0.00    +0.000 HD
ENDBRANCH  16  29
TORSDOF 7
ENDMDL
