MODEL 1
REMARK VINA RESULT:      -7.4      0.000      0.000
REMARK  Name = 
REMARK  5 active torsions:
REMARK  status: ('A' for Active; 'I' for Inactive)
REMARK    1  A    between atoms: C_1  and  C_2
REMARK    2  A    between atoms: C_6  and  C_7
REMARK    3  A    between atoms: N_9  and  C_10
REMARK    4  A    between atoms: C_10  and  C_11
REMARK    5  A    between atoms: C_11  and  C_12
REMARK                            x       y       z     vdW  Elec       q    Type
REMARK                         _______ _______ _______ _____ _____    ______ ____
ROOT
ATOM      1  C   UNL     1       5.382   3.866  17.622  0.00  0.00    +0.000 C 
ATOM      2  O   UNL     1       5.664   4.059  18.802  0.00  0.00    +0.000 OA
ATOM      3  N   UNL     1       4.288   3.108  17.240  0.00  0.00    +0.000 N 
ATOM      4  H   UNL     1       4.107   2.958  16.259  0.00  0.00    +0.000 HD
ENDROOT
BRANCH   1  10
ATOM      5  C   UNL     1       7.326   6.512  17.669  0.00  0.00    +0.000 C 
ATOM      6  C   UNL     1       6.984   5.545  16.600  0.00  0.00    +0.000 A 
ATOM      7  O   UNL     1       7.581   5.785  15.397  0.00  0.00    +0.000 OA
ATOM      8  C   UNL     1       7.166   4.823  14.543  0.00  0.00    +0.000 A 
ATOM      9  C   UNL     1       6.308   3.960  15.176  0.00  0.00    +0.000 A 
ATOM     10  C   UNL     1       6.175   4.418  16.526  0.00  0.00    +0.000 A 
ENDBRANCH   1  10
BRANCH   3  11
ATOM     11  C   UNL     1       3.416   2.489  18.224  0.00  0.00    +0.000 C 
BRANCH  11  12
ATOM     12  C   UNL     1       2.021   3.121  18.268  0.00  0.00    +0.000 C 
BRANCH  12  13
ATOM     13  C   UNL     1       2.026   4.496  18.898  0.00  0.00    +0.000 A 
ATOM     14  C   UNL     1       1.696   4.669  20.250  0.00  0.00    +0.000 A 
ATOM     15  C   UNL     1       1.697   5.942  20.826  0.00  0.00    +0.000 A 
ATOM     16  C   UNL     1       2.021   7.060  20.057  0.00  0.00    +0.000 A 
ATOM     17  C   UNL     1       2.344   6.897  18.712  0.00  0.00    +0.000 A 
ATOM     18 CL   UNL     1       2.747   8.272  17.760  0.00  0.00    +0.000 Cl
ATOM     19  C   UNL     1       2.345   5.626  18.131  0.00  0.00    +0.000 A 
ENDBRANCH  12  13
ENDBRANCH  11  12
ENDBRANCH   3  11
TORSDOF 4
ENDMDL
MODEL 2
REMARK VINA RESULT:      -7.2      2.901      5.793
REMARK  Name = 
REMARK  5 active torsions:
REMARK  status: ('A' for Active; 'I' for Inactive)
REMARK    1  A    between atoms: C_1  and  C_2
REMARK    2  A    between atoms: C_6  and  C_7
REMARK    3  A    between atoms: N_9  and  C_10
REMARK    4  A    between atoms: C_10  and  C_11
REMARK    5  A    between atoms: C_11  and  C_12
REMARK                            x       y       z     vdW  Elec       q    Type
REMARK                         _______ _______ _______ _____ _____    ______ ____
ROOT
ATOM      1  C   UNL     1       2.040   4.621  18.537  0.00  0.00    +0.000 C 
ATOM      2  O   UNL     1       1.516   4.267  17.484  0.00  0.00    +0.000 OA
ATOM      3  N   UNL     1       2.660   5.850  18.675  0.00  0.00    +0.000 N 
ATOM      4  H   UNL     1       3.097   6.090  19.552  0.00  0.00    +0.000 HD
ENDROOT
BRANCH   1  10
ATOM      5  C   UNL     1       4.527   2.822  19.705  0.00  0.00    +0.000 C 
ATOM      6  C   UNL     1       3.139   3.031  20.180  0.00  0.00    +0.000 A 
ATOM      7  O   UNL     1       2.814   2.354  21.318  0.00  0.00    +0.000 OA
ATOM      8  C   UNL     1       1.528   2.652  21.610  0.00  0.00    +0.000 A 
ATOM      9  C   UNL     1       1.014   3.515  20.675  0.00  0.00    +0.000 A 
ATOM     10  C   UNL     1       2.055   3.775  19.728  0.00  0.00    +0.000 A 
ENDBRANCH   1  10
BRANCH   3  11
ATOM     11  C   UNL     1       2.731   6.790  17.569  0.00  0.00    +0.000 C 
BRANCH  11  12
ATOM     12  C   UNL     1       4.126   7.397  17.388  0.00  0.00    +0.000 C 
BRANCH  12  13
ATOM     13  C   UNL     1       5.181   6.353  17.097  0.00  0.00    +0.000 A 
ATOM     14  C   UNL     1       6.184   6.064  18.034  0.00  0.00    +0.000 A 
ATOM     15  C   UNL     1       7.160   5.102  17.759  0.00  0.00    +0.000 A 
ATOM     16  C   UNL     1       7.149   4.421  16.541  0.00  0.00    +0.000 A 
ATOM     17  C   UNL     1       6.160   4.707  15.604  0.00  0.00    +0.000 A 
ATOM     18 CL   UNL     1       6.142   3.868  14.102  0.00  0.00    +0.000 Cl
ATOM     19  C   UNL     1       5.182   5.668  15.873  0.00  0.00    +0.000 A 
ENDBRANCH  12  13
ENDBRANCH  11  12
ENDBRANCH   3  11
TORSDOF 4
ENDMDL
MODEL 3
REMARK VINA RESULT:      -7.1      2.480      5.416
REMARK  Name = 
REMARK  5 active torsions:
REMARK  status: ('A' for Active; 'I' for Inactive)
REMARK    1  A    between atoms: C_1  and  C_2
REMARK    2  A    between atoms: C_6  and  C_7
REMARK    3  A    between atoms: N_9  and  C_10
REMARK    4  A    between atoms: C_10  and  C_11
REMARK    5  A    between atoms: C_11  and  C_12
REMARK                            x       y       z     vdW  Elec       q    Type
REMARK                         _______ _______ _______ _____ _____    ______ ____
ROOT
ATOM      1  C   UNL     1       3.677   4.567  17.493  0.00  0.00    +0.000 C 
ATOM      2  O   UNL     1       3.935   5.724  17.815  0.00  0.00    +0.000 OA
ATOM      3  N   UNL     1       4.237   3.969  16.377  0.00  0.00    +0.000 N 
ATOM      4  H   UNL     1       3.979   3.024  16.137  0.00  0.00    +0.000 HD
ENDROOT
BRANCH   1  10
ATOM      5  C   UNL     1       4.406   2.437  19.884  0.00  0.00    +0.000 C 
ATOM      6  C   UNL     1       3.122   2.837  19.264  0.00  0.00    +0.000 A 
ATOM      7  O   UNL     1       2.020   2.211  19.769  0.00  0.00    +0.000 OA
ATOM      8  C   UNL     1       0.945   2.685  19.100  0.00  0.00    +0.000 A 
ATOM      9  C   UNL     1       1.335   3.612  18.167  0.00  0.00    +0.000 A 
ATOM     10  C   UNL     1       2.758   3.726  18.258  0.00  0.00    +0.000 A 
ENDBRANCH   1  10
BRANCH   3  11
ATOM     11  C   UNL     1       5.160   4.691  15.516  0.00  0.00    +0.000 C 
BRANCH  11  12
ATOM     12  C   UNL     1       6.629   4.383  15.824  0.00  0.00    +0.000 C 
BRANCH  12  13
ATOM     13  C   UNL     1       7.178   5.234  16.947  0.00  0.00    +0.000 A 
ATOM     14  C   UNL     1       7.609   4.649  18.147  0.00  0.00    +0.000 A 
ATOM     15  C   UNL     1       8.111   5.439  19.185  0.00  0.00    +0.000 A 
ATOM     16  C   UNL     1       8.184   6.825  19.038  0.00  0.00    +0.000 A 
ATOM     17  C   UNL     1       7.752   7.413  17.852  0.00  0.00    +0.000 A 
ATOM     18 CL   UNL     1       7.841   9.122  17.667  0.00  0.00    +0.000 Cl
ATOM     19  C   UNL     1       7.249   6.628  16.812  0.00  0.00    +0.000 A 
ENDBRANCH  12  13
ENDBRANCH  11  12
ENDBRANCH   3  11
TORSDOF 4
ENDMDL
MODEL 4
REMARK VINA RESULT:      -7.0      2.304      3.310
REMARK  Name = 
REMARK  5 active torsions:
REMARK  status: ('A' for Active; 'I' for Inactive)
REMARK    1  A    between atoms: C_1  and  C_2
REMARK    2  A    between atoms: C_6  and  C_7
REMARK    3  A    between atoms: N_9  and  C_10
REMARK    4  A    between atoms: C_10  and  C_11
REMARK    5  A    between atoms: C_11  and  C_12
REMARK                            x       y       z     vdW  Elec       q    Type
REMARK                         _______ _______ _______ _____ _____    ______ ____
ROOT
ATOM      1  C   UNL     1       6.532   5.069  15.428  0.00  0.00    +0.000 C 
ATOM      2  O   UNL     1       7.523   5.040  16.154  0.00  0.00    +0.000 OA
ATOM      3  N   UNL     1       5.334   5.627  15.838  0.00  0.00    +0.000 N 
ATOM      4  H   UNL     1       4.540   5.610  15.217  0.00  0.00    +0.000 HD
ENDROOT
BRANCH   1  10
ATOM      5  C   UNL     1       8.542   5.826  12.943  0.00  0.00    +0.000 C 
ATOM      6  C   UNL     1       7.411   4.876  13.056  0.00  0.00    +0.000 A 
ATOM      7  O   UNL     1       7.137   4.173  11.920  0.00  0.00    +0.000 OA
ATOM      8  C   UNL     1       6.090   3.362  12.192  0.00  0.00    +0.000 A 
ATOM      9  C   UNL     1       5.681   3.529  13.491  0.00  0.00    +0.000 A 
ATOM     10  C   UNL     1       6.534   4.518  14.074  0.00  0.00    +0.000 A 
ENDBRANCH   1  10
BRANCH   3  11
ATOM     11  C   UNL     1       5.183   6.203  17.165  0.00  0.00    +0.000 C 
BRANCH  11  12
ATOM     12  C   UNL     1       3.795   6.808  17.399  0.00  0.00    +0.000 C 
BRANCH  12  13
ATOM     13  C   UNL     1       2.964   5.995  18.367  0.00  0.00    +0.000 A 
ATOM     14  C   UNL     1       2.642   6.498  19.636  0.00  0.00    +0.000 A 
ATOM     15  C   UNL     1       1.877   5.742  20.529  0.00  0.00    +0.000 A 
ATOM     16  C   UNL     1       1.430   4.471  20.167  0.00  0.00    +0.000 A 
ATOM     17  C   UNL     1       1.750   3.963  18.911  0.00  0.00    +0.000 A 
ATOM     18 CL   UNL     1       1.198   2.397  18.460  0.00  0.00    +0.000 Cl
ATOM     19  C   UNL     1       2.514   4.714  18.015  0.00  0.00    +0.000 A 
ENDBRANCH  12  13
ENDBRANCH  11  12
ENDBRANCH   3  11
TORSDOF 4
ENDMDL
MODEL 5
REMARK VINA RESULT:      -7.0      2.342      3.670
REMARK  Name = 
REMARK  5 active torsions:
REMARK  status: ('A' for Active; 'I' for Inactive)
REMARK    1  A    between atoms: C_1  and  C_2
REMARK    2  A    between atoms: C_6  and  C_7
REMARK    3  A    between atoms: N_9  and  C_10
REMARK    4  A    between atoms: C_10  and  C_11
REMARK    5  A    between atoms: C_11  and  C_12
REMARK                            x       y       z     vdW  Elec       q    Type
REMARK                         _______ _______ _______ _____ _____    ______ ____
ROOT
ATOM      1  C   UNL     1       5.022   6.285  17.249  0.00  0.00    +0.000 C 
ATOM      2  O   UNL     1       4.771   6.921  16.229  0.00  0.00    +0.000 OA
ATOM      3  N   UNL     1       4.141   6.224  18.315  0.00  0.00    +0.000 N 
ATOM      4  H   UNL     1       4.398   5.708  19.143  0.00  0.00    +0.000 HD
ENDROOT
BRANCH   1  10
ATOM      5  C   UNL     1       6.535   4.340  15.078  0.00  0.00    +0.000 C 
ATOM      6  C   UNL     1       6.867   4.729  16.469  0.00  0.00    +0.000 A 
ATOM      7  O   UNL     1       8.017   4.183  16.958  0.00  0.00    +0.000 OA
ATOM      8  C   UNL     1       8.170   4.635  18.223  0.00  0.00    +0.000 A 
ATOM      9  C   UNL     1       7.133   5.467  18.561  0.00  0.00    +0.000 A 
ATOM     10  C   UNL     1       6.268   5.541  17.425  0.00  0.00    +0.000 A 
ENDBRANCH   1  10
BRANCH   3  11
ATOM     11  C   UNL     1       2.867   6.925  18.284  0.00  0.00    +0.000 C 
BRANCH  11  12
ATOM     12  C   UNL     1       1.704   6.031  17.843  0.00  0.00    +0.000 C 
BRANCH  12  13
ATOM     13  C   UNL     1       1.853   4.604  18.323  0.00  0.00    +0.000 A 
ATOM     14  C   UNL     1       2.250   3.588  17.442  0.00  0.00    +0.000 A 
ATOM     15  C   UNL     1       2.382   2.269  17.888  0.00  0.00    +0.000 A 
ATOM     16  C   UNL     1       2.113   1.950  19.219  0.00  0.00    +0.000 A 
ATOM     17  C   UNL     1       1.713   2.953  20.098  0.00  0.00    +0.000 A 
ATOM     18 CL   UNL     1       1.382   2.563  21.741  0.00  0.00    +0.000 Cl
ATOM     19  C   UNL     1       1.579   4.272  19.658  0.00  0.00    +0.000 A 
ENDBRANCH  12  13
ENDBRANCH  11  12
ENDBRANCH   3  11
TORSDOF 4
ENDMDL
MODEL 6
REMARK VINA RESULT:      -7.0      1.415      1.889
REMARK  Name = 
REMARK  5 active torsions:
REMARK  status: ('A' for Active; 'I' for Inactive)
REMARK    1  A    between atoms: C_1  and  C_2
REMARK    2  A    between atoms: C_6  and  C_7
REMARK    3  A    between atoms: N_9  and  C_10
REMARK    4  A    between atoms: C_10  and  C_11
REMARK    5  A    between atoms: C_11  and  C_12
REMARK                            x       y       z     vdW  Elec       q    Type
REMARK                         _______ _______ _______ _____ _____    ______ ____
ROOT
ATOM      1  C   UNL     1       5.761   4.586  18.425  0.00  0.00    +0.000 C 
ATOM      2  O   UNL     1       6.311   4.867  19.487  0.00  0.00    +0.000 OA
ATOM      3  N   UNL     1       4.519   3.977  18.377  0.00  0.00    +0.000 N 
ATOM      4  H   UNL     1       4.116   3.743  17.482  0.00  0.00    +0.000 HD
ENDROOT
BRANCH   1  10
ATOM      5  C   UNL     1       7.512   7.222  17.548  0.00  0.00    +0.000 C 
ATOM      6  C   UNL     1       7.105   6.005  16.808  0.00  0.00    +0.000 A 
ATOM      7  O   UNL     1       7.528   5.952  15.512  0.00  0.00    +0.000 OA
ATOM      8  C   UNL     1       7.075   4.791  14.988  0.00  0.00    +0.000 A 
ATOM      9  C   UNL     1       6.364   4.089  15.928  0.00  0.00    +0.000 A 
ATOM     10  C   UNL     1       6.371   4.868  17.127  0.00  0.00    +0.000 A 
ENDBRANCH   1  10
BRANCH   3  11
ATOM     11  C   UNL     1       3.801   3.627  19.591  0.00  0.00    +0.000 C 
BRANCH  11  12
ATOM     12  C   UNL     1       2.337   4.080  19.570  0.00  0.00    +0.000 C 
BRANCH  12  13
ATOM     13  C   UNL     1       2.194   5.580  19.440  0.00  0.00    +0.000 A 
ATOM     14  C   UNL     1       2.428   6.220  18.214  0.00  0.00    +0.000 A 
ATOM     15  C   UNL     1       2.300   7.608  18.099  0.00  0.00    +0.000 A 
ATOM     16  C   UNL     1       1.943   8.373  19.209  0.00  0.00    +0.000 A 
ATOM     17  C   UNL     1       1.715   7.745  20.431  0.00  0.00    +0.000 A 
ATOM     18 CL   UNL     1       1.273   8.685  21.803  0.00  0.00    +0.000 Cl
ATOM     19  C   UNL     1       1.842   6.359  20.552  0.00  0.00    +0.000 A 
ENDBRANCH  12  13
ENDBRANCH  11  12
ENDBRANCH   3  11
TORSDOF 4
ENDMDL
MODEL 7
REMARK VINA RESULT:      -6.9      1.847      2.673
REMARK  Name = 
REMARK  5 active torsions:
REMARK  status: ('A' for Active; 'I' for Inactive)
REMARK    1  A    between atoms: C_1  and  C_2
REMARK    2  A    between atoms: C_6  and  C_7
REMARK    3  A    between atoms: N_9  and  C_10
REMARK    4  A    between atoms: C_10  and  C_11
REMARK    5  A    between atoms: C_11  and  C_12
REMARK                            x       y       z     vdW  Elec       q    Type
REMARK                         _______ _______ _______ _____ _____    ______ ____
ROOT
ATOM      1  C   UNL     1       4.899   4.510  17.649  0.00  0.00    +0.000 C 
ATOM      2  O   UNL     1       5.145   3.798  18.619  0.00  0.00    +0.000 OA
ATOM      3  N   UNL     1       3.711   5.211  17.532  0.00  0.00    +0.000 N 
ATOM      4  H   UNL     1       3.542   5.766  16.707  0.00  0.00    +0.000 HD
ENDROOT
BRANCH   1  10
ATOM      5  C   UNL     1       7.360   6.669  17.392  0.00  0.00    +0.000 C 
ATOM      6  C   UNL     1       6.864   5.611  16.482  0.00  0.00    +0.000 A 
ATOM      7  O   UNL     1       7.547   5.498  15.307  0.00  0.00    +0.000 OA
ATOM      8  C   UNL     1       6.972   4.498  14.602  0.00  0.00    +0.000 A 
ATOM      9  C   UNL     1       5.923   3.960  15.305  0.00  0.00    +0.000 A 
ATOM     10  C   UNL     1       5.836   4.677  16.540  0.00  0.00    +0.000 A 
ENDBRANCH   1  10
BRANCH   3  11
ATOM     11  C   UNL     1       2.682   5.131  18.555  0.00  0.00    +0.000 C 
BRANCH  11  12
ATOM     12  C   UNL     1       2.895   6.131  19.697  0.00  0.00    +0.000 C 
BRANCH  12  13
ATOM     13  C   UNL     1       2.176   7.441  19.464  0.00  0.00    +0.000 A 
ATOM     14  C   UNL     1       2.150   8.030  18.191  0.00  0.00    +0.000 A 
ATOM     15  C   UNL     1       1.488   9.243  17.981  0.00  0.00    +0.000 A 
ATOM     16  C   UNL     1       0.850   9.886  19.042  0.00  0.00    +0.000 A 
ATOM     17  C   UNL     1       0.876   9.310  20.309  0.00  0.00    +0.000 A 
ATOM     18 CL   UNL     1       0.088  10.099  21.620  0.00  0.00    +0.000 Cl
ATOM     19  C   UNL     1       1.536   8.098  20.525  0.00  0.00    +0.000 A 
ENDBRANCH  12  13
ENDBRANCH  11  12
ENDBRANCH   3  11
TORSDOF 4
ENDMDL
MODEL 8
REMARK VINA RESULT:      -6.9      0.570      1.557
REMARK  Name = 
REMARK  5 active torsions:
REMARK  status: ('A' for Active; 'I' for Inactive)
REMARK    1  A    between atoms: C_1  and  C_2
REMARK    2  A    between atoms: C_6  and  C_7
REMARK    3  A    between atoms: N_9  and  C_10
REMARK    4  A    between atoms: C_10  and  C_11
REMARK    5  A    between atoms: C_11  and  C_12
REMARK                            x       y       z     vdW  Elec       q    Type
REMARK                         _______ _______ _______ _____ _____    ______ ____
ROOT
ATOM      1  C   UNL     1       5.214   4.012  18.189  0.00  0.00    +0.000 C 
ATOM      2  O   UNL     1       5.338   3.538  19.315  0.00  0.00    +0.000 OA
ATOM      3  N   UNL     1       4.190   3.633  17.338  0.00  0.00    +0.000 N 
ATOM      4  H   UNL     1       4.140   4.031  16.413  0.00  0.00    +0.000 HD
ENDROOT
BRANCH   1  10
ATOM      5  C   UNL     1       6.520   4.144  15.178  0.00  0.00    +0.000 C 
ATOM      6  C   UNL     1       6.660   5.021  16.365  0.00  0.00    +0.000 A 
ATOM      7  O   UNL     1       7.486   6.092  16.193  0.00  0.00    +0.000 OA
ATOM      8  C   UNL     1       7.502   6.779  17.357  0.00  0.00    +0.000 A 
ATOM      9  C   UNL     1       6.695   6.167  18.283  0.00  0.00    +0.000 A 
ATOM     10  C   UNL     1       6.135   5.012  17.652  0.00  0.00    +0.000 A 
ENDBRANCH   1  10
BRANCH   3  11
ATOM     11  C   UNL     1       3.206   2.638  17.736  0.00  0.00    +0.000 C 
BRANCH  11  12
ATOM     12  C   UNL     1       1.828   3.243  18.022  0.00  0.00    +0.000 C 
BRANCH  12  13
ATOM     13  C   UNL     1       1.914   4.570  18.742  0.00  0.00    +0.000 A 
ATOM     14  C   UNL     1       1.690   4.654  20.125  0.00  0.00    +0.000 A 
ATOM     15  C   UNL     1       1.766   5.883  20.785  0.00  0.00    +0.000 A 
ATOM     16  C   UNL     1       2.060   7.046  20.072  0.00  0.00    +0.000 A 
ATOM     17  C   UNL     1       2.277   6.971  18.699  0.00  0.00    +0.000 A 
ATOM     18 CL   UNL     1       2.642   8.402  17.815  0.00  0.00    +0.000 Cl
ATOM     19  C   UNL     1       2.203   5.745  18.033  0.00  0.00    +0.000 A 
ENDBRANCH  12  13
ENDBRANCH  11  12
ENDBRANCH   3  11
TORSDOF 4
ENDMDL
MODEL 9
REMARK VINA RESULT:      -6.9      2.418      3.720
REMARK  Name = 
REMARK  5 active torsions:
REMARK  status: ('A' for Active; 'I' for Inactive)
REMARK    1  A    between atoms: C_1  and  C_2
REMARK    2  A    between atoms: C_6  and  C_7
REMARK    3  A    between atoms: N_9  and  C_10
REMARK    4  A    between atoms: C_10  and  C_11
REMARK    5  A    between atoms: C_11  and  C_12
REMARK                            x       y       z     vdW  Elec       q    Type
REMARK                         _______ _______ _______ _____ _____    ______ ____
ROOT
ATOM      1  C   UNL     1       6.501   5.235  15.334  0.00  0.00    +0.000 C 
ATOM      2  O   UNL     1       7.467   5.826  15.810  0.00  0.00    +0.000 OA
ATOM      3  N   UNL     1       5.300   5.119  16.011  0.00  0.00    +0.000 N 
ATOM      4  H   UNL     1       4.540   4.606  15.591  0.00  0.00    +0.000 HD
ENDROOT
BRANCH   1  10
ATOM      5  C   UNL     1       8.557   5.867  12.852  0.00  0.00    +0.000 C 
ATOM      6  C   UNL     1       7.434   4.912  12.997  0.00  0.00    +0.000 A 
ATOM      7  O   UNL     1       7.192   4.139  11.899  0.00  0.00    +0.000 OA
ATOM      8  C   UNL     1       6.147   3.334  12.196  0.00  0.00    +0.000 A 
ATOM      9  C   UNL     1       5.708   3.573  13.474  0.00  0.00    +0.000 A 
ATOM     10  C   UNL     1       6.538   4.605  14.015  0.00  0.00    +0.000 A 
ENDBRANCH   1  10
BRANCH   3  11
ATOM     11  C   UNL     1       5.122   5.688  17.337  0.00  0.00    +0.000 C 
BRANCH  11  12
ATOM     12  C   UNL     1       3.649   5.846  17.727  0.00  0.00    +0.000 C 
BRANCH  12  13
ATOM     13  C   UNL     1       3.045   4.562  18.251  0.00  0.00    +0.000 A 
ATOM     14  C   UNL     1       2.734   3.507  17.380  0.00  0.00    +0.000 A 
ATOM     15  C   UNL     1       2.172   2.323  17.867  0.00  0.00    +0.000 A 
ATOM     16  C   UNL     1       1.908   2.182  19.230  0.00  0.00    +0.000 A 
ATOM     17  C   UNL     1       2.209   3.227  20.099  0.00  0.00    +0.000 A 
ATOM     18 CL   UNL     1       1.887   3.055  21.781  0.00  0.00    +0.000 Cl
ATOM     19  C   UNL     1       2.771   4.412  19.618  0.00  0.00    +0.000 A 
ENDBRANCH  12  13
ENDBRANCH  11  12
ENDBRANCH   3  11
TORSDOF 4
ENDMDL
