MODEL 1
REMARK VINA RESULT:      -8.8      0.000      0.000
REMARK  Name = 
REMARK  6 active torsions:
REMARK  status: ('A' for Active; 'I' for Inactive)
REMARK    1  A    between atoms: C_1  and  C_2
REMARK    2  A    between atoms: C_5  and  C_6
REMARK    3  A    between atoms: C_10  and  C_11
REMARK    4  A    between atoms: C_13  and  C_14
REMARK    5  A    between atoms: C_17  and  S_18
REMARK    6  A    between atoms: S_18  and  N_21
REMARK                            x       y       z     vdW  Elec       q    Type
REMARK                         _______ _______ _______ _____ _____    ______ ____
ROOT
ATOM      1  C   UNL     1       1.886   2.567  20.280  0.00  0.00    +0.000 C 
ATOM      2  C   UNL     1       2.330   3.997  20.293  0.00  0.00    +0.000 A 
ATOM      3  C   UNL     1       1.439   4.903  20.904  0.00  0.00    +0.000 A 
ATOM      4  C   UNL     1       1.434   6.236  20.518  0.00  0.00    +0.000 A 
ATOM      5  C   UNL     1       2.361   6.682  19.574  0.00  0.00    +0.000 A 
ATOM      6  C   UNL     1       3.434   5.860  19.214  0.00  0.00    +0.000 A 
ATOM      7  C   UNL     1       3.409   4.492  19.532  0.00  0.00    +0.000 A 
ENDROOT
BRANCH   5   8
ATOM      8  C   UNL     1       2.066   7.981  18.921  0.00  0.00    +0.000 C 
ATOM      9  O   UNL     1       2.355   8.084  17.724  0.00  0.00    +0.000 OA
ATOM     10  N   UNL     1       1.543   9.048  19.658  0.00  0.00    +0.000 N 
ATOM     11  C   UNL     1       1.123  10.246  18.943  0.00  0.00    +0.000 C 
ATOM     12  C   UNL     1      -0.377  10.472  19.184  0.00  0.00    +0.000 C 
ATOM     13  C   UNL     1      -0.847  11.722  18.446  0.00  0.00    +0.000 C 
ATOM     14  C   UNL     1      -0.673  10.557  20.694  0.00  0.00    +0.000 C 
ATOM     15  C   UNL     1      -0.137   9.307  21.423  0.00  0.00    +0.000 C 
ATOM     16  C   UNL     1      -0.378   9.377  22.928  0.00  0.00    +0.000 C 
ATOM     17  C   UNL     1       1.361   9.137  21.111  0.00  0.00    +0.000 C 
ENDBRANCH   5   8
BRANCH   7  18
ATOM     18  S   UNL     1       4.553   3.414  18.632  0.00  0.00    +0.000 S 
ATOM     19  O   UNL     1       5.261   2.657  19.643  0.00  0.00    +0.000 OA
ATOM     20  O   UNL     1       3.774   2.741  17.621  0.00  0.00    +0.000 OA
BRANCH  18  21
ATOM     21  N   UNL     1       5.635   4.425  17.832  0.00  0.00    +0.000 NA
ATOM     22  C   UNL     1       5.519   4.734  16.418  0.00  0.00    +0.000 C 
ATOM     23  C   UNL     1       5.428   6.247  16.309  0.00  0.00    +0.000 C 
ATOM     24  C   UNL     1       6.541   6.985  17.064  0.00  0.00    +0.000 C 
ATOM     25  C   UNL     1       7.125   6.299  18.306  0.00  0.00    +0.000 C 
ATOM     26  C   UNL     1       6.943   4.782  18.388  0.00  0.00    +0.000 C 
ENDBRANCH  18  21
ENDBRANCH   7  18
TORSDOF 3
ENDMDL
MODEL 2
REMARK VINA RESULT:      -8.4      0.664      1.305
REMARK  Name = 
REMARK  6 active torsions:
REMARK  status: ('A' for Active; 'I' for Inactive)
REMARK    1  A    between atoms: C_1  and  C_2
REMARK    2  A    between atoms: C_5  and  C_6
REMARK    3  A    between atoms: C_10  and  C_11
REMARK    4  A    between atoms: C_13  and  C_14
REMARK    5  A    between atoms: C_17  and  S_18
REMARK    6  A    between atoms: S_18  and  N_21
REMARK                            x       y       z     vdW  Elec       q    Type
REMARK                         _______ _______ _______ _____ _____    ______ ____
ROOT
ATOM      1  C   UNL     1       1.847   2.876  20.603  0.00  0.00    +0.000 C 
ATOM      2  C   UNL     1       2.305   4.296  20.478  0.00  0.00    +0.000 A 
ATOM      3  C   UNL     1       1.490   5.255  21.114  0.00  0.00    +0.000 A 
ATOM      4  C   UNL     1       1.460   6.560  20.643  0.00  0.00    +0.000 A 
ATOM      5  C   UNL     1       2.292   6.928  19.584  0.00  0.00    +0.000 A 
ATOM      6  C   UNL     1       3.314   6.066  19.174  0.00  0.00    +0.000 A 
ATOM      7  C   UNL     1       3.307   4.722  19.582  0.00  0.00    +0.000 A 
ENDROOT
BRANCH   5   8
ATOM      8  C   UNL     1       1.945   8.188  18.880  0.00  0.00    +0.000 C 
ATOM      9  O   UNL     1       2.198   8.240  17.671  0.00  0.00    +0.000 OA
ATOM     10  N   UNL     1       1.417   9.276  19.581  0.00  0.00    +0.000 N 
ATOM     11  C   UNL     1       0.947  10.427  18.822  0.00  0.00    +0.000 C 
ATOM     12  C   UNL     1      -0.551  10.629  19.096  0.00  0.00    +0.000 C 
ATOM     13  C   UNL     1      -1.073  11.832  18.314  0.00  0.00    +0.000 C 
ATOM     14  C   UNL     1      -0.807  10.779  20.609  0.00  0.00    +0.000 C 
ATOM     15  C   UNL     1      -0.219   9.579  21.380  0.00  0.00    +0.000 C 
ATOM     16  C   UNL     1      -0.420   9.715  22.887  0.00  0.00    +0.000 C 
ATOM     17  C   UNL     1       1.273   9.429  21.033  0.00  0.00    +0.000 C 
ENDBRANCH   5   8
BRANCH   7  18
ATOM     18  S   UNL     1       4.343   3.570  18.645  0.00  0.00    +0.000 S 
ATOM     19  O   UNL     1       5.202   2.929  19.619  0.00  0.00    +0.000 OA
ATOM     20  O   UNL     1       3.449   2.787  17.826  0.00  0.00    +0.000 OA
BRANCH  18  21
ATOM     21  N   UNL     1       5.279   4.504  17.604  0.00  0.00    +0.000 NA
ATOM     22  C   UNL     1       6.562   5.063  17.992  0.00  0.00    +0.000 C 
ATOM     23  C   UNL     1       7.581   4.549  16.989  0.00  0.00    +0.000 C 
ATOM     24  C   UNL     1       7.171   4.772  15.527  0.00  0.00    +0.000 C 
ATOM     25  C   UNL     1       5.669   4.794  15.213  0.00  0.00    +0.000 C 
ATOM     26  C   UNL     1       4.738   5.111  16.385  0.00  0.00    +0.000 C 
ENDBRANCH  18  21
ENDBRANCH   7  18
TORSDOF 3
ENDMDL
MODEL 3
REMARK VINA RESULT:      -8.0      0.992      1.544
REMARK  Name = 
REMARK  6 active torsions:
REMARK  status: ('A' for Active; 'I' for Inactive)
REMARK    1  A    between atoms: C_1  and  C_2
REMARK    2  A    between atoms: C_5  and  C_6
REMARK    3  A    between atoms: C_10  and  C_11
REMARK    4  A    between atoms: C_13  and  C_14
REMARK    5  A    between atoms: C_17  and  S_18
REMARK    6  A    between atoms: S_18  and  N_21
REMARK                            x       y       z     vdW  Elec       q    Type
REMARK                         _______ _______ _______ _____ _____    ______ ____
ROOT
ATOM      1  C   UNL     1       2.759   2.777  19.977  0.00  0.00    +0.000 C 
ATOM      2  C   UNL     1       2.789   4.261  20.178  0.00  0.00    +0.000 A 
ATOM      3  C   UNL     1       1.568   4.844  20.572  0.00  0.00    +0.000 A 
ATOM      4  C   UNL     1       1.303   6.171  20.263  0.00  0.00    +0.000 A 
ATOM      5  C   UNL     1       2.279   6.936  19.623  0.00  0.00    +0.000 A 
ATOM      6  C   UNL     1       3.587   6.449  19.523  0.00  0.00    +0.000 A 
ATOM      7  C   UNL     1       3.849   5.089  19.756  0.00  0.00    +0.000 A 
ENDROOT
BRANCH   5   8
ATOM      8  C   UNL     1       1.818   8.191  18.978  0.00  0.00    +0.000 C 
ATOM      9  O   UNL     1       1.951   8.271  17.752  0.00  0.00    +0.000 OA
ATOM     10  N   UNL     1       1.317   9.246  19.747  0.00  0.00    +0.000 N 
ATOM     11  C   UNL     1       0.731  10.389  19.058  0.00  0.00    +0.000 C 
ATOM     12  C   UNL     1      -0.740  10.525  19.477  0.00  0.00    +0.000 C 
ATOM     13  C   UNL     1      -1.381  11.717  18.771  0.00  0.00    +0.000 C 
ATOM     14  C   UNL     1      -0.854  10.643  21.010  0.00  0.00    +0.000 C 
ATOM     15  C   UNL     1      -0.148   9.456  21.699  0.00  0.00    +0.000 C 
ATOM     16  C   UNL     1      -0.209   9.562  23.220  0.00  0.00    +0.000 C 
ATOM     17  C   UNL     1       1.308   9.372  21.208  0.00  0.00    +0.000 C 
ENDBRANCH   5   8
BRANCH   7  18
ATOM     18  S   UNL     1       5.423   4.435  19.143  0.00  0.00    +0.000 S 
ATOM     19  O   UNL     1       6.456   5.195  19.817  0.00  0.00    +0.000 OA
ATOM     20  O   UNL     1       5.355   3.001  19.285  0.00  0.00    +0.000 OA
BRANCH  18  21
ATOM     21  N   UNL     1       5.470   4.768  17.494  0.00  0.00    +0.000 NA
ATOM     22  C   UNL     1       5.935   6.038  16.964  0.00  0.00    +0.000 C 
ATOM     23  C   UNL     1       7.076   5.721  16.013  0.00  0.00    +0.000 C 
ATOM     24  C   UNL     1       6.727   4.651  14.969  0.00  0.00    +0.000 C 
ATOM     25  C   UNL     1       5.689   3.593  15.367  0.00  0.00    +0.000 C 
ATOM     26  C   UNL     1       4.739   3.971  16.505  0.00  0.00    +0.000 C 
ENDBRANCH  18  21
ENDBRANCH   7  18
TORSDOF 3
ENDMDL
MODEL 4
REMARK VINA RESULT:      -7.9      1.888      4.199
REMARK  Name = 
REMARK  6 active torsions:
REMARK  status: ('A' for Active; 'I' for Inactive)
REMARK    1  A    between atoms: C_1  and  C_2
REMARK    2  A    between atoms: C_5  and  C_6
REMARK    3  A    between atoms: C_10  and  C_11
REMARK    4  A    between atoms: C_13  and  C_14
REMARK    5  A    between atoms: C_17  and  S_18
REMARK    6  A    between atoms: S_18  and  N_21
REMARK                            x       y       z     vdW  Elec       q    Type
REMARK                         _______ _______ _______ _____ _____    ______ ____
ROOT
ATOM      1  C   UNL     1       4.991   7.044  16.747  0.00  0.00    +0.000 C 
ATOM      2  C   UNL     1       3.705   7.088  17.513  0.00  0.00    +0.000 A 
ATOM      3  C   UNL     1       2.969   8.284  17.394  0.00  0.00    +0.000 A 
ATOM      4  C   UNL     1       2.113   8.676  18.414  0.00  0.00    +0.000 A 
ATOM      5  C   UNL     1       1.938   7.844  19.521  0.00  0.00    +0.000 A 
ATOM      6  C   UNL     1       2.418   6.531  19.485  0.00  0.00    +0.000 A 
ATOM      7  C   UNL     1       3.347   6.150  18.502  0.00  0.00    +0.000 A 
ENDROOT
BRANCH   5   8
ATOM      8  C   UNL     1       1.342   8.469  20.728  0.00  0.00    +0.000 C 
ATOM      9  O   UNL     1       1.899   8.243  21.808  0.00  0.00    +0.000 OA
ATOM     10  N   UNL     1       0.168   9.222  20.636  0.00  0.00    +0.000 N 
ATOM     11  C   UNL     1      -0.287   9.944  21.818  0.00  0.00    +0.000 C 
ATOM     12  C   UNL     1      -0.322  11.447  21.503  0.00  0.00    +0.000 C 
ATOM     13  C   UNL     1      -0.797  12.231  22.724  0.00  0.00    +0.000 C 
ATOM     14  C   UNL     1      -1.209  11.719  20.272  0.00  0.00    +0.000 C 
ATOM     15  C   UNL     1      -0.742  10.872  19.069  0.00  0.00    +0.000 C 
ATOM     16  C   UNL     1      -1.624  11.088  17.843  0.00  0.00    +0.000 C 
ATOM     17  C   UNL     1      -0.709   9.387  19.472  0.00  0.00    +0.000 C 
ENDBRANCH   5   8
BRANCH   7  18
ATOM     18  S   UNL     1       4.284   4.628  18.799  0.00  0.00    +0.000 S 
ATOM     19  O   UNL     1       4.721   4.173  17.496  0.00  0.00    +0.000 OA
ATOM     20  O   UNL     1       5.244   4.932  19.831  0.00  0.00    +0.000 OA
BRANCH  18  21
ATOM     21  N   UNL     1       3.199   3.515  19.444  0.00  0.00    +0.000 NA
ATOM     22  C   UNL     1       3.523   2.674  20.583  0.00  0.00    +0.000 C 
ATOM     23  C   UNL     1       2.470   2.952  21.642  0.00  0.00    +0.000 C 
ATOM     24  C   UNL     1       1.031   2.842  21.122  0.00  0.00    +0.000 C 
ATOM     25  C   UNL     1       0.792   3.166  19.641  0.00  0.00    +0.000 C 
ATOM     26  C   UNL     1       2.010   3.059  18.720  0.00  0.00    +0.000 C 
ENDBRANCH  18  21
ENDBRANCH   7  18
TORSDOF 3
ENDMDL
MODEL 5
REMARK VINA RESULT:      -7.9      3.068      7.856
REMARK  Name = 
REMARK  6 active torsions:
REMARK  status: ('A' for Active; 'I' for Inactive)
REMARK    1  A    between atoms: C_1  and  C_2
REMARK    2  A    between atoms: C_5  and  C_6
REMARK    3  A    between atoms: C_10  and  C_11
REMARK    4  A    between atoms: C_13  and  C_14
REMARK    5  A    between atoms: C_17  and  S_18
REMARK    6  A    between atoms: S_18  and  N_21
REMARK                            x       y       z     vdW  Elec       q    Type
REMARK                         _______ _______ _______ _____ _____    ______ ____
ROOT
ATOM      1  C   UNL     1      -0.248  10.661  18.261  0.00  0.00    +0.000 C 
ATOM      2  C   UNL     1       0.854   9.774  18.751  0.00  0.00    +0.000 A 
ATOM      3  C   UNL     1       1.457   8.958  17.772  0.00  0.00    +0.000 A 
ATOM      4  C   UNL     1       2.050   7.758  18.139  0.00  0.00    +0.000 A 
ATOM      5  C   UNL     1       2.104   7.403  19.488  0.00  0.00    +0.000 A 
ATOM      6  C   UNL     1       1.794   8.352  20.468  0.00  0.00    +0.000 A 
ATOM      7  C   UNL     1       1.121   9.533  20.114  0.00  0.00    +0.000 A 
ENDROOT
BRANCH   5   8
ATOM      8  C   UNL     1       2.382   5.975  19.783  0.00  0.00    +0.000 C 
ATOM      9  O   UNL     1       1.676   5.434  20.642  0.00  0.00    +0.000 OA
ATOM     10  N   UNL     1       3.439   5.309  19.156  0.00  0.00    +0.000 N 
ATOM     11  C   UNL     1       3.571   3.872  19.359  0.00  0.00    +0.000 C 
ATOM     12  C   UNL     1       3.456   3.162  18.002  0.00  0.00    +0.000 C 
ATOM     13  C   UNL     1       3.591   1.653  18.184  0.00  0.00    +0.000 C 
ATOM     14  C   UNL     1       4.503   3.714  17.015  0.00  0.00    +0.000 C 
ATOM     15  C   UNL     1       4.381   5.247  16.895  0.00  0.00    +0.000 C 
ATOM     16  C   UNL     1       5.431   5.831  15.954  0.00  0.00    +0.000 C 
ATOM     17  C   UNL     1       4.480   5.879  18.295  0.00  0.00    +0.000 C 
ENDBRANCH   5   8
BRANCH   7  18
ATOM     18  S   UNL     1       0.326  10.461  21.451  0.00  0.00    +0.000 S 
ATOM     19  O   UNL     1      -1.092  10.201  21.323  0.00  0.00    +0.000 OA
ATOM     20  O   UNL     1       1.030  10.118  22.663  0.00  0.00    +0.000 OA
BRANCH  18  21
ATOM     21  N   UNL     1       0.625  12.089  21.148  0.00  0.00    +0.000 NA
ATOM     22  C   UNL     1       1.959  12.607  20.897  0.00  0.00    +0.000 C 
ATOM     23  C   UNL     1       1.909  13.297  19.544  0.00  0.00    +0.000 C 
ATOM     24  C   UNL     1       0.764  14.310  19.412  0.00  0.00    +0.000 C 
ATOM     25  C   UNL     1      -0.506  14.047  20.231  0.00  0.00    +0.000 C 
ATOM     26  C   UNL     1      -0.347  13.142  21.455  0.00  0.00    +0.000 C 
ENDBRANCH  18  21
ENDBRANCH   7  18
TORSDOF 3
ENDMDL
MODEL 6
REMARK VINA RESULT:      -7.5      1.683      4.064
REMARK  Name = 
REMARK  6 active torsions:
REMARK  status: ('A' for Active; 'I' for Inactive)
REMARK    1  A    between atoms: C_1  and  C_2
REMARK    2  A    between atoms: C_5  and  C_6
REMARK    3  A    between atoms: C_10  and  C_11
REMARK    4  A    between atoms: C_13  and  C_14
REMARK    5  A    between atoms: C_17  and  S_18
REMARK    6  A    between atoms: S_18  and  N_21
REMARK                            x       y       z     vdW  Elec       q    Type
REMARK                         _______ _______ _______ _____ _____    ______ ____
ROOT
ATOM      1  C   UNL     1       5.945   6.924  16.985  0.00  0.00    +0.000 C 
ATOM      2  C   UNL     1       4.505   6.802  17.379  0.00  0.00    +0.000 A 
ATOM      3  C   UNL     1       3.791   8.015  17.450  0.00  0.00    +0.000 A 
ATOM      4  C   UNL     1       2.693   8.124  18.291  0.00  0.00    +0.000 A 
ATOM      5  C   UNL     1       2.264   7.007  19.010  0.00  0.00    +0.000 A 
ATOM      6  C   UNL     1       2.774   5.743  18.696  0.00  0.00    +0.000 A 
ATOM      7  C   UNL     1       3.933   5.628  17.911  0.00  0.00    +0.000 A 
ENDROOT
BRANCH   5   8
ATOM      8  C   UNL     1       1.362   7.268  20.160  0.00  0.00    +0.000 C 
ATOM      9  O   UNL     1       1.286   6.386  21.022  0.00  0.00    +0.000 OA
ATOM     10  N   UNL     1       0.594   8.435  20.214  0.00  0.00    +0.000 N 
ATOM     11  C   UNL     1      -0.150   8.718  21.434  0.00  0.00    +0.000 C 
ATOM     12  C   UNL     1       0.345  10.047  22.026  0.00  0.00    +0.000 C 
ATOM     13  C   UNL     1      -0.420  10.371  23.306  0.00  0.00    +0.000 C 
ATOM     14  C   UNL     1       0.221  11.178  20.986  0.00  0.00    +0.000 C 
ATOM     15  C   UNL     1       0.954  10.800  19.682  0.00  0.00    +0.000 C 
ATOM     16  C   UNL     1       0.818  11.883  18.616  0.00  0.00    +0.000 C 
ATOM     17  C   UNL     1       0.421   9.450  19.170  0.00  0.00    +0.000 C 
ENDBRANCH   5   8
BRANCH   7  18
ATOM     18  S   UNL     1       4.805   4.041  17.954  0.00  0.00    +0.000 S 
ATOM     19  O   UNL     1       4.981   3.650  16.571  0.00  0.00    +0.000 OA
ATOM     20  O   UNL     1       5.947   4.224  18.816  0.00  0.00    +0.000 OA
BRANCH  18  21
ATOM     21  N   UNL     1       3.776   2.949  18.717  0.00  0.00    +0.000 NA
ATOM     22  C   UNL     1       4.026   2.441  20.054  0.00  0.00    +0.000 C 
ATOM     23  C   UNL     1       2.802   2.786  20.885  0.00  0.00    +0.000 C 
ATOM     24  C   UNL     1       1.479   2.348  20.242  0.00  0.00    +0.000 C 
ATOM     25  C   UNL     1       1.426   2.295  18.710  0.00  0.00    +0.000 C 
ATOM     26  C   UNL     1       2.770   2.170  17.990  0.00  0.00    +0.000 C 
ENDBRANCH  18  21
ENDBRANCH   7  18
TORSDOF 3
ENDMDL
MODEL 7
REMARK VINA RESULT:      -7.4      3.208      7.906
REMARK  Name = 
REMARK  6 active torsions:
REMARK  status: ('A' for Active; 'I' for Inactive)
REMARK    1  A    between atoms: C_1  and  C_2
REMARK    2  A    between atoms: C_5  and  C_6
REMARK    3  A    between atoms: C_10  and  C_11
REMARK    4  A    between atoms: C_13  and  C_14
REMARK    5  A    between atoms: C_17  and  S_18
REMARK    6  A    between atoms: S_18  and  N_21
REMARK                            x       y       z     vdW  Elec       q    Type
REMARK                         _______ _______ _______ _____ _____    ______ ____
ROOT
ATOM      1  C   UNL     1      -0.272  10.582  18.217  0.00  0.00    +0.000 C 
ATOM      2  C   UNL     1       0.841   9.710  18.709  0.00  0.00    +0.000 A 
ATOM      3  C   UNL     1       1.435   8.878  17.738  0.00  0.00    +0.000 A 
ATOM      4  C   UNL     1       2.040   7.690  18.121  0.00  0.00    +0.000 A 
ATOM      5  C   UNL     1       2.116   7.362  19.476  0.00  0.00    +0.000 A 
ATOM      6  C   UNL     1       1.814   8.329  20.441  0.00  0.00    +0.000 A 
ATOM      7  C   UNL     1       1.129   9.499  20.073  0.00  0.00    +0.000 A 
ENDROOT
BRANCH   5   8
ATOM      8  C   UNL     1       2.406   5.942  19.797  0.00  0.00    +0.000 C 
ATOM      9  O   UNL     1       1.708   5.411  20.668  0.00  0.00    +0.000 OA
ATOM     10  N   UNL     1       3.466   5.272  19.177  0.00  0.00    +0.000 N 
ATOM     11  C   UNL     1       3.609   3.841  19.406  0.00  0.00    +0.000 C 
ATOM     12  C   UNL     1       3.494   3.105  18.063  0.00  0.00    +0.000 C 
ATOM     13  C   UNL     1       3.642   1.600  18.271  0.00  0.00    +0.000 C 
ATOM     14  C   UNL     1       4.533   3.646  17.061  0.00  0.00    +0.000 C 
ATOM     15  C   UNL     1       4.398   5.177  16.913  0.00  0.00    +0.000 C 
ATOM     16  C   UNL     1       5.440   5.751  15.958  0.00  0.00    +0.000 C 
ATOM     17  C   UNL     1       4.499   5.835  18.301  0.00  0.00    +0.000 C 
ENDBRANCH   5   8
BRANCH   7  18
ATOM     18  S   UNL     1       0.348  10.450  21.402  0.00  0.00    +0.000 S 
ATOM     19  O   UNL     1      -1.071  10.179  21.300  0.00  0.00    +0.000 OA
ATOM     20  O   UNL     1       1.070  10.135  22.611  0.00  0.00    +0.000 OA
BRANCH  18  21
ATOM     21  N   UNL     1       0.634  12.073  21.062  0.00  0.00    +0.000 NA
ATOM     22  C   UNL     1      -0.414  13.078  21.103  0.00  0.00    +0.000 C 
ATOM     23  C   UNL     1       0.040  14.139  22.090  0.00  0.00    +0.000 C 
ATOM     24  C   UNL     1       1.457  14.664  21.821  0.00  0.00    +0.000 C 
ATOM     25  C   UNL     1       2.450  13.700  21.159  0.00  0.00    +0.000 C 
ATOM     26  C   UNL     1       1.841  12.535  20.374  0.00  0.00    +0.000 C 
ENDBRANCH  18  21
ENDBRANCH   7  18
TORSDOF 3
ENDMDL
MODEL 8
REMARK VINA RESULT:      -7.4      1.318      1.803
REMARK  Name = 
REMARK  6 active torsions:
REMARK  status: ('A' for Active; 'I' for Inactive)
REMARK    1  A    between atoms: C_1  and  C_2
REMARK    2  A    between atoms: C_5  and  C_6
REMARK    3  A    between atoms: C_10  and  C_11
REMARK    4  A    between atoms: C_13  and  C_14
REMARK    5  A    between atoms: C_17  and  S_18
REMARK    6  A    between atoms: S_18  and  N_21
REMARK                            x       y       z     vdW  Elec       q    Type
REMARK                         _______ _______ _______ _____ _____    ______ ____
ROOT
ATOM      1  C   UNL     1       3.214   2.942  18.277  0.00  0.00    +0.000 C 
ATOM      2  C   UNL     1       3.006   4.319  18.827  0.00  0.00    +0.000 A 
ATOM      3  C   UNL     1       1.666   4.748  18.897  0.00  0.00    +0.000 A 
ATOM      4  C   UNL     1       1.368   6.103  18.845  0.00  0.00    +0.000 A 
ATOM      5  C   UNL     1       2.408   7.033  18.793  0.00  0.00    +0.000 A 
ATOM      6  C   UNL     1       3.721   6.620  19.042  0.00  0.00    +0.000 A 
ATOM      7  C   UNL     1       4.044   5.254  19.017  0.00  0.00    +0.000 A 
ENDROOT
BRANCH   5   8
ATOM      8  C   UNL     1       2.046   8.403  18.350  0.00  0.00    +0.000 C 
ATOM      9  O   UNL     1       2.316   8.703  17.182  0.00  0.00    +0.000 OA
ATOM     10  N   UNL     1       1.484   9.318  19.247  0.00  0.00    +0.000 N 
ATOM     11  C   UNL     1       1.002  10.590  18.727  0.00  0.00    +0.000 C 
ATOM     12  C   UNL     1      -0.504  10.706  19.006  0.00  0.00    +0.000 C 
ATOM     13  C   UNL     1      -1.039  12.033  18.473  0.00  0.00    +0.000 C 
ATOM     14  C   UNL     1      -0.786  10.543  20.513  0.00  0.00    +0.000 C 
ATOM     15  C   UNL     1      -0.186   9.222  21.037  0.00  0.00    +0.000 C 
ATOM     16  C   UNL     1      -0.413   9.047  22.536  0.00  0.00    +0.000 C 
ATOM     17  C   UNL     1       1.314   9.171  20.696  0.00  0.00    +0.000 C 
ENDBRANCH   5   8
BRANCH   7  18
ATOM     18  S   UNL     1       5.797   4.824  18.855  0.00  0.00    +0.000 S 
ATOM     19  O   UNL     1       6.508   5.727  19.737  0.00  0.00    +0.000 OA
ATOM     20  O   UNL     1       5.887   3.396  19.038  0.00  0.00    +0.000 OA
BRANCH  18  21
ATOM     21  N   UNL     1       6.224   5.148  17.260  0.00  0.00    +0.000 NA
ATOM     22  C   UNL     1       7.151   4.315  16.513  0.00  0.00    +0.000 C 
ATOM     23  C   UNL     1       6.412   3.851  15.270  0.00  0.00    +0.000 C 
ATOM     24  C   UNL     1       5.758   4.992  14.481  0.00  0.00    +0.000 C 
ATOM     25  C   UNL     1       5.307   6.227  15.273  0.00  0.00    +0.000 C 
ATOM     26  C   UNL     1       5.987   6.447  16.626  0.00  0.00    +0.000 C 
ENDBRANCH  18  21
ENDBRANCH   7  18
TORSDOF 3
ENDMDL
MODEL 9
REMARK VINA RESULT:      -7.3      2.390      4.274
REMARK  Name = 
REMARK  6 active torsions:
REMARK  status: ('A' for Active; 'I' for Inactive)
REMARK    1  A    between atoms: C_1  and  C_2
REMARK    2  A    between atoms: C_5  and  C_6
REMARK    3  A    between atoms: C_10  and  C_11
REMARK    4  A    between atoms: C_13  and  C_14
REMARK    5  A    between atoms: C_17  and  S_18
REMARK    6  A    between atoms: S_18  and  N_21
REMARK                            x       y       z     vdW  Elec       q    Type
REMARK                         _______ _______ _______ _____ _____    ______ ____
ROOT
ATOM      1  C   UNL     1       3.929   7.340  17.361  0.00  0.00    +0.000 C 
ATOM      2  C   UNL     1       2.738   7.645  18.215  0.00  0.00    +0.000 A 
ATOM      3  C   UNL     1       2.105   8.877  17.955  0.00  0.00    +0.000 A 
ATOM      4  C   UNL     1       1.397   9.519  18.962  0.00  0.00    +0.000 A 
ATOM      5  C   UNL     1       1.262   8.902  20.207  0.00  0.00    +0.000 A 
ATOM      6  C   UNL     1       1.616   7.557  20.357  0.00  0.00    +0.000 A 
ATOM      7  C   UNL     1       2.400   6.924  19.378  0.00  0.00    +0.000 A 
ENDROOT
BRANCH   5   8
ATOM      8  C   UNL     1       0.852   9.775  21.335  0.00  0.00    +0.000 C 
ATOM      9  O   UNL     1       1.542   9.727  22.359  0.00  0.00    +0.000 OA
ATOM     10  N   UNL     1      -0.301  10.561  21.247  0.00  0.00    +0.000 N 
ATOM     11  C   UNL     1      -0.572  11.517  22.313  0.00  0.00    +0.000 C 
ATOM     12  C   UNL     1      -0.604  12.933  21.719  0.00  0.00    +0.000 C 
ATOM     13  C   UNL     1      -0.887  13.958  22.814  0.00  0.00    +0.000 C 
ATOM     14  C   UNL     1      -1.639  13.016  20.580  0.00  0.00    +0.000 C 
ATOM     15  C   UNL     1      -1.363  11.933  19.516  0.00  0.00    +0.000 C 
ATOM     16  C   UNL     1      -2.394  11.961  18.392  0.00  0.00    +0.000 C 
ATOM     17  C   UNL     1      -1.321  10.551  20.193  0.00  0.00    +0.000 C 
ENDBRANCH   5   8
BRANCH   7  18
ATOM     18  S   UNL     1       3.221   5.380  19.852  0.00  0.00    +0.000 S 
ATOM     19  O   UNL     1       4.639   5.620  19.685  0.00  0.00    +0.000 OA
ATOM     20  O   UNL     1       2.685   5.008  21.139  0.00  0.00    +0.000 OA
BRANCH  18  21
ATOM     21  N   UNL     1       2.719   4.212  18.749  0.00  0.00    +0.000 NA
ATOM     22  C   UNL     1       3.588   3.691  17.709  0.00  0.00    +0.000 C 
ATOM     23  C   UNL     1       3.644   2.186  17.902  0.00  0.00    +0.000 C 
ATOM     24  C   UNL     1       2.262   1.528  18.007  0.00  0.00    +0.000 C 
ATOM     25  C   UNL     1       1.122   2.374  18.589  0.00  0.00    +0.000 C 
ATOM     26  C   UNL     1       1.306   3.892  18.526  0.00  0.00    +0.000 C 
ENDBRANCH  18  21
ENDBRANCH   7  18
TORSDOF 3
ENDMDL
