MODEL 1
REMARK VINA RESULT:      -7.6      0.000      0.000
REMARK  Name = 
REMARK  7 active torsions:
REMARK  status: ('A' for Active; 'I' for Inactive)
REMARK    1  A    between atoms: C_1  and  C_2
REMARK    2  A    between atoms: C_2  and  C_3
REMARK    3  A    between atoms: C_3  and  N_4
REMARK    4  A    between atoms: N_7  and  C_8
REMARK    5  A    between atoms: C_8  and  C_9
REMARK    6  A    between atoms: C_13  and  O_14
REMARK    7  A    between atoms: O_14  and  C_15
REMARK                            x       y       z     vdW  Elec       q    Type
REMARK                         _______ _______ _______ _____ _____    ______ ____
ROOT
ATOM      1  N   UNL     1       4.474   3.380  18.443  0.00  0.00    +0.000 NA
ATOM      2  C   UNL     1       4.057   4.031  19.705  0.00  0.00    +0.000 C 
ATOM      3  C   UNL     1       3.209   5.317  19.545  0.00  0.00    +0.000 C 
ATOM      4  N   UNL     1       3.595   6.282  18.488  0.00  0.00    +0.000 NA
ATOM      5  C   UNL     1       4.266   5.665  17.314  0.00  0.00    +0.000 C 
ATOM      6  C   UNL     1       5.206   6.682  16.634  0.00  0.00    +0.000 C 
ATOM      7  S   UNL     1       6.879   6.210  17.042  0.00  0.00    +0.000 S 
ATOM      8  O   UNL     1       7.501   5.683  15.843  0.00  0.00    +0.000 OA
ATOM      9  O   UNL     1       7.500   7.253  17.830  0.00  0.00    +0.000 OA
ATOM     10  C   UNL     1       6.472   4.847  18.100  0.00  0.00    +0.000 C 
ATOM     11  C   UNL     1       5.113   4.385  17.569  0.00  0.00    +0.000 C 
ENDROOT
BRANCH   1  12
ATOM     12  C   UNL     1       3.325   2.690  17.823  0.00  0.00    +0.000 C 
BRANCH  12  14
ATOM     13  C   UNL     1       0.937   2.401  18.721  0.00  0.00    +0.000 C 
ATOM     14  C   UNL     1       2.382   1.928  18.769  0.00  0.00    +0.000 C 
ENDBRANCH  12  14
ENDBRANCH   1  12
BRANCH   4  15
ATOM     15  C   UNL     1       2.390   7.020  18.020  0.00  0.00    +0.000 C 
BRANCH  15  16
ATOM     16  C   UNL     1       1.937   8.185  18.875  0.00  0.00    +0.000 A 
ATOM     17  C   UNL     1       1.611   9.418  18.296  0.00  0.00    +0.000 A 
ATOM     18  C   UNL     1       1.068  10.438  19.075  0.00  0.00    +0.000 A 
ATOM     19  C   UNL     1       0.840  10.232  20.437  0.00  0.00    +0.000 A 
ATOM     20  C   UNL     1       1.166   9.016  21.037  0.00  0.00    +0.000 A 
ATOM     21  C   UNL     1       1.728   8.002  20.256  0.00  0.00    +0.000 A 
BRANCH  20  22
ATOM     22  O   UNL     1       0.869   8.935  22.370  0.00  0.00    +0.000 OA
ATOM     23  C   UNL     1      -0.298   9.614  22.817  0.00  0.00    +0.000 C 
ENDBRANCH  20  22
ENDBRANCH  15  16
ENDBRANCH   4  15
TORSDOF 5
ENDMDL
MODEL 2
REMARK VINA RESULT:      -7.1      0.998      1.630
REMARK  Name = 
REMARK  7 active torsions:
REMARK  status: ('A' for Active; 'I' for Inactive)
REMARK    1  A    between atoms: C_1  and  C_2
REMARK    2  A    between atoms: C_2  and  C_3
REMARK    3  A    between atoms: C_3  and  N_4
REMARK    4  A    between atoms: N_7  and  C_8
REMARK    5  A    between atoms: C_8  and  C_9
REMARK    6  A    between atoms: C_13  and  O_14
REMARK    7  A    between atoms: O_14  and  C_15
REMARK                            x       y       z     vdW  Elec       q    Type
REMARK                         _______ _______ _______ _____ _____    ______ ____
ROOT
ATOM      1  N   UNL     1       4.359   3.408  18.421  0.00  0.00    +0.000 NA
ATOM      2  C   UNL     1       3.967   4.061  19.690  0.00  0.00    +0.000 C 
ATOM      3  C   UNL     1       3.188   5.391  19.544  0.00  0.00    +0.000 C 
ATOM      4  N   UNL     1       3.629   6.351  18.504  0.00  0.00    +0.000 NA
ATOM      5  C   UNL     1       4.275   5.717  17.325  0.00  0.00    +0.000 C 
ATOM      6  C   UNL     1       5.271   6.694  16.665  0.00  0.00    +0.000 C 
ATOM      7  S   UNL     1       6.915   6.131  17.076  0.00  0.00    +0.000 S 
ATOM      8  O   UNL     1       7.517   5.591  15.873  0.00  0.00    +0.000 OA
ATOM      9  O   UNL     1       7.583   7.129  17.884  0.00  0.00    +0.000 OA
ATOM     10  C   UNL     1       6.431   4.776  18.111  0.00  0.00    +0.000 C 
ATOM     11  C   UNL     1       5.054   4.392  17.566  0.00  0.00    +0.000 C 
ENDROOT
BRANCH   1  12
ATOM     12  C   UNL     1       3.181   2.787  17.784  0.00  0.00    +0.000 C 
BRANCH  12  14
ATOM     13  C   UNL     1       0.822   2.492  18.756  0.00  0.00    +0.000 C 
ATOM     14  C   UNL     1       2.249   1.970  18.696  0.00  0.00    +0.000 C 
ENDBRANCH  12  14
ENDBRANCH   1  12
BRANCH   4  15
ATOM     15  C   UNL     1       2.467   7.156  18.039  0.00  0.00    +0.000 C 
BRANCH  15  16
ATOM     16  C   UNL     1       1.826   8.069  19.063  0.00  0.00    +0.000 A 
ATOM     17  C   UNL     1       1.738   7.692  20.408  0.00  0.00    +0.000 A 
ATOM     18  C   UNL     1       1.269   8.593  21.362  0.00  0.00    +0.000 A 
ATOM     19  C   UNL     1       0.891   9.883  20.980  0.00  0.00    +0.000 A 
ATOM     20  C   UNL     1       0.961  10.277  19.644  0.00  0.00    +0.000 A 
ATOM     21  C   UNL     1       1.414   9.364  18.688  0.00  0.00    +0.000 A 
BRANCH  20  22
ATOM     22  O   UNL     1       0.587  11.572  19.408  0.00  0.00    +0.000 OA
ATOM     23  C   UNL     1       1.449  12.595  19.890  0.00  0.00    +0.000 C 
ENDBRANCH  20  22
ENDBRANCH  15  16
ENDBRANCH   4  15
TORSDOF 5
ENDMDL
MODEL 3
REMARK VINA RESULT:      -6.7      3.082      4.365
REMARK  Name = 
REMARK  7 active torsions:
REMARK  status: ('A' for Active; 'I' for Inactive)
REMARK    1  A    between atoms: C_1  and  C_2
REMARK    2  A    between atoms: C_2  and  C_3
REMARK    3  A    between atoms: C_3  and  N_4
REMARK    4  A    between atoms: N_7  and  C_8
REMARK    5  A    between atoms: C_8  and  C_9
REMARK    6  A    between atoms: C_13  and  O_14
REMARK    7  A    between atoms: O_14  and  C_15
REMARK                            x       y       z     vdW  Elec       q    Type
REMARK                         _______ _______ _______ _____ _____    ______ ____
ROOT
ATOM      1  N   UNL     1       5.077   4.268  17.452  0.00  0.00    +0.000 NA
ATOM      2  C   UNL     1       4.572   5.455  16.727  0.00  0.00    +0.000 C 
ATOM      3  C   UNL     1       3.915   6.547  17.606  0.00  0.00    +0.000 C 
ATOM      4  N   UNL     1       3.026   6.115  18.711  0.00  0.00    +0.000 NA
ATOM      5  C   UNL     1       3.364   4.784  19.281  0.00  0.00    +0.000 C 
ATOM      6  C   UNL     1       2.107   4.116  19.875  0.00  0.00    +0.000 C 
ATOM      7  S   UNL     1       1.622   2.812  18.756  0.00  0.00    +0.000 S 
ATOM      8  O   UNL     1       1.910   1.543  19.395  0.00  0.00    +0.000 OA
ATOM      9  O   UNL     1       0.320   3.109  18.199  0.00  0.00    +0.000 OA
ATOM     10  C   UNL     1       2.861   3.107  17.524  0.00  0.00    +0.000 C 
ATOM     11  C   UNL     1       4.004   3.741  18.320  0.00  0.00    +0.000 C 
ENDROOT
BRANCH   1  12
ATOM     12  C   UNL     1       6.320   4.605  18.173  0.00  0.00    +0.000 C 
BRANCH  12  14
ATOM     13  C   UNL     1       7.736   6.747  18.224  0.00  0.00    +0.000 C 
ATOM     14  C   UNL     1       7.324   5.511  17.439  0.00  0.00    +0.000 C 
ENDBRANCH  12  14
ENDBRANCH   1  12
BRANCH   4  15
ATOM     15  C   UNL     1       3.056   7.125  19.803  0.00  0.00    +0.000 C 
BRANCH  15  16
ATOM     16  C   UNL     1       1.813   7.973  19.973  0.00  0.00    +0.000 A 
ATOM     17  C   UNL     1       1.039   7.890  21.137  0.00  0.00    +0.000 A 
ATOM     18  C   UNL     1      -0.023   8.769  21.339  0.00  0.00    +0.000 A 
ATOM     19  C   UNL     1      -0.317   9.744  20.383  0.00  0.00    +0.000 A 
ATOM     20  C   UNL     1       0.434   9.838  19.211  0.00  0.00    +0.000 A 
ATOM     21  C   UNL     1       1.487   8.942  19.004  0.00  0.00    +0.000 A 
BRANCH  20  22
ATOM     22  O   UNL     1       0.060  10.851  18.370  0.00  0.00    +0.000 OA
ATOM     23  C   UNL     1      -1.331  11.003  18.116  0.00  0.00    +0.000 C 
ENDBRANCH  20  22
ENDBRANCH  15  16
ENDBRANCH   4  15
TORSDOF 5
ENDMDL
MODEL 4
REMARK VINA RESULT:      -6.6      2.068      2.470
REMARK  Name = 
REMARK  7 active torsions:
REMARK  status: ('A' for Active; 'I' for Inactive)
REMARK    1  A    between atoms: C_1  and  C_2
REMARK    2  A    between atoms: C_2  and  C_3
REMARK    3  A    between atoms: C_3  and  N_4
REMARK    4  A    between atoms: N_7  and  C_8
REMARK    5  A    between atoms: C_8  and  C_9
REMARK    6  A    between atoms: C_13  and  O_14
REMARK    7  A    between atoms: O_14  and  C_15
REMARK                            x       y       z     vdW  Elec       q    Type
REMARK                         _______ _______ _______ _____ _____    ______ ____
ROOT
ATOM      1  N   UNL     1       2.808   4.641  19.638  0.00  0.00    +0.000 NA
ATOM      2  C   UNL     1       2.596   5.867  20.441  0.00  0.00    +0.000 C 
ATOM      3  C   UNL     1       2.301   7.153  19.631  0.00  0.00    +0.000 C 
ATOM      4  N   UNL     1       3.076   7.393  18.390  0.00  0.00    +0.000 NA
ATOM      5  C   UNL     1       3.531   6.154  17.706  0.00  0.00    +0.000 C 
ATOM      6  C   UNL     1       4.818   6.424  16.901  0.00  0.00    +0.000 C 
ATOM      7  S   UNL     1       6.169   5.672  17.794  0.00  0.00    +0.000 S 
ATOM      8  O   UNL     1       6.613   4.514  17.043  0.00  0.00    +0.000 OA
ATOM      9  O   UNL     1       7.091   6.696  18.235  0.00  0.00    +0.000 OA
ATOM     10  C   UNL     1       5.225   5.103  19.182  0.00  0.00    +0.000 C 
ATOM     11  C   UNL     1       3.823   4.914  18.600  0.00  0.00    +0.000 C 
ENDROOT
BRANCH   1  12
ATOM     12  C   UNL     1       1.521   4.155  19.105  0.00  0.00    +0.000 C 
BRANCH  12  14
ATOM     13  C   UNL     1       1.486   2.702  21.223  0.00  0.00    +0.000 C 
ATOM     14  C   UNL     1       0.820   3.037  19.897  0.00  0.00    +0.000 C 
ENDBRANCH  12  14
ENDBRANCH   1  12
BRANCH   4  15
ATOM     15  C   UNL     1       2.262   8.196  17.438  0.00  0.00    +0.000 C 
BRANCH  15  16
ATOM     16  C   UNL     1       1.591   9.432  17.998  0.00  0.00    +0.000 A 
ATOM     17  C   UNL     1       2.319  10.607  18.223  0.00  0.00    +0.000 A 
ATOM     18  C   UNL     1       1.666  11.775  18.612  0.00  0.00    +0.000 A 
ATOM     19  C   UNL     1       0.279  11.781  18.771  0.00  0.00    +0.000 A 
ATOM     20  C   UNL     1      -0.466  10.620  18.562  0.00  0.00    +0.000 A 
ATOM     21  C   UNL     1       0.195   9.446  18.191  0.00  0.00    +0.000 A 
BRANCH  20  22
ATOM     22  O   UNL     1      -1.817  10.767  18.726  0.00  0.00    +0.000 OA
ATOM     23  C   UNL     1      -2.480  11.680  17.860  0.00  0.00    +0.000 C 
ENDBRANCH  20  22
ENDBRANCH  15  16
ENDBRANCH   4  15
TORSDOF 5
ENDMDL
MODEL 5
REMARK VINA RESULT:      -6.6      2.663      4.021
REMARK  Name = 
REMARK  7 active torsions:
REMARK  status: ('A' for Active; 'I' for Inactive)
REMARK    1  A    between atoms: C_1  and  C_2
REMARK    2  A    between atoms: C_2  and  C_3
REMARK    3  A    between atoms: C_3  and  N_4
REMARK    4  A    between atoms: N_7  and  C_8
REMARK    5  A    between atoms: C_8  and  C_9
REMARK    6  A    between atoms: C_13  and  O_14
REMARK    7  A    between atoms: O_14  and  C_15
REMARK                            x       y       z     vdW  Elec       q    Type
REMARK                         _______ _______ _______ _____ _____    ______ ____
ROOT
ATOM      1  N   UNL     1       5.734   5.344  17.511  0.00  0.00    +0.000 NA
ATOM      2  C   UNL     1       4.855   6.337  16.853  0.00  0.00    +0.000 C 
ATOM      3  C   UNL     1       3.742   6.939  17.745  0.00  0.00    +0.000 C 
ATOM      4  N   UNL     1       3.014   6.032  18.664  0.00  0.00    +0.000 NA
ATOM      5  C   UNL     1       3.812   4.867  19.130  0.00  0.00    +0.000 C 
ATOM      6  C   UNL     1       2.887   3.681  19.470  0.00  0.00    +0.000 C 
ATOM      7  S   UNL     1       3.066   2.478  18.162  0.00  0.00    +0.000 S 
ATOM      8  O   UNL     1       3.788   1.340  18.696  0.00  0.00    +0.000 OA
ATOM      9  O   UNL     1       1.807   2.327  17.465  0.00  0.00    +0.000 OA
ATOM     10  C   UNL     1       4.180   3.416  17.152  0.00  0.00    +0.000 C 
ATOM     11  C   UNL     1       4.898   4.315  18.161  0.00  0.00    +0.000 C 
ENDROOT
BRANCH   1  12
ATOM     12  C   UNL     1       6.669   6.024  18.429  0.00  0.00    +0.000 C 
BRANCH  12  14
ATOM     13  C   UNL     1       7.707   8.254  17.691  0.00  0.00    +0.000 C 
ATOM     14  C   UNL     1       7.869   6.745  17.789  0.00  0.00    +0.000 C 
ENDBRANCH  12  14
ENDBRANCH   1  12
BRANCH   4  15
ATOM     15  C   UNL     1       2.541   6.794  19.851  0.00  0.00    +0.000 C 
BRANCH  15  16
ATOM     16  C   UNL     1       1.787   8.078  19.573  0.00  0.00    +0.000 A 
ATOM     17  C   UNL     1       1.644   8.558  18.265  0.00  0.00    +0.000 A 
ATOM     18  C   UNL     1       0.836   9.664  18.007  0.00  0.00    +0.000 A 
ATOM     19  C   UNL     1       0.159  10.296  19.053  0.00  0.00    +0.000 A 
ATOM     20  C   UNL     1       0.294   9.840  20.365  0.00  0.00    +0.000 A 
ATOM     21  C   UNL     1       1.121   8.743  20.621  0.00  0.00    +0.000 A 
BRANCH  20  22
ATOM     22  O   UNL     1      -0.441  10.529  21.290  0.00  0.00    +0.000 OA
ATOM     23  C   UNL     1      -0.141  11.908  21.463  0.00  0.00    +0.000 C 
ENDBRANCH  20  22
ENDBRANCH  15  16
ENDBRANCH   4  15
TORSDOF 5
ENDMDL
MODEL 6
REMARK VINA RESULT:      -6.5      2.986      4.191
REMARK  Name = 
REMARK  7 active torsions:
REMARK  status: ('A' for Active; 'I' for Inactive)
REMARK    1  A    between atoms: C_1  and  C_2
REMARK    2  A    between atoms: C_2  and  C_3
REMARK    3  A    between atoms: C_3  and  N_4
REMARK    4  A    between atoms: N_7  and  C_8
REMARK    5  A    between atoms: C_8  and  C_9
REMARK    6  A    between atoms: C_13  and  O_14
REMARK    7  A    between atoms: O_14  and  C_15
REMARK                            x       y       z     vdW  Elec       q    Type
REMARK                         _______ _______ _______ _____ _____    ______ ____
ROOT
ATOM      1  N   UNL     1       5.084   4.943  18.038  0.00  0.00    +0.000 NA
ATOM      2  C   UNL     1       4.556   6.050  17.210  0.00  0.00    +0.000 C 
ATOM      3  C   UNL     1       3.616   7.041  17.939  0.00  0.00    +0.000 C 
ATOM      4  N   UNL     1       2.617   6.491  18.885  0.00  0.00    +0.000 NA
ATOM      5  C   UNL     1       3.028   5.219  19.535  0.00  0.00    +0.000 C 
ATOM      6  C   UNL     1       1.790   4.384  19.921  0.00  0.00    +0.000 C 
ATOM      7  S   UNL     1       1.686   3.026  18.767  0.00  0.00    +0.000 S 
ATOM      8  O   UNL     1       2.028   1.808  19.475  0.00  0.00    +0.000 OA
ATOM      9  O   UNL     1       0.471   3.142  17.988  0.00  0.00    +0.000 OA
ATOM     10  C   UNL     1       3.068   3.489  17.758  0.00  0.00    +0.000 C 
ATOM     11  C   UNL     1       3.960   4.273  18.722  0.00  0.00    +0.000 C 
ENDROOT
BRANCH   1  12
ATOM     12  C   UNL     1       6.127   5.447  18.953  0.00  0.00    +0.000 C 
BRANCH  12  14
ATOM     13  C   UNL     1       7.831   7.163  18.087  0.00  0.00    +0.000 C 
ATOM     14  C   UNL     1       7.520   5.697  18.347  0.00  0.00    +0.000 C 
ENDBRANCH  12  14
ENDBRANCH   1  12
BRANCH   4  15
ATOM     15  C   UNL     1       2.321   7.495  19.943  0.00  0.00    +0.000 C 
BRANCH  15  16
ATOM     16  C   UNL     1       1.417   8.644  19.548  0.00  0.00    +0.000 A 
ATOM     17  C   UNL     1       1.161   8.928  18.201  0.00  0.00    +0.000 A 
ATOM     18  C   UNL     1       0.224   9.900  17.853  0.00  0.00    +0.000 A 
ATOM     19  C   UNL     1      -0.470  10.591  18.849  0.00  0.00    +0.000 A 
ATOM     20  C   UNL     1      -0.224  10.331  20.197  0.00  0.00    +0.000 A 
ATOM     21  C   UNL     1       0.730   9.370  20.542  0.00  0.00    +0.000 A 
BRANCH  20  22
ATOM     22  O   UNL     1      -0.989  11.057  21.070  0.00  0.00    +0.000 OA
ATOM     23  C   UNL     1      -0.767  12.461  21.114  0.00  0.00    +0.000 C 
ENDBRANCH  20  22
ENDBRANCH  15  16
ENDBRANCH   4  15
TORSDOF 5
ENDMDL
MODEL 7
REMARK VINA RESULT:      -6.5      3.233      4.336
REMARK  Name = 
REMARK  7 active torsions:
REMARK  status: ('A' for Active; 'I' for Inactive)
REMARK    1  A    between atoms: C_1  and  C_2
REMARK    2  A    between atoms: C_2  and  C_3
REMARK    3  A    between atoms: C_3  and  N_4
REMARK    4  A    between atoms: N_7  and  C_8
REMARK    5  A    between atoms: C_8  and  C_9
REMARK    6  A    between atoms: C_13  and  O_14
REMARK    7  A    between atoms: O_14  and  C_15
REMARK                            x       y       z     vdW  Elec       q    Type
REMARK                         _______ _______ _______ _____ _____    ______ ____
ROOT
ATOM      1  N   UNL     1       3.974   3.292  17.758  0.00  0.00    +0.000 NA
ATOM      2  C   UNL     1       2.883   4.004  17.056  0.00  0.00    +0.000 C 
ATOM      3  C   UNL     1       2.548   5.415  17.599  0.00  0.00    +0.000 C 
ATOM      4  N   UNL     1       2.526   5.612  19.068  0.00  0.00    +0.000 NA
ATOM      5  C   UNL     1       3.434   4.706  19.819  0.00  0.00    +0.000 C 
ATOM      6  C   UNL     1       2.900   4.468  21.246  0.00  0.00    +0.000 C 
ATOM      7  S   UNL     1       2.237   2.811  21.294  0.00  0.00    +0.000 S 
ATOM      8  O   UNL     1       3.127   1.995  22.097  0.00  0.00    +0.000 OA
ATOM      9  O   UNL     1       0.813   2.864  21.546  0.00  0.00    +0.000 OA
ATOM     10  C   UNL     1       2.510   2.416  19.588  0.00  0.00    +0.000 C 
ATOM     11  C   UNL     1       3.700   3.300  19.209  0.00  0.00    +0.000 C 
ENDROOT
BRANCH   1  12
ATOM     12  C   UNL     1       5.279   3.875  17.390  0.00  0.00    +0.000 C 
BRANCH  12  14
ATOM     13  C   UNL     1       6.916   4.661  15.574  0.00  0.00    +0.000 C 
ATOM     14  C   UNL     1       5.516   4.161  15.897  0.00  0.00    +0.000 C 
ENDBRANCH  12  14
ENDBRANCH   1  12
BRANCH   4  15
ATOM     15  C   UNL     1       2.880   7.021  19.391  0.00  0.00    +0.000 C 
BRANCH  15  16
ATOM     16  C   UNL     1       1.740   7.924  19.813  0.00  0.00    +0.000 A 
ATOM     17  C   UNL     1       1.130   7.775  21.066  0.00  0.00    +0.000 A 
ATOM     18  C   UNL     1       0.176   8.694  21.496  0.00  0.00    +0.000 A 
ATOM     19  C   UNL     1      -0.173   9.775  20.683  0.00  0.00    +0.000 A 
ATOM     20  C   UNL     1       0.414   9.938  19.428  0.00  0.00    +0.000 A 
ATOM     21  C   UNL     1       1.357   9.003  18.992  0.00  0.00    +0.000 A 
BRANCH  20  22
ATOM     22  O   UNL     1       0.005  11.050  18.743  0.00  0.00    +0.000 OA
ATOM     23  C   UNL     1      -1.199  11.672  19.176  0.00  0.00    +0.000 C 
ENDBRANCH  20  22
ENDBRANCH  15  16
ENDBRANCH   4  15
TORSDOF 5
ENDMDL
MODEL 8
REMARK VINA RESULT:      -6.5      2.494      4.032
REMARK  Name = 
REMARK  7 active torsions:
REMARK  status: ('A' for Active; 'I' for Inactive)
REMARK    1  A    between atoms: C_1  and  C_2
REMARK    2  A    between atoms: C_2  and  C_3
REMARK    3  A    between atoms: C_3  and  N_4
REMARK    4  A    between atoms: N_7  and  C_8
REMARK    5  A    between atoms: C_8  and  C_9
REMARK    6  A    between atoms: C_13  and  O_14
REMARK    7  A    between atoms: O_14  and  C_15
REMARK                            x       y       z     vdW  Elec       q    Type
REMARK                         _______ _______ _______ _____ _____    ______ ____
ROOT
ATOM      1  N   UNL     1       6.854   4.200  15.293  0.00  0.00    +0.000 NA
ATOM      2  C   UNL     1       6.055   3.046  15.763  0.00  0.00    +0.000 C 
ATOM      3  C   UNL     1       4.662   3.391  16.345  0.00  0.00    +0.000 C 
ATOM      4  N   UNL     1       4.544   4.580  17.222  0.00  0.00    +0.000 NA
ATOM      5  C   UNL     1       5.530   5.654  16.928  0.00  0.00    +0.000 C 
ATOM      6  C   UNL     1       5.820   6.481  18.197  0.00  0.00    +0.000 C 
ATOM      7  S   UNL     1       7.445   6.016  18.772  0.00  0.00    +0.000 S 
ATOM      8  O   UNL     1       8.343   7.127  18.524  0.00  0.00    +0.000 OA
ATOM      9  O   UNL     1       7.341   5.394  20.074  0.00  0.00    +0.000 OA
ATOM     10  C   UNL     1       7.760   4.767  17.555  0.00  0.00    +0.000 C 
ATOM     11  C   UNL     1       6.912   5.216  16.363  0.00  0.00    +0.000 C 
ENDROOT
BRANCH   1  12
ATOM     12  C   UNL     1       6.312   4.705  14.016  0.00  0.00    +0.000 C 
BRANCH  12  14
ATOM     13  C   UNL     1       4.927   3.624  12.143  0.00  0.00    +0.000 C 
ATOM     14  C   UNL     1       6.277   3.717  12.837  0.00  0.00    +0.000 C 
ENDBRANCH  12  14
ENDBRANCH   1  12
BRANCH   4  15
ATOM     15  C   UNL     1       3.172   5.147  17.115  0.00  0.00    +0.000 C 
BRANCH  15  16
ATOM     16  C   UNL     1       2.334   5.127  18.376  0.00  0.00    +0.000 A 
ATOM     17  C   UNL     1       1.708   3.949  18.805  0.00  0.00    +0.000 A 
ATOM     18  C   UNL     1       1.052   3.910  20.034  0.00  0.00    +0.000 A 
ATOM     19  C   UNL     1       1.024   5.043  20.849  0.00  0.00    +0.000 A 
ATOM     20  C   UNL     1       1.632   6.229  20.439  0.00  0.00    +0.000 A 
ATOM     21  C   UNL     1       2.272   6.271  19.197  0.00  0.00    +0.000 A 
BRANCH  20  22
ATOM     22  O   UNL     1       1.554   7.256  21.340  0.00  0.00    +0.000 OA
ATOM     23  C   UNL     1       1.239   8.545  20.829  0.00  0.00    +0.000 C 
ENDBRANCH  20  22
ENDBRANCH  15  16
ENDBRANCH   4  15
TORSDOF 5
ENDMDL
MODEL 9
REMARK VINA RESULT:      -6.4      1.371      1.645
REMARK  Name = 
REMARK  7 active torsions:
REMARK  status: ('A' for Active; 'I' for Inactive)
REMARK    1  A    between atoms: C_1  and  C_2
REMARK    2  A    between atoms: C_2  and  C_3
REMARK    3  A    between atoms: C_3  and  N_4
REMARK    4  A    between atoms: N_7  and  C_8
REMARK    5  A    between atoms: C_8  and  C_9
REMARK    6  A    between atoms: C_13  and  O_14
REMARK    7  A    between atoms: O_14  and  C_15
REMARK                            x       y       z     vdW  Elec       q    Type
REMARK                         _______ _______ _______ _____ _____    ______ ____
ROOT
ATOM      1  N   UNL     1       3.441   4.254  19.009  0.00  0.00    +0.000 NA
ATOM      2  C   UNL     1       3.124   5.210  20.094  0.00  0.00    +0.000 C 
ATOM      3  C   UNL     1       2.537   6.568  19.637  0.00  0.00    +0.000 C 
ATOM      4  N   UNL     1       3.120   7.216  18.438  0.00  0.00    +0.000 NA
ATOM      5  C   UNL     1       3.690   6.265  17.448  0.00  0.00    +0.000 C 
ATOM      6  C   UNL     1       4.819   6.938  16.641  0.00  0.00    +0.000 C 
ATOM      7  S   UNL     1       6.365   6.267  17.232  0.00  0.00    +0.000 S 
ATOM      8  O   UNL     1       6.904   5.406  16.197  0.00  0.00    +0.000 OA
ATOM      9  O   UNL     1       7.152   7.319  17.839  0.00  0.00    +0.000 OA
ATOM     10  C   UNL     1       5.685   5.241  18.508  0.00  0.00    +0.000 C 
ATOM     11  C   UNL     1       4.276   4.932  17.997  0.00  0.00    +0.000 C 
ENDROOT
BRANCH   1  12
ATOM     12  C   UNL     1       2.198   3.671  18.468  0.00  0.00    +0.000 C 
BRANCH  12  14
ATOM     13  C   UNL     1       3.523   1.472  18.379  0.00  0.00    +0.000 C 
ATOM     14  C   UNL     1       2.284   2.232  17.930  0.00  0.00    +0.000 C 
ENDBRANCH  12  14
ENDBRANCH   1  12
BRANCH   4  15
ATOM     15  C   UNL     1       2.086   8.047  17.764  0.00  0.00    +0.000 C 
BRANCH  15  16
ATOM     16  C   UNL     1       1.773   9.384  18.403  0.00  0.00    +0.000 A 
ATOM     17  C   UNL     1       2.347  10.565  17.917  0.00  0.00    +0.000 A 
ATOM     18  C   UNL     1       1.948  11.800  18.425  0.00  0.00    +0.000 A 
ATOM     19  C   UNL     1       0.968  11.866  19.417  0.00  0.00    +0.000 A 
ATOM     20  C   UNL     1       0.390  10.702  19.923  0.00  0.00    +0.000 A 
ATOM     21  C   UNL     1       0.806   9.464  19.424  0.00  0.00    +0.000 A 
BRANCH  20  22
ATOM     22  O   UNL     1      -0.575  10.905  20.872  0.00  0.00    +0.000 OA
ATOM     23  C   UNL     1      -1.227  12.169  20.874  0.00  0.00    +0.000 C 
ENDBRANCH  20  22
ENDBRANCH  15  16
ENDBRANCH   4  15
TORSDOF 5
ENDMDL
