MODEL 1
REMARK VINA RESULT:      -7.0      0.000      0.000
REMARK  Name = 
REMARK  12 active torsions:
REMARK  status: ('A' for Active; 'I' for Inactive)
REMARK    1  A    between atoms: N_1  and  C_2
REMARK    2  A    between atoms: C_2  and  C_3
REMARK    3  A    between atoms: C_3  and  C_4
REMARK    4  A    between atoms: C_4  and  C_5
REMARK    5  A    between atoms: C_5  and  C_6
REMARK    6  A    between atoms: C_6  and  C_7
REMARK    7  A    between atoms: C_7  and  C_8
REMARK    8  A    between atoms: C_8  and  C_9
REMARK    9  A    between atoms: C_9  and  C_10
REMARK   10  A    between atoms: C_10  and  N_11
REMARK   11  A    between atoms: N_14  and  C_15
REMARK   12  A    between atoms: C_15  and  C_16
REMARK                            x       y       z     vdW  Elec       q    Type
REMARK                         _______ _______ _______ _____ _____    ______ ____
ROOT
ATOM      1  C   UNL     1      -2.529  12.356  19.801  0.00  0.00    +0.000 C 
ENDROOT
BRANCH   1   2
ATOM      2  C   UNL     1      -3.134  13.304  20.849  0.00  0.00    +0.000 C 
ATOM      3  O   UNL     1      -2.430  13.964  21.623  0.00  0.00    +0.000 OA
ATOM      4  N   UNL     1      -4.529  13.353  20.939  0.00  0.00    +0.000 N 
ATOM      5  C   UNL     1      -5.115  14.359  21.749  0.00  0.00    +0.000 A 
ATOM      6  C   UNL     1      -4.818  15.712  21.486  0.00  0.00    +0.000 A 
ATOM      7  C   UNL     1      -5.307  16.726  22.313  0.00  0.00    +0.000 A 
ATOM      8  C   UNL     1      -6.054  16.399  23.440  0.00  0.00    +0.000 A 
ATOM      9  C   UNL     1      -6.337  15.062  23.716  0.00  0.00    +0.000 A 
ATOM     10  C   UNL     1      -5.898  14.046  22.853  0.00  0.00    +0.000 A 
ATOM     11  C   UNL     1      -6.292  12.669  23.179  0.00  0.00    +0.000 C 
ATOM     12  O   UNL     1      -6.386  12.312  24.349  0.00  0.00    +0.000 OA
ATOM     13  N   UNL     1      -6.746  11.850  22.179  0.00  0.00    +0.000 N 
ATOM     14  C   UNL     1      -6.505  11.897  20.795  0.00  0.00    +0.000 A 
ATOM     15  C   UNL     1      -7.310  11.065  20.006  0.00  0.00    +0.000 A 
ATOM     16  C   UNL     1      -7.025  10.890  18.657  0.00  0.00    +0.000 A 
ATOM     17  C   UNL     1      -5.927  11.543  18.141  0.00  0.00    +0.000 A 
ATOM     18  N   UNL     1      -5.135  12.359  18.871  0.00  0.00    +0.000 NA
ATOM     19  C   UNL     1      -5.426  12.554  20.187  0.00  0.00    +0.000 A 
ATOM     20  H   UNL     1      -7.283  11.074  22.538  0.00  0.00    +0.000 HD
ENDBRANCH   1   2
BRANCH   1  24
ATOM     21  N   UNL     1      -0.019   9.694  19.021  0.00  0.00    +0.000 NA
ATOM     22  C   UNL     1      -0.480  10.127  20.360  0.00  0.00    +0.000 C 
ATOM     23  C   UNL     1      -0.367  11.653  20.613  0.00  0.00    +0.000 C 
ATOM     24  N   UNL     1      -1.059  12.487  19.600  0.00  0.00    +0.000 NA
ATOM     25  C   UNL     1      -0.619  12.043  18.256  0.00  0.00    +0.000 C 
ATOM     26  C   UNL     1      -0.714  10.519  18.005  0.00  0.00    +0.000 C 
BRANCH  21  27
ATOM     27  C   UNL     1       1.435   9.827  18.850  0.00  0.00    +0.000 C 
BRANCH  27  28
ATOM     28  C   UNL     1       2.060   8.577  18.242  0.00  0.00    +0.000 C 
BRANCH  28  29
ATOM     29  C   UNL     1       2.289   7.525  19.315  0.00  0.00    +0.000 C 
BRANCH  29  30
ATOM     30  C   UNL     1       3.136   6.395  18.749  0.00  0.00    +0.000 C 
BRANCH  30  31
ATOM     31  C   UNL     1       2.285   5.481  17.884  0.00  0.00    +0.000 C 
BRANCH  31  32
ATOM     32  C   UNL     1       1.962   4.196  18.631  0.00  0.00    +0.000 C 
BRANCH  32  33
ATOM     33  C   UNL     1       2.209   2.987  17.739  0.00  0.00    +0.000 C 
BRANCH  33  34
ATOM     34  C   UNL     1       3.566   2.362  18.048  0.00  0.00    +0.000 C 
BRANCH  34  35
ATOM     35  C   UNL     1       4.011   2.714  19.462  0.00  0.00    +0.000 C 
BRANCH  35  36
ATOM     36  N   UNL     1       5.014   1.759  19.917  0.00  0.00    +0.000 NA
ATOM     37  H   UNL     1       5.942   2.106  19.688  0.00  0.00    +0.000 HD
ATOM     38  H   UNL     1       4.901   0.882  19.409  0.00  0.00    +0.000 HD
ENDBRANCH  35  36
ENDBRANCH  34  35
ENDBRANCH  33  34
ENDBRANCH  32  33
ENDBRANCH  31  32
ENDBRANCH  30  31
ENDBRANCH  29  30
ENDBRANCH  28  29
ENDBRANCH  27  28
ENDBRANCH  21  27
ENDBRANCH   1  24
TORSDOF 12
ENDMDL
MODEL 2
REMARK VINA RESULT:      -6.9      1.460      1.618
REMARK  Name = 
REMARK  12 active torsions:
REMARK  status: ('A' for Active; 'I' for Inactive)
REMARK    1  A    between atoms: N_1  and  C_2
REMARK    2  A    between atoms: C_2  and  C_3
REMARK    3  A    between atoms: C_3  and  C_4
REMARK    4  A    between atoms: C_4  and  C_5
REMARK    5  A    between atoms: C_5  and  C_6
REMARK    6  A    between atoms: C_6  and  C_7
REMARK    7  A    between atoms: C_7  and  C_8
REMARK    8  A    between atoms: C_8  and  C_9
REMARK    9  A    between atoms: C_9  and  C_10
REMARK   10  A    between atoms: C_10  and  N_11
REMARK   11  A    between atoms: N_14  and  C_15
REMARK   12  A    between atoms: C_15  and  C_16
REMARK                            x       y       z     vdW  Elec       q    Type
REMARK                         _______ _______ _______ _____ _____    ______ ____
ROOT
ATOM      1  C   UNL     1      -2.624  12.174  20.561  0.00  0.00    +0.000 C 
ENDROOT
BRANCH   1   2
ATOM      2  C   UNL     1      -3.384  13.142  21.483  0.00  0.00    +0.000 C 
ATOM      3  O   UNL     1      -2.820  13.763  22.391  0.00  0.00    +0.000 OA
ATOM      4  N   UNL     1      -4.765  13.254  21.294  0.00  0.00    +0.000 N 
ATOM      5  C   UNL     1      -5.456  14.281  21.987  0.00  0.00    +0.000 A 
ATOM      6  C   UNL     1      -5.054  15.620  21.810  0.00  0.00    +0.000 A 
ATOM      7  C   UNL     1      -5.653  16.650  22.539  0.00  0.00    +0.000 A 
ATOM      8  C   UNL     1      -6.624  16.351  23.490  0.00  0.00    +0.000 A 
ATOM      9  C   UNL     1      -7.015  15.027  23.683  0.00  0.00    +0.000 A 
ATOM     10  C   UNL     1      -6.457  13.998  22.909  0.00  0.00    +0.000 A 
ATOM     11  C   UNL     1      -6.968  12.638  23.127  0.00  0.00    +0.000 C 
ATOM     12  O   UNL     1      -7.309  12.278  24.250  0.00  0.00    +0.000 OA
ATOM     13  N   UNL     1      -7.249  11.847  22.045  0.00  0.00    +0.000 N 
ATOM     14  C   UNL     1      -6.735  11.893  20.738  0.00  0.00    +0.000 A 
ATOM     15  C   UNL     1      -7.402  11.104  19.792  0.00  0.00    +0.000 A 
ATOM     16  C   UNL     1      -6.862  10.924  18.523  0.00  0.00    +0.000 A 
ATOM     17  C   UNL     1      -5.656  11.530  18.246  0.00  0.00    +0.000 A 
ATOM     18  N   UNL     1      -4.990  12.303  19.132  0.00  0.00    +0.000 NA
ATOM     19  C   UNL     1      -5.528  12.503  20.367  0.00  0.00    +0.000 A 
ATOM     20  H   UNL     1      -7.880  11.094  22.278  0.00  0.00    +0.000 HD
ENDBRANCH   1   2
BRANCH   1  24
ATOM     21  N   UNL     1       0.059   9.913  19.265  0.00  0.00    +0.000 NA
ATOM     22  C   UNL     1      -0.444  10.002  20.654  0.00  0.00    +0.000 C 
ATOM     23  C   UNL     1      -0.431  11.435  21.249  0.00  0.00    +0.000 C 
ATOM     24  N   UNL     1      -1.164  12.435  20.433  0.00  0.00    +0.000 NA
ATOM     25  C   UNL     1      -0.681  12.335  19.036  0.00  0.00    +0.000 C 
ATOM     26  C   UNL     1      -0.675  10.904  18.444  0.00  0.00    +0.000 C 
BRANCH  21  27
ATOM     27  C   UNL     1       1.503  10.167  19.165  0.00  0.00    +0.000 C 
BRANCH  27  28
ATOM     28  C   UNL     1       2.074   9.735  17.820  0.00  0.00    +0.000 C 
BRANCH  28  29
ATOM     29  C   UNL     1       1.821   8.254  17.590  0.00  0.00    +0.000 C 
BRANCH  29  30
ATOM     30  C   UNL     1       2.694   7.435  18.528  0.00  0.00    +0.000 C 
BRANCH  30  31
ATOM     31  C   UNL     1       3.842   6.802  17.761  0.00  0.00    +0.000 C 
BRANCH  31  32
ATOM     32  C   UNL     1       3.652   5.295  17.675  0.00  0.00    +0.000 C 
BRANCH  32  33
ATOM     33  C   UNL     1       4.657   4.688  16.706  0.00  0.00    +0.000 C 
BRANCH  33  34
ATOM     34  C   UNL     1       5.906   5.560  16.614  0.00  0.00    +0.000 C 
BRANCH  34  35
ATOM     35  C   UNL     1       6.924   5.157  17.673  0.00  0.00    +0.000 C 
BRANCH  35  36
ATOM     36  N   UNL     1       7.885   4.220  17.105  0.00  0.00    +0.000 NA
ATOM     37  H   UNL     1       8.817   4.441  17.445  0.00  0.00    +0.000 HD
ATOM     38  H   UNL     1       7.913   4.337  16.091  0.00  0.00    +0.000 HD
ENDBRANCH  35  36
ENDBRANCH  34  35
ENDBRANCH  33  34
ENDBRANCH  32  33
ENDBRANCH  31  32
ENDBRANCH  30  31
ENDBRANCH  29  30
ENDBRANCH  28  29
ENDBRANCH  27  28
ENDBRANCH  21  27
ENDBRANCH   1  24
TORSDOF 12
ENDMDL
MODEL 3
REMARK VINA RESULT:      -6.8      1.160      1.450
REMARK  Name = 
REMARK  12 active torsions:
REMARK  status: ('A' for Active; 'I' for Inactive)
REMARK    1  A    between atoms: N_1  and  C_2
REMARK    2  A    between atoms: C_2  and  C_3
REMARK    3  A    between atoms: C_3  and  C_4
REMARK    4  A    between atoms: C_4  and  C_5
REMARK    5  A    between atoms: C_5  and  C_6
REMARK    6  A    between atoms: C_6  and  C_7
REMARK    7  A    between atoms: C_7  and  C_8
REMARK    8  A    between atoms: C_8  and  C_9
REMARK    9  A    between atoms: C_9  and  C_10
REMARK   10  A    between atoms: C_10  and  N_11
REMARK   11  A    between atoms: N_14  and  C_15
REMARK   12  A    between atoms: C_15  and  C_16
REMARK                            x       y       z     vdW  Elec       q    Type
REMARK                         _______ _______ _______ _____ _____    ______ ____
ROOT
ATOM      1  C   UNL     1      -2.054  12.555  19.568  0.00  0.00    +0.000 C 
ENDROOT
BRANCH   1   2
ATOM      2  C   UNL     1      -2.692  13.502  20.597  0.00  0.00    +0.000 C 
ATOM      3  O   UNL     1      -2.011  14.208  21.351  0.00  0.00    +0.000 OA
ATOM      4  N   UNL     1      -4.087  13.497  20.693  0.00  0.00    +0.000 N 
ATOM      5  C   UNL     1      -4.709  14.498  21.482  0.00  0.00    +0.000 A 
ATOM      6  C   UNL     1      -4.469  15.855  21.186  0.00  0.00    +0.000 A 
ATOM      7  C   UNL     1      -4.994  16.868  21.991  0.00  0.00    +0.000 A 
ATOM      8  C   UNL     1      -5.723  16.538  23.130  0.00  0.00    +0.000 A 
ATOM      9  C   UNL     1      -5.951  15.198  23.439  0.00  0.00    +0.000 A 
ATOM     10  C   UNL     1      -5.475  14.181  22.598  0.00  0.00    +0.000 A 
ATOM     11  C   UNL     1      -5.812  12.797  22.957  0.00  0.00    +0.000 C 
ATOM     12  O   UNL     1      -5.886  12.464  24.137  0.00  0.00    +0.000 OA
ATOM     13  N   UNL     1      -6.236  11.937  21.980  0.00  0.00    +0.000 N 
ATOM     14  C   UNL     1      -6.004  11.961  20.594  0.00  0.00    +0.000 A 
ATOM     15  C   UNL     1      -6.778  11.079  19.829  0.00  0.00    +0.000 A 
ATOM     16  C   UNL     1      -6.492  10.883  18.483  0.00  0.00    +0.000 A 
ATOM     17  C   UNL     1      -5.423  11.567  17.946  0.00  0.00    +0.000 A 
ATOM     18  N   UNL     1      -4.662  12.431  18.653  0.00  0.00    +0.000 NA
ATOM     19  C   UNL     1      -4.954  12.645  19.965  0.00  0.00    +0.000 A 
ATOM     20  H   UNL     1      -6.740  11.148  22.359  0.00  0.00    +0.000 HD
ENDBRANCH   1   2
BRANCH   1  24
ATOM     21  N   UNL     1       0.965  10.590  18.559  0.00  0.00    +0.000 NA
ATOM     22  C   UNL     1      -0.396  10.502  17.982  0.00  0.00    +0.000 C 
ATOM     23  C   UNL     1      -1.519  10.264  19.025  0.00  0.00    +0.000 C 
ATOM     24  N   UNL     1      -1.550  11.266  20.119  0.00  0.00    +0.000 NA
ATOM     25  C   UNL     1      -0.185  11.375  20.685  0.00  0.00    +0.000 C 
ATOM     26  C   UNL     1       0.941  11.595  19.646  0.00  0.00    +0.000 C 
BRANCH  21  27
ATOM     27  C   UNL     1       1.441   9.304  19.089  0.00  0.00    +0.000 C 
BRANCH  27  28
ATOM     28  C   UNL     1       1.900   8.359  17.985  0.00  0.00    +0.000 C 
BRANCH  28  29
ATOM     29  C   UNL     1       2.660   7.183  18.577  0.00  0.00    +0.000 C 
BRANCH  29  30
ATOM     30  C   UNL     1       3.782   6.774  17.636  0.00  0.00    +0.000 C 
BRANCH  30  31
ATOM     31  C   UNL     1       3.792   5.266  17.454  0.00  0.00    +0.000 C 
BRANCH  31  32
ATOM     32  C   UNL     1       2.429   4.683  17.796  0.00  0.00    +0.000 C 
BRANCH  32  33
ATOM     33  C   UNL     1       2.574   3.247  18.284  0.00  0.00    +0.000 C 
BRANCH  33  34
ATOM     34  C   UNL     1       2.953   3.220  19.762  0.00  0.00    +0.000 C 
BRANCH  34  35
ATOM     35  C   UNL     1       1.908   3.947  20.600  0.00  0.00    +0.000 C 
BRANCH  35  36
ATOM     36  N   UNL     1       0.713   3.122  20.725  0.00  0.00    +0.000 NA
ATOM     37  H   UNL     1      -0.006   3.638  21.224  0.00  0.00    +0.000 HD
ATOM     38  H   UNL     1       0.926   2.302  21.294  0.00  0.00    +0.000 HD
ENDBRANCH  35  36
ENDBRANCH  34  35
ENDBRANCH  33  34
ENDBRANCH  32  33
ENDBRANCH  31  32
ENDBRANCH  30  31
ENDBRANCH  29  30
ENDBRANCH  28  29
ENDBRANCH  27  28
ENDBRANCH  21  27
ENDBRANCH   1  24
TORSDOF 12
ENDMDL
MODEL 4
REMARK VINA RESULT:      -6.8      1.219      1.294
REMARK  Name = 
REMARK  12 active torsions:
REMARK  status: ('A' for Active; 'I' for Inactive)
REMARK    1  A    between atoms: N_1  and  C_2
REMARK    2  A    between atoms: C_2  and  C_3
REMARK    3  A    between atoms: C_3  and  C_4
REMARK    4  A    between atoms: C_4  and  C_5
REMARK    5  A    between atoms: C_5  and  C_6
REMARK    6  A    between atoms: C_6  and  C_7
REMARK    7  A    between atoms: C_7  and  C_8
REMARK    8  A    between atoms: C_8  and  C_9
REMARK    9  A    between atoms: C_9  and  C_10
REMARK   10  A    between atoms: C_10  and  N_11
REMARK   11  A    between atoms: N_14  and  C_15
REMARK   12  A    between atoms: C_15  and  C_16
REMARK                            x       y       z     vdW  Elec       q    Type
REMARK                         _______ _______ _______ _____ _____    ______ ____
ROOT
ATOM      1  C   UNL     1      -1.493  11.555  21.306  0.00  0.00    +0.000 C 
ENDROOT
BRANCH   1   2
ATOM      2  C   UNL     1      -2.119  12.675  22.153  0.00  0.00    +0.000 C 
ATOM      3  O   UNL     1      -1.559  13.130  23.158  0.00  0.00    +0.000 OA
ATOM      4  N   UNL     1      -3.387  13.129  21.778  0.00  0.00    +0.000 N 
ATOM      5  C   UNL     1      -3.899  14.291  22.410  0.00  0.00    +0.000 A 
ATOM      6  C   UNL     1      -3.160  15.489  22.350  0.00  0.00    +0.000 A 
ATOM      7  C   UNL     1      -3.589  16.630  23.031  0.00  0.00    +0.000 A 
ATOM      8  C   UNL     1      -4.732  16.575  23.823  0.00  0.00    +0.000 A 
ATOM      9  C   UNL     1      -5.459  15.388  23.902  0.00  0.00    +0.000 A 
ATOM     10  C   UNL     1      -5.063  14.258  23.170  0.00  0.00    +0.000 A 
ATOM     11  C   UNL     1      -5.918  13.067  23.256  0.00  0.00    +0.000 C 
ATOM     12  O   UNL     1      -6.498  12.795  24.303  0.00  0.00    +0.000 OA
ATOM     13  N   UNL     1      -6.222  12.379  22.112  0.00  0.00    +0.000 N 
ATOM     14  C   UNL     1      -5.527  12.304  20.892  0.00  0.00    +0.000 A 
ATOM     15  C   UNL     1      -6.221  11.713  19.829  0.00  0.00    +0.000 A 
ATOM     16  C   UNL     1      -5.562  11.413  18.642  0.00  0.00    +0.000 A 
ATOM     17  C   UNL     1      -4.217  11.702  18.563  0.00  0.00    +0.000 A 
ATOM     18  N   UNL     1      -3.519  12.279  19.566  0.00  0.00    +0.000 NA
ATOM     19  C   UNL     1      -4.167  12.597  20.721  0.00  0.00    +0.000 A 
ATOM     20  H   UNL     1      -7.046  11.804  22.220  0.00  0.00    +0.000 HD
ENDBRANCH   1   2
BRANCH   1  24
ATOM     21  N   UNL     1       0.632   9.524  18.993  0.00  0.00    +0.000 NA
ATOM     22  C   UNL     1       0.481   9.351  20.455  0.00  0.00    +0.000 C 
ATOM     23  C   UNL     1       0.740  10.637  21.282  0.00  0.00    +0.000 C 
ATOM     24  N   UNL     1      -0.089  11.797  20.872  0.00  0.00    +0.000 NA
ATOM     25  C   UNL     1       0.041  11.962  19.405  0.00  0.00    +0.000 C 
ATOM     26  C   UNL     1      -0.200  10.677  18.576  0.00  0.00    +0.000 C 
BRANCH  21  27
ATOM     27  C   UNL     1       2.027   9.755  18.589  0.00  0.00    +0.000 C 
BRANCH  27  28
ATOM     28  C   UNL     1       2.562   8.639  17.699  0.00  0.00    +0.000 C 
BRANCH  28  29
ATOM     29  C   UNL     1       2.080   7.287  18.200  0.00  0.00    +0.000 C 
BRANCH  29  30
ATOM     30  C   UNL     1       3.276   6.391  18.483  0.00  0.00    +0.000 C 
BRANCH  30  31
ATOM     31  C   UNL     1       3.205   5.134  17.633  0.00  0.00    +0.000 C 
BRANCH  31  32
ATOM     32  C   UNL     1       1.850   4.462  17.798  0.00  0.00    +0.000 C 
BRANCH  32  33
ATOM     33  C   UNL     1       2.023   2.961  17.993  0.00  0.00    +0.000 C 
BRANCH  33  34
ATOM     34  C   UNL     1       2.664   2.668  19.346  0.00  0.00    +0.000 C 
BRANCH  34  35
ATOM     35  C   UNL     1       3.977   1.914  19.167  0.00  0.00    +0.000 C 
BRANCH  35  36
ATOM     36  N   UNL     1       5.072   2.685  19.743  0.00  0.00    +0.000 NA
ATOM     37  H   UNL     1       5.844   2.063  19.966  0.00  0.00    +0.000 HD
ATOM     38  H   UNL     1       4.769   3.096  20.626  0.00  0.00    +0.000 HD
ENDBRANCH  35  36
ENDBRANCH  34  35
ENDBRANCH  33  34
ENDBRANCH  32  33
ENDBRANCH  31  32
ENDBRANCH  30  31
ENDBRANCH  29  30
ENDBRANCH  28  29
ENDBRANCH  27  28
ENDBRANCH  21  27
ENDBRANCH   1  24
TORSDOF 12
ENDMDL
MODEL 5
REMARK VINA RESULT:      -6.7      1.733      2.042
REMARK  Name = 
REMARK  12 active torsions:
REMARK  status: ('A' for Active; 'I' for Inactive)
REMARK    1  A    between atoms: N_1  and  C_2
REMARK    2  A    between atoms: C_2  and  C_3
REMARK    3  A    between atoms: C_3  and  C_4
REMARK    4  A    between atoms: C_4  and  C_5
REMARK    5  A    between atoms: C_5  and  C_6
REMARK    6  A    between atoms: C_6  and  C_7
REMARK    7  A    between atoms: C_7  and  C_8
REMARK    8  A    between atoms: C_8  and  C_9
REMARK    9  A    between atoms: C_9  and  C_10
REMARK   10  A    between atoms: C_10  and  N_11
REMARK   11  A    between atoms: N_14  and  C_15
REMARK   12  A    between atoms: C_15  and  C_16
REMARK                            x       y       z     vdW  Elec       q    Type
REMARK                         _______ _______ _______ _____ _____    ______ ____
ROOT
ATOM      1  C   UNL     1      -1.119  11.293  21.379  0.00  0.00    +0.000 C 
ENDROOT
BRANCH   1   2
ATOM      2  C   UNL     1      -1.644  12.429  22.271  0.00  0.00    +0.000 C 
ATOM      3  O   UNL     1      -1.061  12.777  23.305  0.00  0.00    +0.000 OA
ATOM      4  N   UNL     1      -2.854  13.026  21.901  0.00  0.00    +0.000 N 
ATOM      5  C   UNL     1      -3.258  14.203  22.582  0.00  0.00    +0.000 A 
ATOM      6  C   UNL     1      -2.401  15.321  22.590  0.00  0.00    +0.000 A 
ATOM      7  C   UNL     1      -2.725  16.467  23.321  0.00  0.00    +0.000 A 
ATOM      8  C   UNL     1      -3.883  16.490  24.093  0.00  0.00    +0.000 A 
ATOM      9  C   UNL     1      -4.727  15.382  24.104  0.00  0.00    +0.000 A 
ATOM     10  C   UNL     1      -4.434  14.253  23.323  0.00  0.00    +0.000 A 
ATOM     11  C   UNL     1      -5.405  13.152  23.339  0.00  0.00    +0.000 C 
ATOM     12  O   UNL     1      -6.029  12.891  24.363  0.00  0.00    +0.000 OA
ATOM     13  N   UNL     1      -5.755  12.553  22.158  0.00  0.00    +0.000 N 
ATOM     14  C   UNL     1      -5.049  12.465  20.947  0.00  0.00    +0.000 A 
ATOM     15  C   UNL     1      -5.779  11.998  19.846  0.00  0.00    +0.000 A 
ATOM     16  C   UNL     1      -5.130  11.690  18.655  0.00  0.00    +0.000 A 
ATOM     17  C   UNL     1      -3.762  11.844  18.610  0.00  0.00    +0.000 A 
ATOM     18  N   UNL     1      -3.029  12.300  19.649  0.00  0.00    +0.000 NA
ATOM     19  C   UNL     1      -3.663  12.627  20.809  0.00  0.00    +0.000 A 
ATOM     20  H   UNL     1      -6.635  12.060  22.227  0.00  0.00    +0.000 HD
ENDBRANCH   1   2
BRANCH   1  24
ATOM     21  N   UNL     1       0.798   9.183  18.957  0.00  0.00    +0.000 NA
ATOM     22  C   UNL     1       0.688   8.992  20.421  0.00  0.00    +0.000 C 
ATOM     23  C   UNL     1       1.053  10.245  21.259  0.00  0.00    +0.000 C 
ATOM     24  N   UNL     1       0.281  11.459  20.899  0.00  0.00    +0.000 NA
ATOM     25  C   UNL     1       0.368  11.644  19.431  0.00  0.00    +0.000 C 
ATOM     26  C   UNL     1       0.022  10.391  18.590  0.00  0.00    +0.000 C 
BRANCH  21  27
ATOM     27  C   UNL     1       2.189   9.338  18.507  0.00  0.00    +0.000 C 
BRANCH  27  28
ATOM     28  C   UNL     1       2.603   8.247  17.526  0.00  0.00    +0.000 C 
BRANCH  28  29
ATOM     29  C   UNL     1       3.280   7.103  18.264  0.00  0.00    +0.000 C 
BRANCH  29  30
ATOM     30  C   UNL     1       2.357   5.894  18.288  0.00  0.00    +0.000 C 
BRANCH  30  31
ATOM     31  C   UNL     1       1.899   5.609  19.708  0.00  0.00    +0.000 C 
BRANCH  31  32
ATOM     32  C   UNL     1       2.923   4.747  20.429  0.00  0.00    +0.000 C 
BRANCH  32  33
ATOM     33  C   UNL     1       2.552   3.274  20.315  0.00  0.00    +0.000 C 
BRANCH  33  34
ATOM     34  C   UNL     1       1.052   3.118  20.080  0.00  0.00    +0.000 C 
BRANCH  34  35
ATOM     35  C   UNL     1       0.788   2.311  18.814  0.00  0.00    +0.000 C 
BRANCH  35  36
ATOM     36  N   UNL     1       2.043   1.788  18.289  0.00  0.00    +0.000 NA
ATOM     37  H   UNL     1       2.566   2.540  17.849  0.00  0.00    +0.000 HD
ATOM     38  H   UNL     1       1.846   1.107  17.556  0.00  0.00    +0.000 HD
ENDBRANCH  35  36
ENDBRANCH  34  35
ENDBRANCH  33  34
ENDBRANCH  32  33
ENDBRANCH  31  32
ENDBRANCH  30  31
ENDBRANCH  29  30
ENDBRANCH  28  29
ENDBRANCH  27  28
ENDBRANCH  21  27
ENDBRANCH   1  24
TORSDOF 12
ENDMDL
MODEL 6
REMARK VINA RESULT:      -6.7      2.031      2.633
REMARK  Name = 
REMARK  12 active torsions:
REMARK  status: ('A' for Active; 'I' for Inactive)
REMARK    1  A    between atoms: N_1  and  C_2
REMARK    2  A    between atoms: C_2  and  C_3
REMARK    3  A    between atoms: C_3  and  C_4
REMARK    4  A    between atoms: C_4  and  C_5
REMARK    5  A    between atoms: C_5  and  C_6
REMARK    6  A    between atoms: C_6  and  C_7
REMARK    7  A    between atoms: C_7  and  C_8
REMARK    8  A    between atoms: C_8  and  C_9
REMARK    9  A    between atoms: C_9  and  C_10
REMARK   10  A    between atoms: C_10  and  N_11
REMARK   11  A    between atoms: N_14  and  C_15
REMARK   12  A    between atoms: C_15  and  C_16
REMARK                            x       y       z     vdW  Elec       q    Type
REMARK                         _______ _______ _______ _____ _____    ______ ____
ROOT
ATOM      1  C   UNL     1      -0.730  11.375  21.701  0.00  0.00    +0.000 C 
ENDROOT
BRANCH   1   2
ATOM      2  C   UNL     1      -1.003  12.767  22.294  0.00  0.00    +0.000 C 
ATOM      3  O   UNL     1      -0.351  13.217  23.243  0.00  0.00    +0.000 OA
ATOM      4  N   UNL     1      -2.068  13.496  21.753  0.00  0.00    +0.000 N 
ATOM      5  C   UNL     1      -2.215  14.853  22.136  0.00  0.00    +0.000 A 
ATOM      6  C   UNL     1      -1.147  15.748  21.924  0.00  0.00    +0.000 A 
ATOM      7  C   UNL     1      -1.223  17.071  22.365  0.00  0.00    +0.000 A 
ATOM      8  C   UNL     1      -2.343  17.503  23.068  0.00  0.00    +0.000 A 
ATOM      9  C   UNL     1      -3.396  16.620  23.297  0.00  0.00    +0.000 A 
ATOM     10  C   UNL     1      -3.348  15.308  22.802  0.00  0.00    +0.000 A 
ATOM     11  C   UNL     1      -4.525  14.458  23.029  0.00  0.00    +0.000 C 
ATOM     12  O   UNL     1      -5.179  14.570  24.062  0.00  0.00    +0.000 OA
ATOM     13  N   UNL     1      -5.002  13.689  22.002  0.00  0.00    +0.000 N 
ATOM     14  C   UNL     1      -4.340  13.187  20.868  0.00  0.00    +0.000 A 
ATOM     15  C   UNL     1      -5.161  12.638  19.874  0.00  0.00    +0.000 A 
ATOM     16  C   UNL     1      -4.601  11.941  18.809  0.00  0.00    +0.000 A 
ATOM     17  C   UNL     1      -3.231  11.801  18.781  0.00  0.00    +0.000 A 
ATOM     18  N   UNL     1      -2.410  12.325  19.718  0.00  0.00    +0.000 NA
ATOM     19  C   UNL     1      -2.952  13.029  20.749  0.00  0.00    +0.000 A 
ATOM     20  H   UNL     1      -5.963  13.413  22.147  0.00  0.00    +0.000 HD
ENDBRANCH   1   2
BRANCH   1  24
ATOM     21  N   UNL     1       0.716   9.572  18.761  0.00  0.00    +0.000 NA
ATOM     22  C   UNL     1       0.249   8.979  20.034  0.00  0.00    +0.000 C 
ATOM     23  C   UNL     1       0.874   9.616  21.303  0.00  0.00    +0.000 C 
ATOM     24  N   UNL     1       0.697  11.086  21.392  0.00  0.00    +0.000 NA
ATOM     25  C   UNL     1       1.142  11.683  20.111  0.00  0.00    +0.000 C 
ATOM     26  C   UNL     1       0.535  11.040  18.841  0.00  0.00    +0.000 C 
BRANCH  21  27
ATOM     27  C   UNL     1       2.125   9.267  18.475  0.00  0.00    +0.000 C 
BRANCH  27  28
ATOM     28  C   UNL     1       2.284   8.001  17.641  0.00  0.00    +0.000 C 
BRANCH  28  29
ATOM     29  C   UNL     1       2.933   6.902  18.467  0.00  0.00    +0.000 C 
BRANCH  29  30
ATOM     30  C   UNL     1       3.536   5.856  17.541  0.00  0.00    +0.000 C 
BRANCH  30  31
ATOM     31  C   UNL     1       3.157   4.461  18.006  0.00  0.00    +0.000 C 
BRANCH  31  32
ATOM     32  C   UNL     1       1.650   4.267  17.922  0.00  0.00    +0.000 C 
BRANCH  32  33
ATOM     33  C   UNL     1       1.166   3.374  19.057  0.00  0.00    +0.000 C 
BRANCH  33  34
ATOM     34  C   UNL     1       1.221   4.120  20.386  0.00  0.00    +0.000 C 
BRANCH  34  35
ATOM     35  C   UNL     1       2.138   3.402  21.369  0.00  0.00    +0.000 C 
BRANCH  35  36
ATOM     36  N   UNL     1       1.357   2.494  22.200  0.00  0.00    +0.000 NA
ATOM     37  H   UNL     1       1.720   2.506  23.150  0.00  0.00    +0.000 HD
ATOM     38  H   UNL     1       1.474   1.539  21.860  0.00  0.00    +0.000 HD
ENDBRANCH  35  36
ENDBRANCH  34  35
ENDBRANCH  33  34
ENDBRANCH  32  33
ENDBRANCH  31  32
ENDBRANCH  30  31
ENDBRANCH  29  30
ENDBRANCH  28  29
ENDBRANCH  27  28
ENDBRANCH  21  27
ENDBRANCH   1  24
TORSDOF 12
ENDMDL
MODEL 7
REMARK VINA RESULT:      -6.6      1.894      2.125
REMARK  Name = 
REMARK  12 active torsions:
REMARK  status: ('A' for Active; 'I' for Inactive)
REMARK    1  A    between atoms: N_1  and  C_2
REMARK    2  A    between atoms: C_2  and  C_3
REMARK    3  A    between atoms: C_3  and  C_4
REMARK    4  A    between atoms: C_4  and  C_5
REMARK    5  A    between atoms: C_5  and  C_6
REMARK    6  A    between atoms: C_6  and  C_7
REMARK    7  A    between atoms: C_7  and  C_8
REMARK    8  A    between atoms: C_8  and  C_9
REMARK    9  A    between atoms: C_9  and  C_10
REMARK   10  A    between atoms: C_10  and  N_11
REMARK   11  A    between atoms: N_14  and  C_15
REMARK   12  A    between atoms: C_15  and  C_16
REMARK                            x       y       z     vdW  Elec       q    Type
REMARK                         _______ _______ _______ _____ _____    ______ ____
ROOT
ATOM      1  C   UNL     1      -1.896  12.105  19.705  0.00  0.00    +0.000 C 
ENDROOT
BRANCH   1   2
ATOM      2  C   UNL     1      -2.436  13.143  20.701  0.00  0.00    +0.000 C 
ATOM      3  O   UNL     1      -1.690  13.788  21.448  0.00  0.00    +0.000 OA
ATOM      4  N   UNL     1      -3.824  13.295  20.779  0.00  0.00    +0.000 N 
ATOM      5  C   UNL     1      -4.340  14.378  21.535  0.00  0.00    +0.000 A 
ATOM      6  C   UNL     1      -3.948  15.692  21.210  0.00  0.00    +0.000 A 
ATOM      7  C   UNL     1      -4.366  16.777  21.984  0.00  0.00    +0.000 A 
ATOM      8  C   UNL     1      -5.140  16.559  23.120  0.00  0.00    +0.000 A 
ATOM      9  C   UNL     1      -5.518  15.261  23.457  0.00  0.00    +0.000 A 
ATOM     10  C   UNL     1      -5.149  14.176  22.647  0.00  0.00    +0.000 A 
ATOM     11  C   UNL     1      -5.641  12.847  23.035  0.00  0.00    +0.000 C 
ATOM     12  O   UNL     1      -5.765  12.555  24.221  0.00  0.00    +0.000 OA
ATOM     13  N   UNL     1      -6.148  12.015  22.073  0.00  0.00    +0.000 N 
ATOM     14  C   UNL     1      -5.898  11.978  20.690  0.00  0.00    +0.000 A 
ATOM     15  C   UNL     1      -6.757  11.168  19.936  0.00  0.00    +0.000 A 
ATOM     16  C   UNL     1      -6.480  10.908  18.599  0.00  0.00    +0.000 A 
ATOM     17  C   UNL     1      -5.336  11.456  18.061  0.00  0.00    +0.000 A 
ATOM     18  N   UNL     1      -4.491  12.248  18.757  0.00  0.00    +0.000 NA
ATOM     19  C   UNL     1      -4.773  12.526  20.059  0.00  0.00    +0.000 A 
ATOM     20  H   UNL     1      -6.740  11.297  22.464  0.00  0.00    +0.000 HD
ENDBRANCH   1   2
BRANCH   1  24
ATOM     21  N   UNL     1       1.080  10.507  18.099  0.00  0.00    +0.000 NA
ATOM     22  C   UNL     1      -0.323  10.037  18.054  0.00  0.00    +0.000 C 
ATOM     23  C   UNL     1      -0.991   9.882  19.445  0.00  0.00    +0.000 C 
ATOM     24  N   UNL     1      -0.948  11.110  20.277  0.00  0.00    +0.000 NA
ATOM     25  C   UNL     1       0.451  11.598  20.308  0.00  0.00    +0.000 C 
ATOM     26  C   UNL     1       1.129  11.738  18.923  0.00  0.00    +0.000 C 
BRANCH  21  27
ATOM     27  C   UNL     1       1.997   9.504  18.661  0.00  0.00    +0.000 C 
BRANCH  27  28
ATOM     28  C   UNL     1       2.256   8.354  17.695  0.00  0.00    +0.000 C 
BRANCH  28  29
ATOM     29  C   UNL     1       2.398   7.046  18.457  0.00  0.00    +0.000 C 
BRANCH  29  30
ATOM     30  C   UNL     1       3.728   6.394  18.108  0.00  0.00    +0.000 C 
BRANCH  30  31
ATOM     31  C   UNL     1       3.542   4.902  17.893  0.00  0.00    +0.000 C 
BRANCH  31  32
ATOM     32  C   UNL     1       4.823   4.283  17.354  0.00  0.00    +0.000 C 
BRANCH  32  33
ATOM     33  C   UNL     1       6.025   4.774  18.150  0.00  0.00    +0.000 C 
BRANCH  33  34
ATOM     34  C   UNL     1       7.281   4.760  17.284  0.00  0.00    +0.000 C 
BRANCH  34  35
ATOM     35  C   UNL     1       6.941   4.383  15.847  0.00  0.00    +0.000 C 
BRANCH  35  36
ATOM     36  N   UNL     1       7.479   5.382  14.933  0.00  0.00    +0.000 NA
ATOM     37  H   UNL     1       7.552   4.984  14.000  0.00  0.00    +0.000 HD
ATOM     38  H   UNL     1       8.429   5.625  15.217  0.00  0.00    +0.000 HD
ENDBRANCH  35  36
ENDBRANCH  34  35
ENDBRANCH  33  34
ENDBRANCH  32  33
ENDBRANCH  31  32
ENDBRANCH  30  31
ENDBRANCH  29  30
ENDBRANCH  28  29
ENDBRANCH  27  28
ENDBRANCH  21  27
ENDBRANCH   1  24
TORSDOF 12
ENDMDL
MODEL 8
REMARK VINA RESULT:      -6.6      0.974      1.122
REMARK  Name = 
REMARK  12 active torsions:
REMARK  status: ('A' for Active; 'I' for Inactive)
REMARK    1  A    between atoms: N_1  and  C_2
REMARK    2  A    between atoms: C_2  and  C_3
REMARK    3  A    between atoms: C_3  and  C_4
REMARK    4  A    between atoms: C_4  and  C_5
REMARK    5  A    between atoms: C_5  and  C_6
REMARK    6  A    between atoms: C_6  and  C_7
REMARK    7  A    between atoms: C_7  and  C_8
REMARK    8  A    between atoms: C_8  and  C_9
REMARK    9  A    between atoms: C_9  and  C_10
REMARK   10  A    between atoms: C_10  and  N_11
REMARK   11  A    between atoms: N_14  and  C_15
REMARK   12  A    between atoms: C_15  and  C_16
REMARK                            x       y       z     vdW  Elec       q    Type
REMARK                         _______ _______ _______ _____ _____    ______ ____
ROOT
ATOM      1  C   UNL     1      -2.913  12.318  20.232  0.00  0.00    +0.000 C 
ENDROOT
BRANCH   1   2
ATOM      2  C   UNL     1      -3.690  13.347  21.068  0.00  0.00    +0.000 C 
ATOM      3  O   UNL     1      -3.118  14.179  21.783  0.00  0.00    +0.000 OA
ATOM      4  N   UNL     1      -5.086  13.275  21.038  0.00  0.00    +0.000 N 
ATOM      5  C   UNL     1      -5.827  14.329  21.632  0.00  0.00    +0.000 A 
ATOM      6  C   UNL     1      -5.621  15.650  21.186  0.00  0.00    +0.000 A 
ATOM      7  C   UNL     1      -6.267  16.723  21.804  0.00  0.00    +0.000 A 
ATOM      8  C   UNL     1      -7.087  16.496  22.905  0.00  0.00    +0.000 A 
ATOM      9  C   UNL     1      -7.282  15.194  23.362  0.00  0.00    +0.000 A 
ATOM     10  C   UNL     1      -6.682  14.109  22.706  0.00  0.00    +0.000 A 
ATOM     11  C   UNL     1      -6.988  12.764  23.209  0.00  0.00    +0.000 C 
ATOM     12  O   UNL     1      -7.161  12.576  24.410  0.00  0.00    +0.000 OA
ATOM     13  N   UNL     1      -7.277  11.766  22.317  0.00  0.00    +0.000 N 
ATOM     14  C   UNL     1      -6.913  11.631  20.966  0.00  0.00    +0.000 A 
ATOM     15  C   UNL     1      -7.568  10.617  20.255  0.00  0.00    +0.000 A 
ATOM     16  C   UNL     1      -7.145  10.272  18.976  0.00  0.00    +0.000 A 
ATOM     17  C   UNL     1      -6.062  10.945  18.454  0.00  0.00    +0.000 A 
ATOM     18  N   UNL     1      -5.412  11.932  19.109  0.00  0.00    +0.000 NA
ATOM     19  C   UNL     1      -5.840  12.291  20.351  0.00  0.00    +0.000 A 
ATOM     20  H   UNL     1      -7.779  11.003  22.748  0.00  0.00    +0.000 HD
ENDBRANCH   1   2
BRANCH   1  24
ATOM     21  N   UNL     1      -0.292  10.193  18.617  0.00  0.00    +0.000 NA
ATOM     22  C   UNL     1      -0.792  10.098  20.008  0.00  0.00    +0.000 C 
ATOM     23  C   UNL     1      -0.740  11.432  20.799  0.00  0.00    +0.000 C 
ATOM     24  N   UNL     1      -1.447  12.556  20.135  0.00  0.00    +0.000 NA
ATOM     25  C   UNL     1      -0.967  12.641  18.736  0.00  0.00    +0.000 C 
ATOM     26  C   UNL     1      -1.000  11.309  17.948  0.00  0.00    +0.000 C 
BRANCH  21  27
ATOM     27  C   UNL     1       1.159  10.421  18.549  0.00  0.00    +0.000 C 
BRANCH  27  28
ATOM     28  C   UNL     1       1.955   9.222  19.050  0.00  0.00    +0.000 C 
BRANCH  28  29
ATOM     29  C   UNL     1       2.437   8.381  17.880  0.00  0.00    +0.000 C 
BRANCH  29  30
ATOM     30  C   UNL     1       2.272   6.905  18.209  0.00  0.00    +0.000 C 
BRANCH  30  31
ATOM     31  C   UNL     1       3.627   6.265  18.454  0.00  0.00    +0.000 C 
BRANCH  31  32
ATOM     32  C   UNL     1       4.203   5.731  17.151  0.00  0.00    +0.000 C 
BRANCH  32  33
ATOM     33  C   UNL     1       4.657   4.288  17.324  0.00  0.00    +0.000 C 
BRANCH  33  34
ATOM     34  C   UNL     1       4.730   3.923  18.804  0.00  0.00    +0.000 C 
BRANCH  34  35
ATOM     35  C   UNL     1       4.229   2.502  19.032  0.00  0.00    +0.000 C 
BRANCH  35  36
ATOM     36  N   UNL     1       4.962   1.891  20.134  0.00  0.00    +0.000 NA
ATOM     37  H   UNL     1       4.670   2.313  21.012  0.00  0.00    +0.000 HD
ATOM     38  H   UNL     1       5.957   2.095  20.034  0.00  0.00    +0.000 HD
ENDBRANCH  35  36
ENDBRANCH  34  35
ENDBRANCH  33  34
ENDBRANCH  32  33
ENDBRANCH  31  32
ENDBRANCH  30  31
ENDBRANCH  29  30
ENDBRANCH  28  29
ENDBRANCH  27  28
ENDBRANCH  21  27
ENDBRANCH   1  24
TORSDOF 12
ENDMDL
MODEL 9
REMARK VINA RESULT:      -6.6      1.224      1.553
REMARK  Name = 
REMARK  12 active torsions:
REMARK  status: ('A' for Active; 'I' for Inactive)
REMARK    1  A    between atoms: N_1  and  C_2
REMARK    2  A    between atoms: C_2  and  C_3
REMARK    3  A    between atoms: C_3  and  C_4
REMARK    4  A    between atoms: C_4  and  C_5
REMARK    5  A    between atoms: C_5  and  C_6
REMARK    6  A    between atoms: C_6  and  C_7
REMARK    7  A    between atoms: C_7  and  C_8
REMARK    8  A    between atoms: C_8  and  C_9
REMARK    9  A    between atoms: C_9  and  C_10
REMARK   10  A    between atoms: C_10  and  N_11
REMARK   11  A    between atoms: N_14  and  C_15
REMARK   12  A    between atoms: C_15  and  C_16
REMARK                            x       y       z     vdW  Elec       q    Type
REMARK                         _______ _______ _______ _____ _____    ______ ____
ROOT
ATOM      1  C   UNL     1      -2.517  12.465  20.153  0.00  0.00    +0.000 C 
ENDROOT
BRANCH   1   2
ATOM      2  C   UNL     1      -3.251  13.248  21.252  0.00  0.00    +0.000 C 
ATOM      3  O   UNL     1      -2.652  13.769  22.200  0.00  0.00    +0.000 OA
ATOM      4  N   UNL     1      -4.647  13.305  21.176  0.00  0.00    +0.000 N 
ATOM      5  C   UNL     1      -5.333  14.183  22.053  0.00  0.00    +0.000 A 
ATOM      6  C   UNL     1      -5.011  15.555  22.043  0.00  0.00    +0.000 A 
ATOM      7  C   UNL     1      -5.603  16.437  22.950  0.00  0.00    +0.000 A 
ATOM      8  C   UNL     1      -6.483  15.951  23.912  0.00  0.00    +0.000 A 
ATOM      9  C   UNL     1      -6.794  14.593  23.940  0.00  0.00    +0.000 A 
ATOM     10  C   UNL     1      -6.247  13.716  22.990  0.00  0.00    +0.000 A 
ATOM     11  C   UNL     1      -6.673  12.311  23.047  0.00  0.00    +0.000 C 
ATOM     12  O   UNL     1      -6.911  11.779  24.127  0.00  0.00    +0.000 OA
ATOM     13  N   UNL     1      -6.995  11.664  21.884  0.00  0.00    +0.000 N 
ATOM     14  C   UNL     1      -6.584  11.920  20.565  0.00  0.00    +0.000 A 
ATOM     15  C   UNL     1      -7.281  11.233  19.563  0.00  0.00    +0.000 A 
ATOM     16  C   UNL     1      -6.830  11.264  18.248  0.00  0.00    +0.000 A 
ATOM     17  C   UNL     1      -5.679  11.972  17.980  0.00  0.00    +0.000 A 
ATOM     18  N   UNL     1      -4.987  12.652  18.920  0.00  0.00    +0.000 NA
ATOM     19  C   UNL     1      -5.440  12.646  20.204  0.00  0.00    +0.000 A 
ATOM     20  H   UNL     1      -7.570  10.850  22.048  0.00  0.00    +0.000 HD
ENDBRANCH   1   2
BRANCH   1  24
ATOM     21  N   UNL     1       0.341  11.145  18.132  0.00  0.00    +0.000 NA
ATOM     22  C   UNL     1      -0.948  10.471  18.409  0.00  0.00    +0.000 C 
ATOM     23  C   UNL     1      -1.314  10.385  19.914  0.00  0.00    +0.000 C 
ATOM     24  N   UNL     1      -1.326  11.696  20.609  0.00  0.00    +0.000 NA
ATOM     25  C   UNL     1      -0.048  12.386  20.317  0.00  0.00    +0.000 C 
ATOM     26  C   UNL     1       0.331  12.458  18.817  0.00  0.00    +0.000 C 
BRANCH  21  27
ATOM     27  C   UNL     1       1.500  10.363  18.585  0.00  0.00    +0.000 C 
BRANCH  27  28
ATOM     28  C   UNL     1       1.620   9.032  17.852  0.00  0.00    +0.000 C 
BRANCH  28  29
ATOM     29  C   UNL     1       2.697   8.171  18.494  0.00  0.00    +0.000 C 
BRANCH  29  30
ATOM     30  C   UNL     1       3.400   7.352  17.423  0.00  0.00    +0.000 C 
BRANCH  30  31
ATOM     31  C   UNL     1       3.646   5.937  17.919  0.00  0.00    +0.000 C 
BRANCH  31  32
ATOM     32  C   UNL     1       3.036   5.749  19.299  0.00  0.00    +0.000 C 
BRANCH  32  33
ATOM     33  C   UNL     1       2.473   4.341  19.443  0.00  0.00    +0.000 C 
BRANCH  33  34
ATOM     34  C   UNL     1       1.528   4.261  20.638  0.00  0.00    +0.000 C 
BRANCH  34  35
ATOM     35  C   UNL     1       1.160   2.813  20.938  0.00  0.00    +0.000 C 
BRANCH  35  36
ATOM     36  N   UNL     1       1.744   2.409  22.211  0.00  0.00    +0.000 NA
ATOM     37  H   UNL     1       1.286   1.563  22.541  0.00  0.00    +0.000 HD
ATOM     38  H   UNL     1       1.559   3.127  22.912  0.00  0.00    +0.000 HD
ENDBRANCH  35  36
ENDBRANCH  34  35
ENDBRANCH  33  34
ENDBRANCH  32  33
ENDBRANCH  31  32
ENDBRANCH  30  31
ENDBRANCH  29  30
ENDBRANCH  28  29
ENDBRANCH  27  28
ENDBRANCH  21  27
ENDBRANCH   1  24
TORSDOF 12
ENDMDL
