MODEL 1
REMARK VINA RESULT:      -8.8      0.000      0.000
REMARK  Name = 
REMARK  10 active torsions:
REMARK  status: ('A' for Active; 'I' for Inactive)
REMARK    1  A    between atoms: C_1  and  C_2
REMARK    2  A    between atoms: C_2  and  C_3
REMARK    3  A    between atoms: C_2  and  C_4
REMARK    4  A    between atoms: C_4  and  C_5
REMARK    5  A    between atoms: C_5  and  N_6
REMARK    6  A    between atoms: N_6  and  C_7
REMARK    7  A    between atoms: C_10  and  N_11
REMARK    8  A    between atoms: C_13  and  C_14
REMARK    9  A    between atoms: C_17  and  O_18
REMARK   10  A    between atoms: O_18  and  C_19
REMARK                            x       y       z     vdW  Elec       q    Type
REMARK                         _______ _______ _______ _____ _____    ______ ____
ROOT
ATOM      1  N   UNL     1       2.408   6.594  19.628  0.00  0.00    +0.000 N 
ATOM      2  C   UNL     1       3.192   6.702  18.508  0.00  0.00    +0.000 A 
ATOM      3  C   UNL     1       3.789   5.479  18.269  0.00  0.00    +0.000 A 
ATOM      4  C   UNL     1       3.389   4.600  19.327  0.00  0.00    +0.000 A 
ATOM      5  C   UNL     1       3.608   3.255  19.699  0.00  0.00    +0.000 A 
ATOM      6  N   UNL     1       4.426   2.371  19.011  0.00  0.00    +0.000 N 
ATOM      7  N   UNL     1       3.000   2.770  20.794  0.00  0.00    +0.000 NA
ATOM      8  C   UNL     1       2.204   3.595  21.505  0.00  0.00    +0.000 A 
ATOM      9  N   UNL     1       1.926   4.881  21.262  0.00  0.00    +0.000 NA
ATOM     10  C   UNL     1       2.541   5.332  20.156  0.00  0.00    +0.000 A 
ATOM     11  H   UNL     1       5.212   2.804  18.544  0.00  0.00    +0.000 HD
ATOM     12  H   UNL     1       4.637   1.560  19.581  0.00  0.00    +0.000 HD
ENDROOT
BRANCH   1  16
ATOM     13  C   UNL     1       0.719  10.326  21.075  0.00  0.00    +0.000 C 
ATOM     14  C   UNL     1       0.725   9.085  21.989  0.00  0.00    +0.000 C 
ATOM     15  C   UNL     1       1.735   8.043  21.522  0.00  0.00    +0.000 C 
ATOM     16  C   UNL     1       1.491   7.643  20.064  0.00  0.00    +0.000 C 
ATOM     17  C   UNL     1       1.471   8.861  19.135  0.00  0.00    +0.000 C 
ATOM     18  C   UNL     1       0.463   9.910  19.617  0.00  0.00    +0.000 C 
BRANCH  13  19
ATOM     19  N   UNL     1      -0.309  11.311  21.463  0.00  0.00    +0.000 NA
ATOM     20  H   UNL     1       0.119  12.238  21.530  0.00  0.00    +0.000 HD
BRANCH  19  21
ATOM     21  C   UNL     1      -0.925  10.977  22.747  0.00  0.00    +0.000 C 
BRANCH  21  22
ATOM     22  C   UNL     1      -2.096  11.901  23.107  0.00  0.00    +0.000 C 
BRANCH  22  24
ATOM     23  C   UNL     1      -3.060  13.959  22.000  0.00  0.00    +0.000 C 
ATOM     24  C   UNL     1      -1.821  13.356  22.662  0.00  0.00    +0.000 C 
ATOM     25  C   UNL     1      -1.372  14.255  23.820  0.00  0.00    +0.000 C 
ENDBRANCH  22  24
ENDBRANCH  21  22
ENDBRANCH  19  21
ENDBRANCH  13  19
ENDBRANCH   1  16
BRANCH   3  26
ATOM     26  C   UNL     1       4.590   5.248  17.076  0.00  0.00    +0.000 A 
ATOM     27  C   UNL     1       4.973   6.312  16.248  0.00  0.00    +0.000 A 
ATOM     28  C   UNL     1       5.708   6.078  15.085  0.00  0.00    +0.000 A 
ATOM     29  C   UNL     1       6.097   4.780  14.760  0.00  0.00    +0.000 A 
ATOM     30  C   UNL     1       5.705   3.713  15.564  0.00  0.00    +0.000 A 
ATOM     31  C   UNL     1       4.950   3.947  16.710  0.00  0.00    +0.000 A 
BRANCH  29  32
ATOM     32  O   UNL     1       6.807   4.632  13.591  0.00  0.00    +0.000 OA
BRANCH  32  33
ATOM     33  C   UNL     1       6.414   3.668  12.689  0.00  0.00    +0.000 A 
ATOM     34  C   UNL     1       5.055   3.642  12.375  0.00  0.00    +0.000 A 
ATOM     35  C   UNL     1       4.574   2.721  11.442  0.00  0.00    +0.000 A 
ATOM     36  C   UNL     1       5.455   1.822  10.833  0.00  0.00    +0.000 A 
ATOM     37  C   UNL     1       6.811   1.851  11.143  0.00  0.00    +0.000 A 
ATOM     38  C   UNL     1       7.294   2.789  12.055  0.00  0.00    +0.000 A 
ENDBRANCH  32  33
ENDBRANCH  29  32
ENDBRANCH   3  26
TORSDOF 8
ENDMDL
MODEL 2
REMARK VINA RESULT:      -8.8      4.915      7.391
REMARK  Name = 
REMARK  10 active torsions:
REMARK  status: ('A' for Active; 'I' for Inactive)
REMARK    1  A    between atoms: C_1  and  C_2
REMARK    2  A    between atoms: C_2  and  C_3
REMARK    3  A    between atoms: C_2  and  C_4
REMARK    4  A    between atoms: C_4  and  C_5
REMARK    5  A    between atoms: C_5  and  N_6
REMARK    6  A    between atoms: N_6  and  C_7
REMARK    7  A    between atoms: C_10  and  N_11
REMARK    8  A    between atoms: C_13  and  C_14
REMARK    9  A    between atoms: C_17  and  O_18
REMARK   10  A    between atoms: O_18  and  C_19
REMARK                            x       y       z     vdW  Elec       q    Type
REMARK                         _______ _______ _______ _____ _____    ______ ____
ROOT
ATOM      1  N   UNL     1      -0.581  12.162  20.646  0.00  0.00    +0.000 N 
ATOM      2  C   UNL     1      -0.272  10.840  20.447  0.00  0.00    +0.000 A 
ATOM      3  C   UNL     1       0.784  10.764  19.560  0.00  0.00    +0.000 A 
ATOM      4  C   UNL     1       1.097  12.103  19.159  0.00  0.00    +0.000 A 
ATOM      5  C   UNL     1       2.030  12.745  18.313  0.00  0.00    +0.000 A 
ATOM      6  N   UNL     1       2.973  12.086  17.540  0.00  0.00    +0.000 N 
ATOM      7  N   UNL     1       2.024  14.085  18.228  0.00  0.00    +0.000 NA
ATOM      8  C   UNL     1       1.115  14.771  18.952  0.00  0.00    +0.000 A 
ATOM      9  N   UNL     1       0.182  14.282  19.775  0.00  0.00    +0.000 NA
ATOM     10  C   UNL     1       0.220  12.941  19.847  0.00  0.00    +0.000 A 
ATOM     11  H   UNL     1       2.687  11.169  17.221  0.00  0.00    +0.000 HD
ATOM     12  H   UNL     1       3.353  12.706  16.834  0.00  0.00    +0.000 HD
ENDROOT
BRANCH   1  16
ATOM     13  C   UNL     1      -4.113  12.702  23.119  0.00  0.00    +0.000 C 
ATOM     14  C   UNL     1      -3.714  13.794  22.106  0.00  0.00    +0.000 C 
ATOM     15  C   UNL     1      -2.769  13.258  21.037  0.00  0.00    +0.000 C 
ATOM     16  C   UNL     1      -1.526  12.616  21.661  0.00  0.00    +0.000 C 
ATOM     17  C   UNL     1      -1.896  11.532  22.680  0.00  0.00    +0.000 C 
ATOM     18  C   UNL     1      -2.856  12.074  23.744  0.00  0.00    +0.000 C 
BRANCH  13  19
ATOM     19  N   UNL     1      -4.962  13.221  24.207  0.00  0.00    +0.000 NA
ATOM     20  H   UNL     1      -4.529  13.001  25.108  0.00  0.00    +0.000 HD
BRANCH  19  21
ATOM     21  C   UNL     1      -6.306  12.646  24.171  0.00  0.00    +0.000 C 
BRANCH  21  22
ATOM     22  C   UNL     1      -7.372  13.644  23.701  0.00  0.00    +0.000 C 
BRANCH  22  24
ATOM     23  C   UNL     1      -7.247  14.115  21.220  0.00  0.00    +0.000 C 
ATOM     24  C   UNL     1      -7.916  13.269  22.303  0.00  0.00    +0.000 C 
ATOM     25  C   UNL     1      -7.734  11.783  21.975  0.00  0.00    +0.000 C 
ENDBRANCH  22  24
ENDBRANCH  21  22
ENDBRANCH  19  21
ENDBRANCH  13  19
ENDBRANCH   1  16
BRANCH   3  26
ATOM     26  C   UNL     1       1.416   9.492  19.242  0.00  0.00    +0.000 A 
ATOM     27  C   UNL     1       1.848   9.207  17.939  0.00  0.00    +0.000 A 
ATOM     28  C   UNL     1       2.418   7.970  17.635  0.00  0.00    +0.000 A 
ATOM     29  C   UNL     1       2.592   7.021  18.640  0.00  0.00    +0.000 A 
ATOM     30  C   UNL     1       2.147   7.284  19.933  0.00  0.00    +0.000 A 
ATOM     31  C   UNL     1       1.556   8.510  20.228  0.00  0.00    +0.000 A 
BRANCH  29  32
ATOM     32  O   UNL     1       3.147   5.822  18.255  0.00  0.00    +0.000 OA
BRANCH  32  33
ATOM     33  C   UNL     1       2.614   4.651  18.745  0.00  0.00    +0.000 A 
ATOM     34  C   UNL     1       3.337   4.030  19.765  0.00  0.00    +0.000 A 
ATOM     35  C   UNL     1       2.853   2.857  20.346  0.00  0.00    +0.000 A 
ATOM     36  C   UNL     1       1.650   2.303  19.898  0.00  0.00    +0.000 A 
ATOM     37  C   UNL     1       0.926   2.925  18.884  0.00  0.00    +0.000 A 
ATOM     38  C   UNL     1       1.398   4.111  18.323  0.00  0.00    +0.000 A 
ENDBRANCH  32  33
ENDBRANCH  29  32
ENDBRANCH   3  26
TORSDOF 8
ENDMDL
MODEL 3
REMARK VINA RESULT:      -8.8      5.053      8.018
REMARK  Name = 
REMARK  10 active torsions:
REMARK  status: ('A' for Active; 'I' for Inactive)
REMARK    1  A    between atoms: C_1  and  C_2
REMARK    2  A    between atoms: C_2  and  C_3
REMARK    3  A    between atoms: C_2  and  C_4
REMARK    4  A    between atoms: C_4  and  C_5
REMARK    5  A    between atoms: C_5  and  N_6
REMARK    6  A    between atoms: N_6  and  C_7
REMARK    7  A    between atoms: C_10  and  N_11
REMARK    8  A    between atoms: C_13  and  C_14
REMARK    9  A    between atoms: C_17  and  O_18
REMARK   10  A    between atoms: O_18  and  C_19
REMARK                            x       y       z     vdW  Elec       q    Type
REMARK                         _______ _______ _______ _____ _____    ______ ____
ROOT
ATOM      1  N   UNL     1      -1.588  12.713  19.808  0.00  0.00    +0.000 N 
ATOM      2  C   UNL     1      -1.218  11.393  19.741  0.00  0.00    +0.000 A 
ATOM      3  C   UNL     1       0.085  11.324  19.289  0.00  0.00    +0.000 A 
ATOM      4  C   UNL     1       0.511  12.665  19.018  0.00  0.00    +0.000 A 
ATOM      5  C   UNL     1       1.679  13.312  18.557  0.00  0.00    +0.000 A 
ATOM      6  N   UNL     1       2.841  12.659  18.175  0.00  0.00    +0.000 N 
ATOM      7  N   UNL     1       1.694  14.652  18.466  0.00  0.00    +0.000 NA
ATOM      8  C   UNL     1       0.582  15.332  18.814  0.00  0.00    +0.000 A 
ATOM      9  N   UNL     1      -0.581  14.837  19.253  0.00  0.00    +0.000 NA
ATOM     10  C   UNL     1      -0.560  13.497  19.342  0.00  0.00    +0.000 A 
ATOM     11  H   UNL     1       2.695  11.739  17.781  0.00  0.00    +0.000 HD
ATOM     12  H   UNL     1       3.444  13.280  17.647  0.00  0.00    +0.000 HD
ENDROOT
BRANCH   1  16
ATOM     13  C   UNL     1      -5.374  12.877  21.934  0.00  0.00    +0.000 C 
ATOM     14  C   UNL     1      -5.355  12.987  20.396  0.00  0.00    +0.000 C 
ATOM     15  C   UNL     1      -4.053  12.458  19.807  0.00  0.00    +0.000 C 
ATOM     16  C   UNL     1      -2.837  13.162  20.416  0.00  0.00    +0.000 C 
ATOM     17  C   UNL     1      -2.837  13.075  21.946  0.00  0.00    +0.000 C 
ATOM     18  C   UNL     1      -4.153  13.596  22.532  0.00  0.00    +0.000 C 
BRANCH  13  19
ATOM     19  N   UNL     1      -6.592  13.458  22.529  0.00  0.00    +0.000 NA
ATOM     20  H   UNL     1      -6.982  12.802  23.211  0.00  0.00    +0.000 HD
BRANCH  19  21
ATOM     21  C   UNL     1      -7.606  13.752  21.516  0.00  0.00    +0.000 C 
BRANCH  21  22
ATOM     22  C   UNL     1      -7.916  15.249  21.397  0.00  0.00    +0.000 C 
BRANCH  22  24
ATOM     23  C   UNL     1      -5.932  16.814  21.474  0.00  0.00    +0.000 C 
ATOM     24  C   UNL     1      -6.991  16.090  22.306  0.00  0.00    +0.000 C 
ATOM     25  C   UNL     1      -7.759  17.110  23.153  0.00  0.00    +0.000 C 
ENDBRANCH  22  24
ENDBRANCH  21  22
ENDBRANCH  19  21
ENDBRANCH  13  19
ENDBRANCH   1  16
BRANCH   3  26
ATOM     26  C   UNL     1       0.798  10.057  19.226  0.00  0.00    +0.000 A 
ATOM     27  C   UNL     1       1.014   9.293  20.381  0.00  0.00    +0.000 A 
ATOM     28  C   UNL     1       1.732   8.098  20.319  0.00  0.00    +0.000 A 
ATOM     29  C   UNL     1       2.210   7.639  19.093  0.00  0.00    +0.000 A 
ATOM     30  C   UNL     1       2.019   8.400  17.942  0.00  0.00    +0.000 A 
ATOM     31  C   UNL     1       1.325   9.604  18.012  0.00  0.00    +0.000 A 
BRANCH  29  32
ATOM     32  O   UNL     1       2.920   6.462  19.119  0.00  0.00    +0.000 OA
BRANCH  32  33
ATOM     33  C   UNL     1       2.239   5.273  19.261  0.00  0.00    +0.000 A 
ATOM     34  C   UNL     1       2.055   4.531  18.094  0.00  0.00    +0.000 A 
ATOM     35  C   UNL     1       1.407   3.296  18.150  0.00  0.00    +0.000 A 
ATOM     36  C   UNL     1       0.935   2.812  19.374  0.00  0.00    +0.000 A 
ATOM     37  C   UNL     1       1.123   3.551  20.539  0.00  0.00    +0.000 A 
ATOM     38  C   UNL     1       1.794   4.771  20.485  0.00  0.00    +0.000 A 
ENDBRANCH  32  33
ENDBRANCH  29  32
ENDBRANCH   3  26
TORSDOF 8
ENDMDL
MODEL 4
REMARK VINA RESULT:      -8.7      4.756     12.779
REMARK  Name = 
REMARK  10 active torsions:
REMARK  status: ('A' for Active; 'I' for Inactive)
REMARK    1  A    between atoms: C_1  and  C_2
REMARK    2  A    between atoms: C_2  and  C_3
REMARK    3  A    between atoms: C_2  and  C_4
REMARK    4  A    between atoms: C_4  and  C_5
REMARK    5  A    between atoms: C_5  and  N_6
REMARK    6  A    between atoms: N_6  and  C_7
REMARK    7  A    between atoms: C_10  and  N_11
REMARK    8  A    between atoms: C_13  and  C_14
REMARK    9  A    between atoms: C_17  and  O_18
REMARK   10  A    between atoms: O_18  and  C_19
REMARK                            x       y       z     vdW  Elec       q    Type
REMARK                         _______ _______ _______ _____ _____    ______ ____
ROOT
ATOM      1  N   UNL     1      -0.070  10.481  19.499  0.00  0.00    +0.000 N 
ATOM      2  C   UNL     1      -0.297  11.278  20.593  0.00  0.00    +0.000 A 
ATOM      3  C   UNL     1      -1.535  11.873  20.455  0.00  0.00    +0.000 A 
ATOM      4  C   UNL     1      -2.065  11.460  19.190  0.00  0.00    +0.000 A 
ATOM      5  C   UNL     1      -3.240  11.670  18.435  0.00  0.00    +0.000 A 
ATOM      6  N   UNL     1      -4.287  12.492  18.824  0.00  0.00    +0.000 N 
ATOM      7  N   UNL     1      -3.381  11.049  17.253  0.00  0.00    +0.000 NA
ATOM      8  C   UNL     1      -2.383  10.249  16.825  0.00  0.00    +0.000 A 
ATOM      9  N   UNL     1      -1.226   9.978  17.439  0.00  0.00    +0.000 NA
ATOM     10  C   UNL     1      -1.120  10.605  18.622  0.00  0.00    +0.000 A 
ATOM     11  H   UNL     1      -4.011  13.284  19.389  0.00  0.00    +0.000 HD
ATOM     12  H   UNL     1      -4.894  12.695  18.038  0.00  0.00    +0.000 HD
ENDROOT
BRANCH   1  16
ATOM     13  C   UNL     1       2.435   7.003  18.790  0.00  0.00    +0.000 C 
ATOM     14  C   UNL     1       2.090   7.415  20.234  0.00  0.00    +0.000 C 
ATOM     15  C   UNL     1       0.872   8.329  20.287  0.00  0.00    +0.000 C 
ATOM     16  C   UNL     1       1.061   9.564  19.401  0.00  0.00    +0.000 C 
ATOM     17  C   UNL     1       1.414   9.181  17.959  0.00  0.00    +0.000 C 
ATOM     18  C   UNL     1       2.632   8.252  17.914  0.00  0.00    +0.000 C 
BRANCH  13  19
ATOM     19  N   UNL     1       3.660   6.184  18.711  0.00  0.00    +0.000 NA
ATOM     20  H   UNL     1       4.393   6.718  18.237  0.00  0.00    +0.000 HD
BRANCH  19  21
ATOM     21  C   UNL     1       3.433   4.935  17.984  0.00  0.00    +0.000 C 
BRANCH  21  22
ATOM     22  C   UNL     1       1.947   4.573  17.863  0.00  0.00    +0.000 C 
BRANCH  22  24
ATOM     23  C   UNL     1       2.820   2.545  19.095  0.00  0.00    +0.000 C 
ATOM     24  C   UNL     1       1.582   3.386  18.783  0.00  0.00    +0.000 C 
ATOM     25  C   UNL     1       0.923   3.832  20.094  0.00  0.00    +0.000 C 
ENDBRANCH  22  24
ENDBRANCH  21  22
ENDBRANCH  19  21
ENDBRANCH  13  19
ENDBRANCH   1  16
BRANCH   3  26
ATOM     26  C   UNL     1      -2.108  12.686  21.518  0.00  0.00    +0.000 A 
ATOM     27  C   UNL     1      -2.236  14.074  21.375  0.00  0.00    +0.000 A 
ATOM     28  C   UNL     1      -2.750  14.851  22.414  0.00  0.00    +0.000 A 
ATOM     29  C   UNL     1      -3.173  14.240  23.593  0.00  0.00    +0.000 A 
ATOM     30  C   UNL     1      -3.031  12.864  23.755  0.00  0.00    +0.000 A 
ATOM     31  C   UNL     1      -2.494  12.095  22.726  0.00  0.00    +0.000 A 
BRANCH  29  32
ATOM     32  O   UNL     1      -3.653  15.077  24.573  0.00  0.00    +0.000 OA
BRANCH  32  33
ATOM     33  C   UNL     1      -2.789  15.961  25.179  0.00  0.00    +0.000 A 
ATOM     34  C   UNL     1      -1.729  15.393  25.887  0.00  0.00    +0.000 A 
ATOM     35  C   UNL     1      -0.784  16.215  26.503  0.00  0.00    +0.000 A 
ATOM     36  C   UNL     1      -0.908  17.605  26.417  0.00  0.00    +0.000 A 
ATOM     37  C   UNL     1      -1.963  18.172  25.707  0.00  0.00    +0.000 A 
ATOM     38  C   UNL     1      -2.890  17.350  25.070  0.00  0.00    +0.000 A 
ENDBRANCH  32  33
ENDBRANCH  29  32
ENDBRANCH   3  26
TORSDOF 8
ENDMDL
MODEL 5
REMARK VINA RESULT:      -8.7      1.507      2.076
REMARK  Name = 
REMARK  10 active torsions:
REMARK  status: ('A' for Active; 'I' for Inactive)
REMARK    1  A    between atoms: C_1  and  C_2
REMARK    2  A    between atoms: C_2  and  C_3
REMARK    3  A    between atoms: C_2  and  C_4
REMARK    4  A    between atoms: C_4  and  C_5
REMARK    5  A    between atoms: C_5  and  N_6
REMARK    6  A    between atoms: N_6  and  C_7
REMARK    7  A    between atoms: C_10  and  N_11
REMARK    8  A    between atoms: C_13  and  C_14
REMARK    9  A    between atoms: C_17  and  O_18
REMARK   10  A    between atoms: O_18  and  C_19
REMARK                            x       y       z     vdW  Elec       q    Type
REMARK                         _______ _______ _______ _____ _____    ______ ____
ROOT
ATOM      1  N   UNL     1       2.424   6.750  19.416  0.00  0.00    +0.000 N 
ATOM      2  C   UNL     1       3.231   6.817  18.308  0.00  0.00    +0.000 A 
ATOM      3  C   UNL     1       3.817   5.581  18.115  0.00  0.00    +0.000 A 
ATOM      4  C   UNL     1       3.385   4.736  19.188  0.00  0.00    +0.000 A 
ATOM      5  C   UNL     1       3.578   3.399  19.601  0.00  0.00    +0.000 A 
ATOM      6  N   UNL     1       4.398   2.487  18.953  0.00  0.00    +0.000 N 
ATOM      7  N   UNL     1       2.942   2.952  20.696  0.00  0.00    +0.000 NA
ATOM      8  C   UNL     1       2.143   3.806  21.368  0.00  0.00    +0.000 A 
ATOM      9  N   UNL     1       1.887   5.088  21.085  0.00  0.00    +0.000 NA
ATOM     10  C   UNL     1       2.530   5.501  19.979  0.00  0.00    +0.000 A 
ATOM     11  H   UNL     1       5.198   2.896  18.491  0.00  0.00    +0.000 HD
ATOM     12  H   UNL     1       4.587   1.689  19.550  0.00  0.00    +0.000 HD
ENDROOT
BRANCH   1  16
ATOM     13  C   UNL     1       0.756  10.544  20.720  0.00  0.00    +0.000 C 
ATOM     14  C   UNL     1       0.734   9.331  21.672  0.00  0.00    +0.000 C 
ATOM     15  C   UNL     1       1.739   8.264  21.253  0.00  0.00    +0.000 C 
ATOM     16  C   UNL     1       1.513   7.821  19.805  0.00  0.00    +0.000 C 
ATOM     17  C   UNL     1       1.521   9.011  18.838  0.00  0.00    +0.000 C 
ATOM     18  C   UNL     1       0.518  10.085  19.271  0.00  0.00    +0.000 C 
BRANCH  13  19
ATOM     19  N   UNL     1      -0.267  11.551  21.061  0.00  0.00    +0.000 NA
ATOM     20  H   UNL     1      -1.190  11.199  20.795  0.00  0.00    +0.000 HD
BRANCH  19  21
ATOM     21  C   UNL     1      -0.026  12.823  20.380  0.00  0.00    +0.000 C 
BRANCH  21  22
ATOM     22  C   UNL     1       1.289  13.490  20.804  0.00  0.00    +0.000 C 
BRANCH  22  24
ATOM     23  C   UNL     1       2.272  13.160  18.498  0.00  0.00    +0.000 C 
ATOM     24  C   UNL     1       1.984  14.174  19.605  0.00  0.00    +0.000 C 
ATOM     25  C   UNL     1       1.168  15.338  19.031  0.00  0.00    +0.000 C 
ENDBRANCH  22  24
ENDBRANCH  21  22
ENDBRANCH  19  21
ENDBRANCH  13  19
ENDBRANCH   1  16
BRANCH   3  26
ATOM     26  C   UNL     1       4.639   5.308  16.945  0.00  0.00    +0.000 A 
ATOM     27  C   UNL     1       4.981   6.330  16.049  0.00  0.00    +0.000 A 
ATOM     28  C   UNL     1       5.736   6.052  14.909  0.00  0.00    +0.000 A 
ATOM     29  C   UNL     1       6.186   4.755  14.675  0.00  0.00    +0.000 A 
ATOM     30  C   UNL     1       5.836   3.727  15.547  0.00  0.00    +0.000 A 
ATOM     31  C   UNL     1       5.060   4.002  16.670  0.00  0.00    +0.000 A 
BRANCH  29  32
ATOM     32  O   UNL     1       6.912   4.561  13.523  0.00  0.00    +0.000 OA
BRANCH  32  33
ATOM     33  C   UNL     1       6.469   3.639  12.601  0.00  0.00    +0.000 A 
ATOM     34  C   UNL     1       7.451   2.836  12.018  0.00  0.00    +0.000 A 
ATOM     35  C   UNL     1       7.088   1.850  11.099  0.00  0.00    +0.000 A 
ATOM     36  C   UNL     1       5.743   1.677  10.759  0.00  0.00    +0.000 A 
ATOM     37  C   UNL     1       4.763   2.474  11.343  0.00  0.00    +0.000 A 
ATOM     38  C   UNL     1       5.125   3.440  12.281  0.00  0.00    +0.000 A 
ENDBRANCH  32  33
ENDBRANCH  29  32
ENDBRANCH   3  26
TORSDOF 8
ENDMDL
MODEL 6
REMARK VINA RESULT:      -8.7      0.505      1.004
REMARK  Name = 
REMARK  10 active torsions:
REMARK  status: ('A' for Active; 'I' for Inactive)
REMARK    1  A    between atoms: C_1  and  C_2
REMARK    2  A    between atoms: C_2  and  C_3
REMARK    3  A    between atoms: C_2  and  C_4
REMARK    4  A    between atoms: C_4  and  C_5
REMARK    5  A    between atoms: C_5  and  N_6
REMARK    6  A    between atoms: N_6  and  C_7
REMARK    7  A    between atoms: C_10  and  N_11
REMARK    8  A    between atoms: C_13  and  C_14
REMARK    9  A    between atoms: C_17  and  O_18
REMARK   10  A    between atoms: O_18  and  C_19
REMARK                            x       y       z     vdW  Elec       q    Type
REMARK                         _______ _______ _______ _____ _____    ______ ____
ROOT
ATOM      1  N   UNL     1       2.438   6.749  19.483  0.00  0.00    +0.000 N 
ATOM      2  C   UNL     1       3.248   6.824  18.377  0.00  0.00    +0.000 A 
ATOM      3  C   UNL     1       3.807   5.580  18.156  0.00  0.00    +0.000 A 
ATOM      4  C   UNL     1       3.355   4.720  19.209  0.00  0.00    +0.000 A 
ATOM      5  C   UNL     1       3.519   3.370  19.592  0.00  0.00    +0.000 A 
ATOM      6  N   UNL     1       4.319   2.456  18.924  0.00  0.00    +0.000 N 
ATOM      7  N   UNL     1       2.872   2.913  20.676  0.00  0.00    +0.000 NA
ATOM      8  C   UNL     1       2.092   3.769  21.367  0.00  0.00    +0.000 A 
ATOM      9  N   UNL     1       1.864   5.062  21.113  0.00  0.00    +0.000 NA
ATOM     10  C   UNL     1       2.517   5.486  20.018  0.00  0.00    +0.000 A 
ATOM     11  H   UNL     1       5.129   2.858  18.471  0.00  0.00    +0.000 HD
ATOM     12  H   UNL     1       4.490   1.640  19.502  0.00  0.00    +0.000 HD
ENDROOT
BRANCH   1  16
ATOM     13  C   UNL     1       0.851  10.560  20.837  0.00  0.00    +0.000 C 
ATOM     14  C   UNL     1       0.834   9.344  21.785  0.00  0.00    +0.000 C 
ATOM     15  C   UNL     1       1.814   8.265  21.340  0.00  0.00    +0.000 C 
ATOM     16  C   UNL     1       1.551   7.831  19.895  0.00  0.00    +0.000 C 
ATOM     17  C   UNL     1       1.554   9.025  18.933  0.00  0.00    +0.000 C 
ATOM     18  C   UNL     1       0.575  10.111  19.393  0.00  0.00    +0.000 C 
BRANCH  13  19
ATOM     19  N   UNL     1      -0.150  11.580  21.205  0.00  0.00    +0.000 NA
ATOM     20  H   UNL     1       0.293  12.291  21.792  0.00  0.00    +0.000 HD
BRANCH  19  21
ATOM     21  C   UNL     1      -1.279  10.997  21.930  0.00  0.00    +0.000 C 
BRANCH  21  22
ATOM     22  C   UNL     1      -1.557  11.697  23.266  0.00  0.00    +0.000 C 
BRANCH  22  24
ATOM     23  C   UNL     1      -3.833  12.450  24.070  0.00  0.00    +0.000 C 
ATOM     24  C   UNL     1      -2.672  12.758  23.124  0.00  0.00    +0.000 C 
ATOM     25  C   UNL     1      -2.170  14.184  23.380  0.00  0.00    +0.000 C 
ENDBRANCH  22  24
ENDBRANCH  21  22
ENDBRANCH  19  21
ENDBRANCH  13  19
ENDBRANCH   1  16
BRANCH   3  26
ATOM     26  C   UNL     1       4.623   5.315  16.980  0.00  0.00    +0.000 A 
ATOM     27  C   UNL     1       4.949   6.342  16.083  0.00  0.00    +0.000 A 
ATOM     28  C   UNL     1       5.699   6.072  14.938  0.00  0.00    +0.000 A 
ATOM     29  C   UNL     1       6.161   4.779  14.700  0.00  0.00    +0.000 A 
ATOM     30  C   UNL     1       5.827   3.747  15.574  0.00  0.00    +0.000 A 
ATOM     31  C   UNL     1       5.056   4.015  16.702  0.00  0.00    +0.000 A 
BRANCH  29  32
ATOM     32  O   UNL     1       6.881   4.593  13.543  0.00  0.00    +0.000 OA
BRANCH  32  33
ATOM     33  C   UNL     1       6.447   3.658  12.629  0.00  0.00    +0.000 A 
ATOM     34  C   UNL     1       7.438   2.864  12.049  0.00  0.00    +0.000 A 
ATOM     35  C   UNL     1       7.085   1.867  11.139  0.00  0.00    +0.000 A 
ATOM     36  C   UNL     1       5.742   1.673  10.803  0.00  0.00    +0.000 A 
ATOM     37  C   UNL     1       4.754   2.462  11.385  0.00  0.00    +0.000 A 
ATOM     38  C   UNL     1       5.105   3.440  12.314  0.00  0.00    +0.000 A 
ENDBRANCH  32  33
ENDBRANCH  29  32
ENDBRANCH   3  26
TORSDOF 8
ENDMDL
MODEL 7
REMARK VINA RESULT:      -8.7      3.494      6.110
REMARK  Name = 
REMARK  10 active torsions:
REMARK  status: ('A' for Active; 'I' for Inactive)
REMARK    1  A    between atoms: C_1  and  C_2
REMARK    2  A    between atoms: C_2  and  C_3
REMARK    3  A    between atoms: C_2  and  C_4
REMARK    4  A    between atoms: C_4  and  C_5
REMARK    5  A    between atoms: C_5  and  N_6
REMARK    6  A    between atoms: N_6  and  C_7
REMARK    7  A    between atoms: C_10  and  N_11
REMARK    8  A    between atoms: C_13  and  C_14
REMARK    9  A    between atoms: C_17  and  O_18
REMARK   10  A    between atoms: O_18  and  C_19
REMARK                            x       y       z     vdW  Elec       q    Type
REMARK                         _______ _______ _______ _____ _____    ______ ____
ROOT
ATOM      1  N   UNL     1      -0.682  10.520  18.946  0.00  0.00    +0.000 N 
ATOM      2  C   UNL     1       0.202   9.652  18.356  0.00  0.00    +0.000 A 
ATOM      3  C   UNL     1       1.012   9.116  19.338  0.00  0.00    +0.000 A 
ATOM      4  C   UNL     1       0.636   9.728  20.578  0.00  0.00    +0.000 A 
ATOM      5  C   UNL     1       1.023   9.653  21.935  0.00  0.00    +0.000 A 
ATOM      6  N   UNL     1       2.048   8.853  22.416  0.00  0.00    +0.000 N 
ATOM      7  N   UNL     1       0.375  10.399  22.844  0.00  0.00    +0.000 NA
ATOM      8  C   UNL     1      -0.622  11.203  22.422  0.00  0.00    +0.000 A 
ATOM      9  N   UNL     1      -1.072  11.369  21.173  0.00  0.00    +0.000 NA
ATOM     10  C   UNL     1      -0.411  10.602  20.290  0.00  0.00    +0.000 A 
ATOM     11  H   UNL     1       2.804   8.700  21.762  0.00  0.00    +0.000 HD
ATOM     12  H   UNL     1       2.318   9.140  23.350  0.00  0.00    +0.000 HD
ENDROOT
BRANCH   1  16
ATOM     13  C   UNL     1      -4.519  11.244  17.039  0.00  0.00    +0.000 C 
ATOM     14  C   UNL     1      -3.260  11.043  16.172  0.00  0.00    +0.000 C 
ATOM     15  C   UNL     1      -2.141  10.360  16.949  0.00  0.00    +0.000 C 
ATOM     16  C   UNL     1      -1.801  11.126  18.230  0.00  0.00    +0.000 C 
ATOM     17  C   UNL     1      -3.039  11.348  19.106  0.00  0.00    +0.000 C 
ATOM     18  C   UNL     1      -4.164  12.023  18.316  0.00  0.00    +0.000 C 
BRANCH  13  19
ATOM     19  N   UNL     1      -5.585  11.976  16.329  0.00  0.00    +0.000 NA
ATOM     20  H   UNL     1      -5.163  12.684  15.723  0.00  0.00    +0.000 HD
BRANCH  19  21
ATOM     21  C   UNL     1      -6.506  12.631  17.258  0.00  0.00    +0.000 C 
BRANCH  21  22
ATOM     22  C   UNL     1      -6.952  14.019  16.780  0.00  0.00    +0.000 C 
BRANCH  22  24
ATOM     23  C   UNL     1      -6.994  16.487  17.328  0.00  0.00    +0.000 C 
ATOM     24  C   UNL     1      -6.767  15.082  17.886  0.00  0.00    +0.000 C 
ATOM     25  C   UNL     1      -7.692  14.855  19.088  0.00  0.00    +0.000 C 
ENDBRANCH  22  24
ENDBRANCH  21  22
ENDBRANCH  19  21
ENDBRANCH  13  19
ENDBRANCH   1  16
BRANCH   3  26
ATOM     26  C   UNL     1       1.976   8.068  19.036  0.00  0.00    +0.000 A 
ATOM     27  C   UNL     1       2.111   6.950  19.870  0.00  0.00    +0.000 A 
ATOM     28  C   UNL     1       3.064   5.969  19.595  0.00  0.00    +0.000 A 
ATOM     29  C   UNL     1       3.867   6.081  18.461  0.00  0.00    +0.000 A 
ATOM     30  C   UNL     1       3.756   7.197  17.636  0.00  0.00    +0.000 A 
ATOM     31  C   UNL     1       2.822   8.187  17.928  0.00  0.00    +0.000 A 
BRANCH  29  32
ATOM     32  O   UNL     1       4.791   5.081  18.268  0.00  0.00    +0.000 OA
BRANCH  32  33
ATOM     33  C   UNL     1       5.374   4.939  17.029  0.00  0.00    +0.000 A 
ATOM     34  C   UNL     1       6.703   5.353  16.928  0.00  0.00    +0.000 A 
ATOM     35  C   UNL     1       7.385   5.213  15.717  0.00  0.00    +0.000 A 
ATOM     36  C   UNL     1       6.731   4.667  14.609  0.00  0.00    +0.000 A 
ATOM     37  C   UNL     1       5.407   4.251  14.711  0.00  0.00    +0.000 A 
ATOM     38  C   UNL     1       4.736   4.366  15.927  0.00  0.00    +0.000 A 
ENDBRANCH  32  33
ENDBRANCH  29  32
ENDBRANCH   3  26
TORSDOF 8
ENDMDL
MODEL 8
REMARK VINA RESULT:      -8.7      4.822      7.214
REMARK  Name = 
REMARK  10 active torsions:
REMARK  status: ('A' for Active; 'I' for Inactive)
REMARK    1  A    between atoms: C_1  and  C_2
REMARK    2  A    between atoms: C_2  and  C_3
REMARK    3  A    between atoms: C_2  and  C_4
REMARK    4  A    between atoms: C_4  and  C_5
REMARK    5  A    between atoms: C_5  and  N_6
REMARK    6  A    between atoms: N_6  and  C_7
REMARK    7  A    between atoms: C_10  and  N_11
REMARK    8  A    between atoms: C_13  and  C_14
REMARK    9  A    between atoms: C_17  and  O_18
REMARK   10  A    between atoms: O_18  and  C_19
REMARK                            x       y       z     vdW  Elec       q    Type
REMARK                         _______ _______ _______ _____ _____    ______ ____
ROOT
ATOM      1  N   UNL     1      -1.080  11.773  20.526  0.00  0.00    +0.000 N 
ATOM      2  C   UNL     1      -0.660  10.487  20.297  0.00  0.00    +0.000 A 
ATOM      3  C   UNL     1       0.470  10.528  19.505  0.00  0.00    +0.000 A 
ATOM      4  C   UNL     1       0.719  11.904  19.193  0.00  0.00    +0.000 A 
ATOM      5  C   UNL     1       1.672  12.649  18.463  0.00  0.00    +0.000 A 
ATOM      6  N   UNL     1       2.723  12.096  17.748  0.00  0.00    +0.000 N 
ATOM      7  N   UNL     1       1.577  13.989  18.437  0.00  0.00    +0.000 NA
ATOM      8  C   UNL     1       0.563  14.574  19.107  0.00  0.00    +0.000 A 
ATOM      9  N   UNL     1      -0.401  13.981  19.822  0.00  0.00    +0.000 NA
ATOM     10  C   UNL     1      -0.271  12.644  19.837  0.00  0.00    +0.000 A 
ATOM     11  H   UNL     1       2.533  11.179  17.365  0.00  0.00    +0.000 HD
ATOM     12  H   UNL     1       3.117  12.775  17.107  0.00  0.00    +0.000 HD
ENDROOT
BRANCH   1  16
ATOM     13  C   UNL     1      -3.939  13.904  23.009  0.00  0.00    +0.000 C 
ATOM     14  C   UNL     1      -2.712  13.235  23.658  0.00  0.00    +0.000 C 
ATOM     15  C   UNL     1      -1.615  12.953  22.639  0.00  0.00    +0.000 C 
ATOM     16  C   UNL     1      -2.139  12.109  21.473  0.00  0.00    +0.000 C 
ATOM     17  C   UNL     1      -3.366  12.749  20.814  0.00  0.00    +0.000 C 
ATOM     18  C   UNL     1      -4.460  13.042  21.846  0.00  0.00    +0.000 C 
BRANCH  13  19
ATOM     19  N   UNL     1      -5.044  14.111  23.964  0.00  0.00    +0.000 NA
ATOM     20  H   UNL     1      -5.805  13.463  23.746  0.00  0.00    +0.000 HD
BRANCH  19  21
ATOM     21  C   UNL     1      -5.556  15.481  23.915  0.00  0.00    +0.000 C 
BRANCH  21  22
ATOM     22  C   UNL     1      -4.563  16.469  23.292  0.00  0.00    +0.000 C 
BRANCH  22  24
ATOM     23  C   UNL     1      -5.002  17.851  25.363  0.00  0.00    +0.000 C 
ATOM     24  C   UNL     1      -3.940  17.392  24.363  0.00  0.00    +0.000 C 
ATOM     25  C   UNL     1      -2.782  16.728  25.118  0.00  0.00    +0.000 C 
ENDBRANCH  22  24
ENDBRANCH  21  22
ENDBRANCH  19  21
ENDBRANCH  13  19
ENDBRANCH   1  16
BRANCH   3  26
ATOM     26  C   UNL     1       1.217   9.319  19.188  0.00  0.00    +0.000 A 
ATOM     27  C   UNL     1       1.636   9.053  17.877  0.00  0.00    +0.000 A 
ATOM     28  C   UNL     1       2.318   7.874  17.575  0.00  0.00    +0.000 A 
ATOM     29  C   UNL     1       2.618   6.967  18.590  0.00  0.00    +0.000 A 
ATOM     30  C   UNL     1       2.189   7.211  19.892  0.00  0.00    +0.000 A 
ATOM     31  C   UNL     1       1.487   8.376  20.186  0.00  0.00    +0.000 A 
BRANCH  29  32
ATOM     32  O   UNL     1       3.279   5.823  18.207  0.00  0.00    +0.000 OA
BRANCH  32  33
ATOM     33  C   UNL     1       2.755   4.599  18.560  0.00  0.00    +0.000 A 
ATOM     34  C   UNL     1       3.510   3.847  19.461  0.00  0.00    +0.000 A 
ATOM     35  C   UNL     1       3.037   2.610  19.902  0.00  0.00    +0.000 A 
ATOM     36  C   UNL     1       1.814   2.123  19.430  0.00  0.00    +0.000 A 
ATOM     37  C   UNL     1       1.059   2.875  18.535  0.00  0.00    +0.000 A 
ATOM     38  C   UNL     1       1.519   4.123  18.117  0.00  0.00    +0.000 A 
ENDBRANCH  32  33
ENDBRANCH  29  32
ENDBRANCH   3  26
TORSDOF 8
ENDMDL
MODEL 9
REMARK VINA RESULT:      -8.7      5.031      7.866
REMARK  Name = 
REMARK  10 active torsions:
REMARK  status: ('A' for Active; 'I' for Inactive)
REMARK    1  A    between atoms: C_1  and  C_2
REMARK    2  A    between atoms: C_2  and  C_3
REMARK    3  A    between atoms: C_2  and  C_4
REMARK    4  A    between atoms: C_4  and  C_5
REMARK    5  A    between atoms: C_5  and  N_6
REMARK    6  A    between atoms: N_6  and  C_7
REMARK    7  A    between atoms: C_10  and  N_11
REMARK    8  A    between atoms: C_13  and  C_14
REMARK    9  A    between atoms: C_17  and  O_18
REMARK   10  A    between atoms: O_18  and  C_19
REMARK                            x       y       z     vdW  Elec       q    Type
REMARK                         _______ _______ _______ _____ _____    ______ ____
ROOT
ATOM      1  N   UNL     1      -1.268  12.559  20.621  0.00  0.00    +0.000 N 
ATOM      2  C   UNL     1      -0.913  11.236  20.531  0.00  0.00    +0.000 A 
ATOM      3  C   UNL     1       0.215  11.136  19.741  0.00  0.00    +0.000 A 
ATOM      4  C   UNL     1       0.531  12.457  19.285  0.00  0.00    +0.000 A 
ATOM      5  C   UNL     1       1.517  13.072  18.482  0.00  0.00    +0.000 A 
ATOM      6  N   UNL     1       2.537  12.394  17.832  0.00  0.00    +0.000 N 
ATOM      7  N   UNL     1       1.488  14.404  18.313  0.00  0.00    +0.000 NA
ATOM      8  C   UNL     1       0.507  15.107  18.915  0.00  0.00    +0.000 A 
ATOM      9  N   UNL     1      -0.482  14.643  19.687  0.00  0.00    +0.000 NA
ATOM     10  C   UNL     1      -0.419  13.310  19.845  0.00  0.00    +0.000 A 
ATOM     11  H   UNL     1       2.300  11.452  17.548  0.00  0.00    +0.000 HD
ATOM     12  H   UNL     1       2.962  12.980  17.123  0.00  0.00    +0.000 HD
ENDROOT
BRANCH   1  16
ATOM     13  C   UNL     1      -4.777  12.881  23.162  0.00  0.00    +0.000 C 
ATOM     14  C   UNL     1      -4.754  13.594  21.796  0.00  0.00    +0.000 C 
ATOM     15  C   UNL     1      -3.690  13.014  20.872  0.00  0.00    +0.000 C 
ATOM     16  C   UNL     1      -2.305  13.047  21.524  0.00  0.00    +0.000 C 
ATOM     17  C   UNL     1      -2.303  12.351  22.890  0.00  0.00    +0.000 C 
ATOM     18  C   UNL     1      -3.383  12.930  23.810  0.00  0.00    +0.000 C 
BRANCH  13  19
ATOM     19  N   UNL     1      -5.745  13.481  24.100  0.00  0.00    +0.000 NA
ATOM     20  H   UNL     1      -6.518  12.828  24.253  0.00  0.00    +0.000 HD
BRANCH  19  21
ATOM     21  C   UNL     1      -6.282  14.744  23.593  0.00  0.00    +0.000 C 
BRANCH  21  22
ATOM     22  C   UNL     1      -5.596  15.973  24.204  0.00  0.00    +0.000 C 
BRANCH  22  24
ATOM     23  C   UNL     1      -7.313  17.067  22.703  0.00  0.00    +0.000 C 
ATOM     24  C   UNL     1      -6.003  17.269  23.464  0.00  0.00    +0.000 C 
ATOM     25  C   UNL     1      -6.140  18.471  24.407  0.00  0.00    +0.000 C 
ENDBRANCH  22  24
ENDBRANCH  21  22
ENDBRANCH  19  21
ENDBRANCH  13  19
ENDBRANCH   1  16
BRANCH   3  26
ATOM     26  C   UNL     1       0.900   9.865  19.557  0.00  0.00    +0.000 A 
ATOM     27  C   UNL     1       1.172   9.028  20.648  0.00  0.00    +0.000 A 
ATOM     28  C   UNL     1       1.863   7.829  20.468  0.00  0.00    +0.000 A 
ATOM     29  C   UNL     1       2.257   7.441  19.189  0.00  0.00    +0.000 A 
ATOM     30  C   UNL     1       2.011   8.274  18.101  0.00  0.00    +0.000 A 
ATOM     31  C   UNL     1       1.344   9.482  18.287  0.00  0.00    +0.000 A 
BRANCH  29  32
ATOM     32  O   UNL     1       2.946   6.254  19.099  0.00  0.00    +0.000 OA
BRANCH  32  33
ATOM     33  C   UNL     1       2.254   5.068  19.210  0.00  0.00    +0.000 A 
ATOM     34  C   UNL     1       1.944   4.660  20.507  0.00  0.00    +0.000 A 
ATOM     35  C   UNL     1       1.212   3.489  20.712  0.00  0.00    +0.000 A 
ATOM     36  C   UNL     1       0.801   2.724  19.616  0.00  0.00    +0.000 A 
ATOM     37  C   UNL     1       1.106   3.134  18.322  0.00  0.00    +0.000 A 
ATOM     38  C   UNL     1       1.813   4.318  18.118  0.00  0.00    +0.000 A 
ENDBRANCH  32  33
ENDBRANCH  29  32
ENDBRANCH   3  26
TORSDOF 8
ENDMDL
