MODEL 1
REMARK VINA RESULT:      -7.4      0.000      0.000
REMARK  Name = 
REMARK  5 active torsions:
REMARK  status: ('A' for Active; 'I' for Inactive)
REMARK    1  A    between atoms: C_1  and  C_2
REMARK    2  A    between atoms: C_2  and  C_3
REMARK    3  A    between atoms: C_19  and  C_20
REMARK    4  A    between atoms: C_20  and  O_22
REMARK    5  A    between atoms: O_22  and  C_23
REMARK                            x       y       z     vdW  Elec       q    Type
REMARK                         _______ _______ _______ _____ _____    ______ ____
ROOT
ATOM      1  C   UNL     1       5.613   3.896  14.737  0.00  0.00    +0.000 C 
ATOM      2  C   UNL     1       7.057   4.205  14.306  0.00  0.00    +0.000 C 
ATOM      3  C   UNL     1       7.727   4.834  15.550  0.00  0.00    +0.000 C 
ATOM      4  C   UNL     1       6.778   6.285  15.475  0.00  0.00    +0.000 C 
ATOM      5  N   UNL     1       5.308   6.103  15.623  0.00  0.00    +0.000 NA
ATOM      6  C   UNL     1       4.360   6.905  16.448  0.00  0.00    +0.000 C 
ATOM      7  C   UNL     1       3.992   6.686  17.993  0.00  0.00    +0.000 C 
ATOM      8  C   UNL     1       4.054   5.280  18.613  0.00  0.00    +0.000 A 
ATOM      9  C   UNL     1       5.129   4.418  18.432  0.00  0.00    +0.000 A 
ATOM     10  N   UNL     1       5.012   3.337  19.220  0.00  0.00    +0.000 N 
ATOM     11  C   UNL     1       3.773   3.368  19.830  0.00  0.00    +0.000 A 
ATOM     12  C   UNL     1       3.179   2.432  20.672  0.00  0.00    +0.000 A 
ATOM     13  C   UNL     1       1.861   2.688  21.086  0.00  0.00    +0.000 A 
ATOM     14  C   UNL     1       1.210   3.833  20.699  0.00  0.00    +0.000 A 
ATOM     15  C   UNL     1       1.835   4.796  19.888  0.00  0.00    +0.000 A 
ATOM     16  C   UNL     1       3.141   4.563  19.432  0.00  0.00    +0.000 A 
ATOM     17  C   UNL     1       6.192   4.803  17.483  0.00  0.00    +0.000 C 
ATOM     18  C   UNL     1       7.565   4.387  17.070  0.00  0.00    +0.000 C 
ATOM     19  C   UNL     1       5.236   4.756  16.060  0.00  0.00    +0.000 C 
ATOM     20  H   UNL     1       5.711   2.608  19.369  0.00  0.00    +0.000 HD
ENDROOT
BRANCH   1  22
ATOM     21  C   UNL     1       5.249   3.363  12.166  0.00  0.00    +0.000 C 
ATOM     22  C   UNL     1       4.827   4.116  13.405  0.00  0.00    +0.000 C 
ENDBRANCH   1  22
BRANCH  17  23
ATOM     23  C   UNL     1       6.832   5.979  18.497  0.00  0.00    +0.000 C 
ATOM     24  O   UNL     1       7.259   7.083  18.247  0.00  0.00    +0.000 OA
BRANCH  23  25
ATOM     25  O   UNL     1       6.979   5.364  19.749  0.00  0.00    +0.000 OA
ATOM     26  C   UNL     1       8.254   5.425  20.388  0.00  0.00    +0.000 C 
ENDBRANCH  23  25
ENDBRANCH  17  23
TORSDOF 3
ENDMDL
MODEL 2
REMARK VINA RESULT:      -6.4      8.661     10.840
REMARK  Name = 
REMARK  5 active torsions:
REMARK  status: ('A' for Active; 'I' for Inactive)
REMARK    1  A    between atoms: C_1  and  C_2
REMARK    2  A    between atoms: C_2  and  C_3
REMARK    3  A    between atoms: C_19  and  C_20
REMARK    4  A    between atoms: C_20  and  O_22
REMARK    5  A    between atoms: O_22  and  C_23
REMARK                            x       y       z     vdW  Elec       q    Type
REMARK                         _______ _______ _______ _____ _____    ______ ____
ROOT
ATOM      1  C   UNL     1       1.099  15.079  18.975  0.00  0.00    +0.000 C 
ATOM      2  C   UNL     1       2.317  15.008  19.912  0.00  0.00    +0.000 C 
ATOM      3  C   UNL     1       2.159  13.678  20.684  0.00  0.00    +0.000 C 
ATOM      4  C   UNL     1       0.774  14.223  21.577  0.00  0.00    +0.000 C 
ATOM      5  N   UNL     1      -0.420  14.580  20.763  0.00  0.00    +0.000 NA
ATOM      6  C   UNL     1      -1.845  14.221  21.012  0.00  0.00    +0.000 C 
ATOM      7  C   UNL     1      -2.606  12.887  20.551  0.00  0.00    +0.000 C 
ATOM      8  C   UNL     1      -2.170  12.148  19.274  0.00  0.00    +0.000 A 
ATOM      9  C   UNL     1      -0.844  11.857  18.983  0.00  0.00    +0.000 A 
ATOM     10  N   UNL     1      -0.756  11.055  17.908  0.00  0.00    +0.000 N 
ATOM     11  C   UNL     1      -2.014  10.921  17.354  0.00  0.00    +0.000 A 
ATOM     12  C   UNL     1      -2.404  10.251  16.198  0.00  0.00    +0.000 A 
ATOM     13  C   UNL     1      -3.754  10.349  15.824  0.00  0.00    +0.000 A 
ATOM     14  C   UNL     1      -4.649  11.052  16.593  0.00  0.00    +0.000 A 
ATOM     15  C   UNL     1      -4.256  11.685  17.785  0.00  0.00    +0.000 A 
ATOM     16  C   UNL     1      -2.911  11.631  18.177  0.00  0.00    +0.000 A 
ATOM     17  C   UNL     1       0.210  12.409  19.856  0.00  0.00    +0.000 C 
ATOM     18  C   UNL     1       1.675  12.274  20.110  0.00  0.00    +0.000 C 
ATOM     19  C   UNL     1      -0.055  14.064  19.493  0.00  0.00    +0.000 C 
ATOM     20  H   UNL     1       0.085  10.600  17.550  0.00  0.00    +0.000 HD
ENDROOT
BRANCH   1  22
ATOM     21  C   UNL     1      -0.361  17.127  18.139  0.00  0.00    +0.000 C 
ATOM     22  C   UNL     1       0.827  16.617  18.919  0.00  0.00    +0.000 C 
ENDBRANCH   1  22
BRANCH  17  23
ATOM     23  C   UNL     1      -0.126  11.358  21.122  0.00  0.00    +0.000 C 
ATOM     24  O   UNL     1      -0.150  11.550  22.316  0.00  0.00    +0.000 OA
BRANCH  23  25
ATOM     25  O   UNL     1      -0.198  10.079  20.549  0.00  0.00    +0.000 OA
ATOM     26  C   UNL     1       0.192   8.958  21.341  0.00  0.00    +0.000 C 
ENDBRANCH  23  25
ENDBRANCH  17  23
TORSDOF 3
ENDMDL
MODEL 3
REMARK VINA RESULT:      -5.9      9.165     11.269
REMARK  Name = 
REMARK  5 active torsions:
REMARK  status: ('A' for Active; 'I' for Inactive)
REMARK    1  A    between atoms: C_1  and  C_2
REMARK    2  A    between atoms: C_2  and  C_3
REMARK    3  A    between atoms: C_19  and  C_20
REMARK    4  A    between atoms: C_20  and  O_22
REMARK    5  A    between atoms: O_22  and  C_23
REMARK                            x       y       z     vdW  Elec       q    Type
REMARK                         _______ _______ _______ _____ _____    ______ ____
ROOT
ATOM      1  C   UNL     1       0.998  15.764  18.981  0.00  0.00    +0.000 C 
ATOM      2  C   UNL     1       2.117  16.087  19.985  0.00  0.00    +0.000 C 
ATOM      3  C   UNL     1       2.001  15.007  21.085  0.00  0.00    +0.000 C 
ATOM      4  C   UNL     1       0.491  15.614  21.688  0.00  0.00    +0.000 C 
ATOM      5  N   UNL     1      -0.642  15.599  20.724  0.00  0.00    +0.000 NA
ATOM      6  C   UNL     1      -2.048  15.162  20.961  0.00  0.00    +0.000 C 
ATOM      7  C   UNL     1      -2.637  13.676  20.837  0.00  0.00    +0.000 C 
ATOM      8  C   UNL     1      -2.011  12.673  19.853  0.00  0.00    +0.000 A 
ATOM      9  C   UNL     1      -0.642  12.466  19.751  0.00  0.00    +0.000 A 
ATOM     10  N   UNL     1      -0.376  11.418  18.952  0.00  0.00    +0.000 N 
ATOM     11  C   UNL     1      -1.556  10.998  18.369  0.00  0.00    +0.000 A 
ATOM     12  C   UNL     1      -1.767  10.000  17.422  0.00  0.00    +0.000 A 
ATOM     13  C   UNL     1      -3.076   9.840  16.940  0.00  0.00    +0.000 A 
ATOM     14  C   UNL     1      -4.102  10.619  17.416  0.00  0.00    +0.000 A 
ATOM     15  C   UNL     1      -3.889  11.591  18.408  0.00  0.00    +0.000 A 
ATOM     16  C   UNL     1      -2.590  11.798  18.894  0.00  0.00    +0.000 A 
ATOM     17  C   UNL     1       0.266  13.349  20.507  0.00  0.00    +0.000 C 
ATOM     18  C   UNL     1       1.705  13.455  20.894  0.00  0.00    +0.000 C 
ATOM     19  C   UNL     1      -0.107  14.803  19.678  0.00  0.00    +0.000 C 
ATOM     20  H   UNL     1       0.533  10.981  18.797  0.00  0.00    +0.000 HD
ENDROOT
BRANCH   1  22
ATOM     21  C   UNL     1       1.359  17.808  17.332  0.00  0.00    +0.000 C 
ATOM     22  C   UNL     1       0.596  17.188  18.478  0.00  0.00    +0.000 C 
ENDBRANCH   1  22
BRANCH  17  23
ATOM     23  C   UNL     1      -0.101  12.649  21.990  0.00  0.00    +0.000 C 
ATOM     24  O   UNL     1      -0.402  13.158  23.045  0.00  0.00    +0.000 OA
BRANCH  23  25
ATOM     25  O   UNL     1       0.202  11.286  21.853  0.00  0.00    +0.000 OA
ATOM     26  C   UNL     1      -0.429  10.359  22.738  0.00  0.00    +0.000 C 
ENDBRANCH  23  25
ENDBRANCH  17  23
TORSDOF 3
ENDMDL
MODEL 4
REMARK VINA RESULT:      -5.9     10.200     12.191
REMARK  Name = 
REMARK  5 active torsions:
REMARK  status: ('A' for Active; 'I' for Inactive)
REMARK    1  A    between atoms: C_1  and  C_2
REMARK    2  A    between atoms: C_2  and  C_3
REMARK    3  A    between atoms: C_19  and  C_20
REMARK    4  A    between atoms: C_20  and  O_22
REMARK    5  A    between atoms: O_22  and  C_23
REMARK                            x       y       z     vdW  Elec       q    Type
REMARK                         _______ _______ _______ _____ _____    ______ ____
ROOT
ATOM      1  C   UNL     1      -1.114  10.534  19.862  0.00  0.00    +0.000 C 
ATOM      2  C   UNL     1       0.058  10.033  20.724  0.00  0.00    +0.000 C 
ATOM      3  C   UNL     1      -0.022  10.850  22.034  0.00  0.00    +0.000 C 
ATOM      4  C   UNL     1       0.420  12.344  21.270  0.00  0.00    +0.000 C 
ATOM      5  N   UNL     1      -0.510  12.828  20.214  0.00  0.00    +0.000 NA
ATOM      6  C   UNL     1      -1.024  14.212  20.003  0.00  0.00    +0.000 C 
ATOM      7  C   UNL     1      -2.314  14.882  20.680  0.00  0.00    +0.000 C 
ATOM      8  C   UNL     1      -3.513  14.012  21.095  0.00  0.00    +0.000 A 
ATOM      9  C   UNL     1      -3.379  12.826  21.806  0.00  0.00    +0.000 A 
ATOM     10  N   UNL     1      -4.579  12.362  22.191  0.00  0.00    +0.000 N 
ATOM     11  C   UNL     1      -5.560  13.140  21.607  0.00  0.00    +0.000 A 
ATOM     12  C   UNL     1      -6.945  13.000  21.656  0.00  0.00    +0.000 A 
ATOM     13  C   UNL     1      -7.707  13.898  20.893  0.00  0.00    +0.000 A 
ATOM     14  C   UNL     1      -7.103  14.890  20.160  0.00  0.00    +0.000 A 
ATOM     15  C   UNL     1      -5.707  15.054  20.155  0.00  0.00    +0.000 A 
ATOM     16  C   UNL     1      -4.911  14.159  20.884  0.00  0.00    +0.000 A 
ATOM     17  C   UNL     1      -2.023  12.295  22.046  0.00  0.00    +0.000 C 
ATOM     18  C   UNL     1      -1.329  11.247  22.852  0.00  0.00    +0.000 C 
ATOM     19  C   UNL     1      -1.625  11.973  20.410  0.00  0.00    +0.000 C 
ATOM     20  H   UNL     1      -4.761  11.577  22.818  0.00  0.00    +0.000 HD
ENDROOT
BRANCH   1  22
ATOM     21  C   UNL     1       0.829   9.776  18.226  0.00  0.00    +0.000 C 
ATOM     22  C   UNL     1      -0.530  10.404  18.419  0.00  0.00    +0.000 C 
ENDBRANCH   1  22
BRANCH  17  23
ATOM     23  C   UNL     1      -1.647  13.458  23.199  0.00  0.00    +0.000 C 
ATOM     24  O   UNL     1      -0.618  14.062  23.396  0.00  0.00    +0.000 OA
BRANCH  23  25
ATOM     25  O   UNL     1      -2.736  13.486  24.083  0.00  0.00    +0.000 OA
ATOM     26  C   UNL     1      -2.956  14.669  24.850  0.00  0.00    +0.000 C 
ENDBRANCH  23  25
ENDBRANCH  17  23
TORSDOF 3
ENDMDL
MODEL 5
REMARK VINA RESULT:      -5.8     10.737     13.361
REMARK  Name = 
REMARK  5 active torsions:
REMARK  status: ('A' for Active; 'I' for Inactive)
REMARK    1  A    between atoms: C_1  and  C_2
REMARK    2  A    between atoms: C_2  and  C_3
REMARK    3  A    between atoms: C_19  and  C_20
REMARK    4  A    between atoms: C_20  and  O_22
REMARK    5  A    between atoms: O_22  and  C_23
REMARK                            x       y       z     vdW  Elec       q    Type
REMARK                         _______ _______ _______ _____ _____    ______ ____
ROOT
ATOM      1  C   UNL     1      -6.165  12.660  20.736  0.00  0.00    +0.000 C 
ATOM      2  C   UNL     1      -6.801  14.045  20.529  0.00  0.00    +0.000 C 
ATOM      3  C   UNL     1      -5.742  15.057  21.023  0.00  0.00    +0.000 C 
ATOM      4  C   UNL     1      -5.900  14.591  22.687  0.00  0.00    +0.000 C 
ATOM      5  N   UNL     1      -5.556  13.177  22.997  0.00  0.00    +0.000 NA
ATOM      6  C   UNL     1      -4.741  12.655  24.131  0.00  0.00    +0.000 C 
ATOM      7  C   UNL     1      -3.148  12.481  24.182  0.00  0.00    +0.000 C 
ATOM      8  C   UNL     1      -2.355  12.210  22.892  0.00  0.00    +0.000 A 
ATOM      9  C   UNL     1      -2.544  12.933  21.721  0.00  0.00    +0.000 A 
ATOM     10  N   UNL     1      -1.608  12.617  20.810  0.00  0.00    +0.000 N 
ATOM     11  C   UNL     1      -0.866  11.556  21.289  0.00  0.00    +0.000 A 
ATOM     12  C   UNL     1       0.159  10.844  20.672  0.00  0.00    +0.000 A 
ATOM     13  C   UNL     1       0.687   9.746  21.370  0.00  0.00    +0.000 A 
ATOM     14  C   UNL     1       0.228   9.419  22.622  0.00  0.00    +0.000 A 
ATOM     15  C   UNL     1      -0.773  10.174  23.258  0.00  0.00    +0.000 A 
ATOM     16  C   UNL     1      -1.344  11.261  22.581  0.00  0.00    +0.000 A 
ATOM     17  C   UNL     1      -3.655  13.902  21.659  0.00  0.00    +0.000 C 
ATOM     18  C   UNL     1      -4.167  15.004  20.792  0.00  0.00    +0.000 C 
ATOM     19  C   UNL     1      -4.936  12.769  21.788  0.00  0.00    +0.000 C 
ATOM     20  H   UNL     1      -1.446  13.078  19.913  0.00  0.00    +0.000 HD
ENDROOT
BRANCH   1  22
ATOM     21  C   UNL     1      -7.531  10.404  20.463  0.00  0.00    +0.000 C 
ATOM     22  C   UNL     1      -7.412  11.781  21.072  0.00  0.00    +0.000 C 
ENDBRANCH   1  22
BRANCH  17  23
ATOM     23  C   UNL     1      -2.892  15.016  22.658  0.00  0.00    +0.000 C 
ATOM     24  O   UNL     1      -3.325  15.670  23.579  0.00  0.00    +0.000 OA
BRANCH  23  25
ATOM     25  O   UNL     1      -1.624  15.227  22.095  0.00  0.00    +0.000 OA
ATOM     26  C   UNL     1      -0.906  16.404  22.465  0.00  0.00    +0.000 C 
ENDBRANCH  23  25
ENDBRANCH  17  23
TORSDOF 3
ENDMDL
MODEL 6
REMARK VINA RESULT:      -5.8      9.854     11.710
REMARK  Name = 
REMARK  5 active torsions:
REMARK  status: ('A' for Active; 'I' for Inactive)
REMARK    1  A    between atoms: C_1  and  C_2
REMARK    2  A    between atoms: C_2  and  C_3
REMARK    3  A    between atoms: C_19  and  C_20
REMARK    4  A    between atoms: C_20  and  O_22
REMARK    5  A    between atoms: O_22  and  C_23
REMARK                            x       y       z     vdW  Elec       q    Type
REMARK                         _______ _______ _______ _____ _____    ______ ____
ROOT
ATOM      1  C   UNL     1      -1.066  10.332  19.434  0.00  0.00    +0.000 C 
ATOM      2  C   UNL     1       0.244   9.797  20.037  0.00  0.00    +0.000 C 
ATOM      3  C   UNL     1       0.498  10.664  21.292  0.00  0.00    +0.000 C 
ATOM      4  C   UNL     1       0.828  12.102  20.379  0.00  0.00    +0.000 C 
ATOM      5  N   UNL     1      -0.291  12.600  19.533  0.00  0.00    +0.000 NA
ATOM      6  C   UNL     1      -0.773  14.002  19.376  0.00  0.00    +0.000 C 
ATOM      7  C   UNL     1      -1.846  14.768  20.289  0.00  0.00    +0.000 C 
ATOM      8  C   UNL     1      -2.961  13.983  21.000  0.00  0.00    +0.000 A 
ATOM      9  C   UNL     1      -2.727  12.818  21.719  0.00  0.00    +0.000 A 
ATOM     10  N   UNL     1      -3.831  12.437  22.383  0.00  0.00    +0.000 N 
ATOM     11  C   UNL     1      -4.880  13.247  21.995  0.00  0.00    +0.000 A 
ATOM     12  C   UNL     1      -6.223  13.188  22.356  0.00  0.00    +0.000 A 
ATOM     13  C   UNL     1      -7.094  14.100  21.738  0.00  0.00    +0.000 A 
ATOM     14  C   UNL     1      -6.623  15.029  20.843  0.00  0.00    +0.000 A 
ATOM     15  C   UNL     1      -5.258  15.114  20.522  0.00  0.00    +0.000 A 
ATOM     16  C   UNL     1      -4.362  14.202  21.098  0.00  0.00    +0.000 A 
ATOM     17  C   UNL     1      -1.379  12.219  21.679  0.00  0.00    +0.000 C 
ATOM     18  C   UNL     1      -0.572  11.164  22.360  0.00  0.00    +0.000 C 
ATOM     19  C   UNL     1      -1.372  11.816  20.012  0.00  0.00    +0.000 C 
ATOM     20  H   UNL     1      -3.905  11.687  23.072  0.00  0.00    +0.000 HD
ENDROOT
BRANCH   1  22
ATOM     21  C   UNL     1      -2.006   9.825  17.009  0.00  0.00    +0.000 C 
ATOM     22  C   UNL     1      -0.827  10.117  17.905  0.00  0.00    +0.000 C 
ENDBRANCH   1  22
BRANCH  17  23
ATOM     23  C   UNL     1      -0.699  13.400  22.662  0.00  0.00    +0.000 C 
ATOM     24  O   UNL     1       0.370  13.962  22.589  0.00  0.00    +0.000 OA
BRANCH  23  25
ATOM     25  O   UNL     1      -1.549  13.507  23.773  0.00  0.00    +0.000 OA
ATOM     26  C   UNL     1      -1.549  14.729  24.511  0.00  0.00    +0.000 C 
ENDBRANCH  23  25
ENDBRANCH  17  23
TORSDOF 3
ENDMDL
MODEL 7
REMARK VINA RESULT:      -5.8      8.605     10.842
REMARK  Name = 
REMARK  5 active torsions:
REMARK  status: ('A' for Active; 'I' for Inactive)
REMARK    1  A    between atoms: C_1  and  C_2
REMARK    2  A    between atoms: C_2  and  C_3
REMARK    3  A    between atoms: C_19  and  C_20
REMARK    4  A    between atoms: C_20  and  O_22
REMARK    5  A    between atoms: O_22  and  C_23
REMARK                            x       y       z     vdW  Elec       q    Type
REMARK                         _______ _______ _______ _____ _____    ______ ____
ROOT
ATOM      1  C   UNL     1      -0.375   9.627  21.383  0.00  0.00    +0.000 C 
ATOM      2  C   UNL     1       1.010  10.196  21.736  0.00  0.00    +0.000 C 
ATOM      3  C   UNL     1       1.045  11.606  21.101  0.00  0.00    +0.000 C 
ATOM      4  C   UNL     1       1.065  11.002  19.474  0.00  0.00    +0.000 C 
ATOM      5  N   UNL     1      -0.121  10.200  19.068  0.00  0.00    +0.000 NA
ATOM      6  C   UNL     1      -0.897  10.282  17.798  0.00  0.00    +0.000 C 
ATOM      7  C   UNL     1      -2.127  11.257  17.473  0.00  0.00    +0.000 C 
ATOM      8  C   UNL     1      -3.055  11.738  18.603  0.00  0.00    +0.000 A 
ATOM      9  C   UNL     1      -2.583  12.237  19.810  0.00  0.00    +0.000 A 
ATOM     10  N   UNL     1      -3.588  12.748  20.540  0.00  0.00    +0.000 N 
ATOM     11  C   UNL     1      -4.782  12.458  19.911  0.00  0.00    +0.000 A 
ATOM     12  C   UNL     1      -6.086  12.719  20.325  0.00  0.00    +0.000 A 
ATOM     13  C   UNL     1      -7.125  12.234  19.515  0.00  0.00    +0.000 A 
ATOM     14  C   UNL     1      -6.855  11.560  18.348  0.00  0.00    +0.000 A 
ATOM     15  C   UNL     1      -5.536  11.344  17.914  0.00  0.00    +0.000 A 
ATOM     16  C   UNL     1      -4.471  11.790  18.710  0.00  0.00    +0.000 A 
ATOM     17  C   UNL     1      -1.136  12.165  20.088  0.00  0.00    +0.000 C 
ATOM     18  C   UNL     1      -0.128  12.681  21.061  0.00  0.00    +0.000 C 
ATOM     19  C   UNL     1      -1.011  10.456  20.142  0.00  0.00    +0.000 C 
ATOM     20  H   UNL     1      -3.506  13.277  21.410  0.00  0.00    +0.000 HD
ENDROOT
BRANCH   1  22
ATOM     21  C   UNL     1       1.356   7.655  21.008  0.00  0.00    +0.000 C 
ATOM     22  C   UNL     1      -0.068   8.103  21.236  0.00  0.00    +0.000 C 
ENDBRANCH   1  22
BRANCH  17  23
ATOM     23  C   UNL     1      -0.750  13.393  19.008  0.00  0.00    +0.000 C 
ATOM     24  O   UNL     1      -0.043  13.382  18.026  0.00  0.00    +0.000 OA
BRANCH  23  25
ATOM     25  O   UNL     1      -1.264  14.571  19.570  0.00  0.00    +0.000 OA
ATOM     26  C   UNL     1      -0.599  15.803  19.290  0.00  0.00    +0.000 C 
ENDBRANCH  23  25
ENDBRANCH  17  23
TORSDOF 3
ENDMDL
MODEL 8
REMARK VINA RESULT:      -5.8      2.298      5.951
REMARK  Name = 
REMARK  5 active torsions:
REMARK  status: ('A' for Active; 'I' for Inactive)
REMARK    1  A    between atoms: C_1  and  C_2
REMARK    2  A    between atoms: C_2  and  C_3
REMARK    3  A    between atoms: C_19  and  C_20
REMARK    4  A    between atoms: C_20  and  O_22
REMARK    5  A    between atoms: O_22  and  C_23
REMARK                            x       y       z     vdW  Elec       q    Type
REMARK                         _______ _______ _______ _____ _____    ______ ____
ROOT
ATOM      1  C   UNL     1       2.282   6.952  19.619  0.00  0.00    +0.000 C 
ATOM      2  C   UNL     1       1.764   6.553  21.011  0.00  0.00    +0.000 C 
ATOM      3  C   UNL     1       2.205   5.084  21.204  0.00  0.00    +0.000 C 
ATOM      4  C   UNL     1       1.124   4.476  19.990  0.00  0.00    +0.000 C 
ATOM      5  N   UNL     1       1.351   4.986  18.609  0.00  0.00    +0.000 NA
ATOM      6  C   UNL     1       1.366   4.214  17.334  0.00  0.00    +0.000 C 
ATOM      7  C   UNL     1       2.615   3.455  16.673  0.00  0.00    +0.000 C 
ATOM      8  C   UNL     1       4.047   3.964  16.912  0.00  0.00    +0.000 A 
ATOM      9  C   UNL     1       4.530   4.305  18.168  0.00  0.00    +0.000 A 
ATOM     10  N   UNL     1       5.851   4.544  18.123  0.00  0.00    +0.000 N 
ATOM     11  C   UNL     1       6.257   4.527  16.803  0.00  0.00    +0.000 A 
ATOM     12  C   UNL     1       7.512   4.791  16.260  0.00  0.00    +0.000 A 
ATOM     13  C   UNL     1       7.620   4.780  14.861  0.00  0.00    +0.000 A 
ATOM     14  C   UNL     1       6.535   4.487  14.071  0.00  0.00    +0.000 A 
ATOM     15  C   UNL     1       5.284   4.174  14.629  0.00  0.00    +0.000 A 
ATOM     16  C   UNL     1       5.130   4.201  16.023  0.00  0.00    +0.000 A 
ATOM     17  C   UNL     1       3.590   4.327  19.306  0.00  0.00    +0.000 C 
ATOM     18  C   UNL     1       3.596   4.426  20.796  0.00  0.00    +0.000 C 
ATOM     19  C   UNL     1       2.611   5.621  18.751  0.00  0.00    +0.000 C 
ATOM     20  H   UNL     1       6.474   4.701  18.917  0.00  0.00    +0.000 HD
ENDROOT
BRANCH   1  22
ATOM     21  C   UNL     1       1.549   9.047  18.170  0.00  0.00    +0.000 C 
ATOM     22  C   UNL     1       1.180   7.951  19.140  0.00  0.00    +0.000 C 
ENDBRANCH   1  22
BRANCH  17  23
ATOM     23  C   UNL     1       3.481   2.654  19.398  0.00  0.00    +0.000 C 
ATOM     24  O   UNL     1       2.512   1.930  19.407  0.00  0.00    +0.000 OA
BRANCH  23  25
ATOM     25  O   UNL     1       4.781   2.201  19.672  0.00  0.00    +0.000 OA
ATOM     26  C   UNL     1       4.970   1.309  20.771  0.00  0.00    +0.000 C 
ENDBRANCH  23  25
ENDBRANCH  17  23
TORSDOF 3
ENDMDL
MODEL 9
REMARK VINA RESULT:      -5.7      9.192     11.305
REMARK  Name = 
REMARK  5 active torsions:
REMARK  status: ('A' for Active; 'I' for Inactive)
REMARK    1  A    between atoms: C_1  and  C_2
REMARK    2  A    between atoms: C_2  and  C_3
REMARK    3  A    between atoms: C_19  and  C_20
REMARK    4  A    between atoms: C_20  and  O_22
REMARK    5  A    between atoms: O_22  and  C_23
REMARK                            x       y       z     vdW  Elec       q    Type
REMARK                         _______ _______ _______ _____ _____    ______ ____
ROOT
ATOM      1  C   UNL     1       0.451  15.144  18.759  0.00  0.00    +0.000 C 
ATOM      2  C   UNL     1       1.923  14.850  19.094  0.00  0.00    +0.000 C 
ATOM      3  C   UNL     1       1.910  13.485  19.822  0.00  0.00    +0.000 C 
ATOM      4  C   UNL     1       1.111  14.110  21.230  0.00  0.00    +0.000 C 
ATOM      5  N   UNL     1      -0.248  14.672  21.005  0.00  0.00    +0.000 NA
ATOM      6  C   UNL     1      -1.478  14.463  21.821  0.00  0.00    +0.000 C 
ATOM      7  C   UNL     1      -2.543  13.272  21.683  0.00  0.00    +0.000 C 
ATOM      8  C   UNL     1      -2.784  12.600  20.321  0.00  0.00    +0.000 A 
ATOM      9  C   UNL     1      -1.753  12.182  19.489  0.00  0.00    +0.000 A 
ATOM     10  N   UNL     1      -2.232  11.472  18.455  0.00  0.00    +0.000 N 
ATOM     11  C   UNL     1      -3.612  11.534  18.479  0.00  0.00    +0.000 A 
ATOM     12  C   UNL     1      -4.536  11.016  17.575  0.00  0.00    +0.000 A 
ATOM     13  C   UNL     1      -5.890  11.304  17.807  0.00  0.00    +0.000 A 
ATOM     14  C   UNL     1      -6.278  12.037  18.902  0.00  0.00    +0.000 A 
ATOM     15  C   UNL     1      -5.342  12.515  19.836  0.00  0.00    +0.000 A 
ATOM     16  C   UNL     1      -3.977  12.270  19.623  0.00  0.00    +0.000 A 
ATOM     17  C   UNL     1      -0.366  12.529  19.853  0.00  0.00    +0.000 C 
ATOM     18  C   UNL     1       1.038  12.202  19.463  0.00  0.00    +0.000 C 
ATOM     19  C   UNL     1      -0.518  14.229  19.685  0.00  0.00    +0.000 C 
ATOM     20  H   UNL     1      -1.689  10.954  17.763  0.00  0.00    +0.000 HD
ENDROOT
BRANCH   1  22
ATOM     21  C   UNL     1      -0.458  17.482  17.903  0.00  0.00    +0.000 C 
ATOM     22  C   UNL     1       0.401  16.701  18.869  0.00  0.00    +0.000 C 
ENDBRANCH   1  22
BRANCH  17  23
ATOM     23  C   UNL     1      -0.295  11.419  21.112  0.00  0.00    +0.000 C 
ATOM     24  O   UNL     1       0.061  11.556  22.260  0.00  0.00    +0.000 OA
BRANCH  23  25
ATOM     25  O   UNL     1      -0.555  10.168  20.533  0.00  0.00    +0.000 OA
ATOM     26  C   UNL     1      -0.188   8.995  21.259  0.00  0.00    +0.000 C 
ENDBRANCH  23  25
ENDBRANCH  17  23
TORSDOF 3
ENDMDL
