MODEL 1
REMARK VINA RESULT:      -6.1      0.000      0.000
REMARK  Name = 
REMARK  6 active torsions:
REMARK  status: ('A' for Active; 'I' for Inactive)
REMARK    1  A    between atoms: C_1  and  C_2
REMARK    2  A    between atoms: C_2  and  C_3
REMARK    3  A    between atoms: C_3  and  C_4
REMARK    4  A    between atoms: C_3  and  C_5
REMARK    5  A    between atoms: C_3  and  N_6
REMARK    6  A    between atoms: C_7  and  C_9
REMARK                            x       y       z     vdW  Elec       q    Type
REMARK                         _______ _______ _______ _____ _____    ______ ____
ROOT
ATOM      1  N   UNL     1       4.120   4.015  18.083  0.00  0.00    +0.000 N 
ATOM      2  C   UNL     1       5.453   4.368  18.211  0.00  0.00    +0.000 C 
ATOM      3  O   UNL     1       5.998   4.414  19.312  0.00  0.00    +0.000 OA
ATOM      4  H   UNL     1       3.740   3.969  17.146  0.00  0.00    +0.000 HD
ENDROOT
BRANCH   2   5
ATOM      5  C   UNL     1       6.157   4.694  16.990  0.00  0.00    +0.000 A 
ATOM      6  S   UNL     1       5.943   3.806  15.534  0.00  0.00    +0.000 S 
ATOM      7  C   UNL     1       7.007   4.881  14.739  0.00  0.00    +0.000 A 
ATOM      8  N   UNL     1       7.545   5.820  15.479  0.00  0.00    +0.000 NA
ATOM      9  C   UNL     1       7.067   5.716  16.777  0.00  0.00    +0.000 A 
ATOM     10 CL   UNL     1       7.623   6.851  17.940  0.00  0.00    +0.000 Cl
ENDBRANCH   2   5
BRANCH   1  11
ATOM     11  C   UNL     1       3.242   3.699  19.221  0.00  0.00    +0.000 C 
ATOM     12  C   UNL     1       3.073   4.934  20.131  0.00  0.00    +0.000 C 
ATOM     13  C   UNL     1       3.848   2.524  20.024  0.00  0.00    +0.000 C 
BRANCH  11  15
ATOM     14  C   UNL     1       0.792   3.003  19.778  0.00  0.00    +0.000 C 
ATOM     15  C   UNL     1       1.846   3.247  18.700  0.00  0.00    +0.000 C 
ENDBRANCH  11  15
ENDBRANCH   1  11
TORSDOF 3
ENDMDL
MODEL 2
REMARK VINA RESULT:      -6.1      0.634      1.503
REMARK  Name = 
REMARK  6 active torsions:
REMARK  status: ('A' for Active; 'I' for Inactive)
REMARK    1  A    between atoms: C_1  and  C_2
REMARK    2  A    between atoms: C_2  and  C_3
REMARK    3  A    between atoms: C_3  and  C_4
REMARK    4  A    between atoms: C_3  and  C_5
REMARK    5  A    between atoms: C_3  and  N_6
REMARK    6  A    between atoms: C_7  and  C_9
REMARK                            x       y       z     vdW  Elec       q    Type
REMARK                         _______ _______ _______ _____ _____    ______ ____
ROOT
ATOM      1  N   UNL     1       3.882   4.184  17.889  0.00  0.00    +0.000 N 
ATOM      2  C   UNL     1       5.252   4.248  18.079  0.00  0.00    +0.000 C 
ATOM      3  O   UNL     1       5.756   4.013  19.176  0.00  0.00    +0.000 OA
ATOM      4  H   UNL     1       3.534   4.361  16.954  0.00  0.00    +0.000 HD
ENDROOT
BRANCH   2   5
ATOM      5  C   UNL     1       6.049   4.620  16.931  0.00  0.00    +0.000 A 
ATOM      6  S   UNL     1       5.880   3.855  15.400  0.00  0.00    +0.000 S 
ATOM      7  C   UNL     1       7.050   4.921  14.755  0.00  0.00    +0.000 A 
ATOM      8  N   UNL     1       7.590   5.769  15.595  0.00  0.00    +0.000 NA
ATOM      9  C   UNL     1       7.026   5.599  16.851  0.00  0.00    +0.000 A 
ATOM     10 CL   UNL     1       7.568   6.610  18.128  0.00  0.00    +0.000 Cl
ENDBRANCH   2   5
BRANCH   1  11
ATOM     11  C   UNL     1       2.919   3.869  18.957  0.00  0.00    +0.000 C 
ATOM     12  C   UNL     1       3.174   2.453  19.512  0.00  0.00    +0.000 C 
ATOM     13  C   UNL     1       1.482   3.971  18.393  0.00  0.00    +0.000 C 
BRANCH  11  15
ATOM     14  C   UNL     1       1.734   5.477  20.631  0.00  0.00    +0.000 C 
ATOM     15  C   UNL     1       3.052   4.908  20.108  0.00  0.00    +0.000 C 
ENDBRANCH  11  15
ENDBRANCH   1  11
TORSDOF 3
ENDMDL
MODEL 3
REMARK VINA RESULT:      -5.9      2.962      5.645
REMARK  Name = 
REMARK  6 active torsions:
REMARK  status: ('A' for Active; 'I' for Inactive)
REMARK    1  A    between atoms: C_1  and  C_2
REMARK    2  A    between atoms: C_2  and  C_3
REMARK    3  A    between atoms: C_3  and  C_4
REMARK    4  A    between atoms: C_3  and  C_5
REMARK    5  A    between atoms: C_3  and  N_6
REMARK    6  A    between atoms: C_7  and  C_9
REMARK                            x       y       z     vdW  Elec       q    Type
REMARK                         _______ _______ _______ _____ _____    ______ ____
ROOT
ATOM      1  N   UNL     1       5.037   5.336  18.424  0.00  0.00    +0.000 N 
ATOM      2  C   UNL     1       4.674   4.206  19.138  0.00  0.00    +0.000 C 
ATOM      3  O   UNL     1       5.512   3.380  19.493  0.00  0.00    +0.000 OA
ATOM      4  H   UNL     1       4.303   5.991  18.186  0.00  0.00    +0.000 HD
ENDROOT
BRANCH   2   5
ATOM      5  C   UNL     1       3.265   4.046  19.424  0.00  0.00    +0.000 A 
ATOM      6  S   UNL     1       2.444   5.003  20.593  0.00  0.00    +0.000 S 
ATOM      7  C   UNL     1       0.982   4.218  20.188  0.00  0.00    +0.000 A 
ATOM      8  N   UNL     1       1.062   3.269  19.287  0.00  0.00    +0.000 NA
ATOM      9  C   UNL     1       2.373   3.158  18.847  0.00  0.00    +0.000 A 
ATOM     10 CL   UNL     1       2.730   1.981  17.649  0.00  0.00    +0.000 Cl
ENDBRANCH   2   5
BRANCH   1  11
ATOM     11  C   UNL     1       6.417   5.633  18.005  0.00  0.00    +0.000 C 
ATOM     12  C   UNL     1       6.931   4.551  17.034  0.00  0.00    +0.000 C 
ATOM     13  C   UNL     1       7.325   5.706  19.254  0.00  0.00    +0.000 C 
BRANCH  11  15
ATOM     14  C   UNL     1       7.709   7.860  17.594  0.00  0.00    +0.000 C 
ATOM     15  C   UNL     1       6.465   7.022  17.302  0.00  0.00    +0.000 C 
ENDBRANCH  11  15
ENDBRANCH   1  11
TORSDOF 3
ENDMDL
MODEL 4
REMARK VINA RESULT:      -5.9      1.355      1.441
REMARK  Name = 
REMARK  6 active torsions:
REMARK  status: ('A' for Active; 'I' for Inactive)
REMARK    1  A    between atoms: C_1  and  C_2
REMARK    2  A    between atoms: C_2  and  C_3
REMARK    3  A    between atoms: C_3  and  C_4
REMARK    4  A    between atoms: C_3  and  C_5
REMARK    5  A    between atoms: C_3  and  N_6
REMARK    6  A    between atoms: C_7  and  C_9
REMARK                            x       y       z     vdW  Elec       q    Type
REMARK                         _______ _______ _______ _____ _____    ______ ____
ROOT
ATOM      1  N   UNL     1       4.601   3.197  17.359  0.00  0.00    +0.000 N 
ATOM      2  C   UNL     1       4.734   4.493  16.887  0.00  0.00    +0.000 C 
ATOM      3  O   UNL     1       3.997   5.394  17.281  0.00  0.00    +0.000 OA
ATOM      4  H   UNL     1       5.258   2.508  17.015  0.00  0.00    +0.000 HD
ENDROOT
BRANCH   2   5
ATOM      5  C   UNL     1       5.767   4.720  15.900  0.00  0.00    +0.000 A 
ATOM      6  S   UNL     1       5.717   4.021  14.330  0.00  0.00    +0.000 S 
ATOM      7  C   UNL     1       7.156   4.851  13.931  0.00  0.00    +0.000 A 
ATOM      8  N   UNL     1       7.697   5.570  14.884  0.00  0.00    +0.000 NA
ATOM      9  C   UNL     1       6.908   5.495  16.023  0.00  0.00    +0.000 A 
ATOM     10 CL   UNL     1       7.408   6.368  17.415  0.00  0.00    +0.000 Cl
ENDBRANCH   2   5
BRANCH   1  11
ATOM     11  C   UNL     1       3.574   2.778  18.327  0.00  0.00    +0.000 C 
ATOM     12  C   UNL     1       3.788   3.485  19.680  0.00  0.00    +0.000 C 
ATOM     13  C   UNL     1       3.642   1.243  18.509  0.00  0.00    +0.000 C 
BRANCH  11  15
ATOM     14  C   UNL     1       1.176   3.679  18.809  0.00  0.00    +0.000 C 
ATOM     15  C   UNL     1       2.160   3.128  17.778  0.00  0.00    +0.000 C 
ENDBRANCH  11  15
ENDBRANCH   1  11
TORSDOF 3
ENDMDL
MODEL 5
REMARK VINA RESULT:      -5.9      2.350      5.188
REMARK  Name = 
REMARK  6 active torsions:
REMARK  status: ('A' for Active; 'I' for Inactive)
REMARK    1  A    between atoms: C_1  and  C_2
REMARK    2  A    between atoms: C_2  and  C_3
REMARK    3  A    between atoms: C_3  and  C_4
REMARK    4  A    between atoms: C_3  and  C_5
REMARK    5  A    between atoms: C_3  and  N_6
REMARK    6  A    between atoms: C_7  and  C_9
REMARK                            x       y       z     vdW  Elec       q    Type
REMARK                         _______ _______ _______ _____ _____    ______ ____
ROOT
ATOM      1  N   UNL     1       5.346   4.565  17.047  0.00  0.00    +0.000 N 
ATOM      2  C   UNL     1       4.941   4.141  18.302  0.00  0.00    +0.000 C 
ATOM      3  O   UNL     1       5.676   4.254  19.281  0.00  0.00    +0.000 OA
ATOM      4  H   UNL     1       4.682   4.469  16.288  0.00  0.00    +0.000 HD
ENDROOT
BRANCH   2   5
ATOM      5  C   UNL     1       3.624   3.550  18.393  0.00  0.00    +0.000 A 
ATOM      6  S   UNL     1       3.381   1.860  18.594  0.00  0.00    +0.000 S 
ATOM      7  C   UNL     1       1.695   2.126  18.670  0.00  0.00    +0.000 A 
ATOM      8  N   UNL     1       1.294   3.364  18.513  0.00  0.00    +0.000 NA
ATOM      9  C   UNL     1       2.397   4.189  18.346  0.00  0.00    +0.000 A 
ATOM     10 CL   UNL     1       2.126   5.871  18.130  0.00  0.00    +0.000 Cl
ENDBRANCH   2   5
BRANCH   1  11
ATOM     11  C   UNL     1       6.669   5.144  16.764  0.00  0.00    +0.000 C 
ATOM     12  C   UNL     1       7.757   4.438  17.598  0.00  0.00    +0.000 C 
ATOM     13  C   UNL     1       6.644   6.656  17.089  0.00  0.00    +0.000 C 
BRANCH  11  15
ATOM     14  C   UNL     1       6.078   4.049  14.473  0.00  0.00    +0.000 C 
ATOM     15  C   UNL     1       6.997   4.990  15.250  0.00  0.00    +0.000 C 
ENDBRANCH  11  15
ENDBRANCH   1  11
TORSDOF 3
ENDMDL
MODEL 6
REMARK VINA RESULT:      -5.9      2.546      5.341
REMARK  Name = 
REMARK  6 active torsions:
REMARK  status: ('A' for Active; 'I' for Inactive)
REMARK    1  A    between atoms: C_1  and  C_2
REMARK    2  A    between atoms: C_2  and  C_3
REMARK    3  A    between atoms: C_3  and  C_4
REMARK    4  A    between atoms: C_3  and  C_5
REMARK    5  A    between atoms: C_3  and  N_6
REMARK    6  A    between atoms: C_7  and  C_9
REMARK                            x       y       z     vdW  Elec       q    Type
REMARK                         _______ _______ _______ _____ _____    ______ ____
ROOT
ATOM      1  N   UNL     1       5.005   5.034  18.115  0.00  0.00    +0.000 N 
ATOM      2  C   UNL     1       4.640   3.947  18.891  0.00  0.00    +0.000 C 
ATOM      3  O   UNL     1       5.473   3.319  19.541  0.00  0.00    +0.000 OA
ATOM      4  H   UNL     1       4.267   5.525  17.626  0.00  0.00    +0.000 HD
ENDROOT
BRANCH   2   5
ATOM      5  C   UNL     1       3.240   3.586  18.883  0.00  0.00    +0.000 A 
ATOM      6  S   UNL     1       2.638   2.235  18.005  0.00  0.00    +0.000 S 
ATOM      7  C   UNL     1       1.075   2.550  18.620  0.00  0.00    +0.000 A 
ATOM      8  N   UNL     1       0.954   3.605  19.388  0.00  0.00    +0.000 NA
ATOM      9  C   UNL     1       2.193   4.211  19.539  0.00  0.00    +0.000 A 
ATOM     10 CL   UNL     1       2.294   5.619  20.518  0.00  0.00    +0.000 Cl
ENDBRANCH   2   5
BRANCH   1  11
ATOM     11  C   UNL     1       6.391   5.510  17.968  0.00  0.00    +0.000 C 
ATOM     12  C   UNL     1       7.206   4.537  17.092  0.00  0.00    +0.000 C 
ATOM     13  C   UNL     1       7.037   5.637  19.368  0.00  0.00    +0.000 C 
BRANCH  11  15
ATOM     14  C   UNL     1       7.670   7.738  17.528  0.00  0.00    +0.000 C 
ATOM     15  C   UNL     1       6.396   6.923  17.314  0.00  0.00    +0.000 C 
ENDBRANCH  11  15
ENDBRANCH   1  11
TORSDOF 3
ENDMDL
MODEL 7
REMARK VINA RESULT:      -5.9      2.117      2.529
REMARK  Name = 
REMARK  6 active torsions:
REMARK  status: ('A' for Active; 'I' for Inactive)
REMARK    1  A    between atoms: C_1  and  C_2
REMARK    2  A    between atoms: C_2  and  C_3
REMARK    3  A    between atoms: C_3  and  C_4
REMARK    4  A    between atoms: C_3  and  C_5
REMARK    5  A    between atoms: C_3  and  N_6
REMARK    6  A    between atoms: C_7  and  C_9
REMARK                            x       y       z     vdW  Elec       q    Type
REMARK                         _______ _______ _______ _____ _____    ______ ____
ROOT
ATOM      1  N   UNL     1       3.823   4.630  19.067  0.00  0.00    +0.000 N 
ATOM      2  C   UNL     1       4.672   4.511  17.980  0.00  0.00    +0.000 C 
ATOM      3  O   UNL     1       4.515   3.627  17.141  0.00  0.00    +0.000 OA
ATOM      4  H   UNL     1       3.991   5.397  19.706  0.00  0.00    +0.000 HD
ENDROOT
BRANCH   2   5
ATOM      5  C   UNL     1       5.756   5.466  17.897  0.00  0.00    +0.000 A 
ATOM      6  S   UNL     1       6.991   5.570  19.088  0.00  0.00    +0.000 S 
ATOM      7  C   UNL     1       7.757   6.788  18.167  0.00  0.00    +0.000 A 
ATOM      8  N   UNL     1       7.146   7.156  17.068  0.00  0.00    +0.000 NA
ATOM      9  C   UNL     1       5.990   6.406  16.907  0.00  0.00    +0.000 A 
ATOM     10 CL   UNL     1       5.016   6.702  15.524  0.00  0.00    +0.000 Cl
ENDBRANCH   2   5
BRANCH   1  11
ATOM     11  C   UNL     1       2.700   3.716  19.334  0.00  0.00    +0.000 C 
ATOM     12  C   UNL     1       3.179   2.250  19.311  0.00  0.00    +0.000 C 
ATOM     13  C   UNL     1       1.600   3.935  18.269  0.00  0.00    +0.000 C 
BRANCH  11  15
ATOM     14  C   UNL     1       1.581   2.826  21.514  0.00  0.00    +0.000 C 
ATOM     15  C   UNL     1       2.082   4.036  20.727  0.00  0.00    +0.000 C 
ENDBRANCH  11  15
ENDBRANCH   1  11
TORSDOF 3
ENDMDL
MODEL 8
REMARK VINA RESULT:      -5.8      2.390      5.343
REMARK  Name = 
REMARK  6 active torsions:
REMARK  status: ('A' for Active; 'I' for Inactive)
REMARK    1  A    between atoms: C_1  and  C_2
REMARK    2  A    between atoms: C_2  and  C_3
REMARK    3  A    between atoms: C_3  and  C_4
REMARK    4  A    between atoms: C_3  and  C_5
REMARK    5  A    between atoms: C_3  and  N_6
REMARK    6  A    between atoms: C_7  and  C_9
REMARK                            x       y       z     vdW  Elec       q    Type
REMARK                         _______ _______ _______ _____ _____    ______ ____
ROOT
ATOM      1  N   UNL     1       5.254   4.431  17.285  0.00  0.00    +0.000 N 
ATOM      2  C   UNL     1       4.708   4.532  18.553  0.00  0.00    +0.000 C 
ATOM      3  O   UNL     1       5.231   5.230  19.419  0.00  0.00    +0.000 OA
ATOM      4  H   UNL     1       4.759   3.861  16.609  0.00  0.00    +0.000 HD
ENDROOT
BRANCH   2   5
ATOM      5  C   UNL     1       3.508   3.763  18.805  0.00  0.00    +0.000 A 
ATOM      6  S   UNL     1       3.324   2.137  18.278  0.00  0.00    +0.000 S 
ATOM      7  C   UNL     1       1.794   2.080  19.037  0.00  0.00    +0.000 A 
ATOM      8  N   UNL     1       1.388   3.186  19.611  0.00  0.00    +0.000 NA
ATOM      9  C   UNL     1       2.365   4.162  19.477  0.00  0.00    +0.000 A 
ATOM     10 CL   UNL     1       2.067   5.708  20.162  0.00  0.00    +0.000 Cl
ENDBRANCH   2   5
BRANCH   1  11
ATOM     11  C   UNL     1       6.496   5.104  16.870  0.00  0.00    +0.000 C 
ATOM     12  C   UNL     1       6.813   4.789  15.394  0.00  0.00    +0.000 C 
ATOM     13  C   UNL     1       7.658   4.636  17.778  0.00  0.00    +0.000 C 
BRANCH  11  15
ATOM     14  C   UNL     1       7.580   7.363  17.589  0.00  0.00    +0.000 C 
ATOM     15  C   UNL     1       6.346   6.643  17.050  0.00  0.00    +0.000 C 
ENDBRANCH  11  15
ENDBRANCH   1  11
TORSDOF 3
ENDMDL
MODEL 9
REMARK VINA RESULT:      -5.8      1.239      1.759
REMARK  Name = 
REMARK  6 active torsions:
REMARK  status: ('A' for Active; 'I' for Inactive)
REMARK    1  A    between atoms: C_1  and  C_2
REMARK    2  A    between atoms: C_2  and  C_3
REMARK    3  A    between atoms: C_3  and  C_4
REMARK    4  A    between atoms: C_3  and  C_5
REMARK    5  A    between atoms: C_3  and  N_6
REMARK    6  A    between atoms: C_7  and  C_9
REMARK                            x       y       z     vdW  Elec       q    Type
REMARK                         _______ _______ _______ _____ _____    ______ ____
ROOT
ATOM      1  N   UNL     1       3.585   3.597  18.360  0.00  0.00    +0.000 N 
ATOM      2  C   UNL     1       4.603   4.516  18.554  0.00  0.00    +0.000 C 
ATOM      3  O   UNL     1       4.617   5.253  19.538  0.00  0.00    +0.000 OA
ATOM      4  H   UNL     1       3.647   3.000  17.544  0.00  0.00    +0.000 HD
ENDROOT
BRANCH   2   5
ATOM      5  C   UNL     1       5.629   4.571  17.536  0.00  0.00    +0.000 A 
ATOM      6  S   UNL     1       5.347   4.085  15.911  0.00  0.00    +0.000 S 
ATOM      7  C   UNL     1       6.942   4.548  15.511  0.00  0.00    +0.000 A 
ATOM      8  N   UNL     1       7.683   4.992  16.497  0.00  0.00    +0.000 NA
ATOM      9  C   UNL     1       6.938   5.002  17.667  0.00  0.00    +0.000 A 
ATOM     10 CL   UNL     1       7.694   5.557  19.106  0.00  0.00    +0.000 Cl
ENDBRANCH   2   5
BRANCH   1  11
ATOM     11  C   UNL     1       2.437   3.439  19.268  0.00  0.00    +0.000 C 
ATOM     12  C   UNL     1       1.378   2.508  18.642  0.00  0.00    +0.000 C 
ATOM     13  C   UNL     1       1.822   4.828  19.559  0.00  0.00    +0.000 C 
BRANCH  11  15
ATOM     14  C   UNL     1       1.858   2.779  21.723  0.00  0.00    +0.000 C 
ATOM     15  C   UNL     1       2.916   2.839  20.623  0.00  0.00    +0.000 C 
ENDBRANCH  11  15
ENDBRANCH   1  11
TORSDOF 3
ENDMDL
