MODEL 1
REMARK VINA RESULT:      -9.2      0.000      0.000
REMARK  Name = 
REMARK  3 active torsions:
REMARK  status: ('A' for Active; 'I' for Inactive)
REMARK    1  A    between atoms: C_9  and  C_10
REMARK    2  A    between atoms: N_18  and  C_19
REMARK    3  A    between atoms: C_19  and  C_20
REMARK                            x       y       z     vdW  Elec       q    Type
REMARK                         _______ _______ _______ _____ _____    ______ ____
ROOT
ATOM      1  O   UNL     1       2.356   3.268  16.585  0.00  0.00    +0.000 OA
ATOM      2  C   UNL     1       2.587   4.060  17.492  0.00  0.00    +0.000 C 
ATOM      3  C   UNL     1       2.389   3.716  18.940  0.00  0.00    +0.000 C 
ATOM      4  C   UNL     1       1.429   2.587  19.315  0.00  0.00    +0.000 C 
ATOM      5  C   UNL     1       1.638   2.245  20.805  0.00  0.00    +0.000 C 
ATOM      6  C   UNL     1       1.628   3.474  21.735  0.00  0.00    +0.000 C 
ATOM      7  C   UNL     1       2.474   4.630  21.192  0.00  0.00    +0.000 C 
ATOM      8  C   UNL     1       1.991   4.922  19.763  0.00  0.00    +0.000 C 
ATOM      9  C   UNL     1       2.430   6.253  19.194  0.00  0.00    +0.000 C 
ATOM     10  N   UNL     1       3.202   6.337  18.154  0.00  0.00    +0.000 NA
ATOM     11  N   UNL     1       3.401   5.204  17.366  0.00  0.00    +0.000 N 
ENDROOT
BRANCH   9  12
ATOM     12  C   UNL     1       1.850   7.494  19.818  0.00  0.00    +0.000 A 
ATOM     13  C   UNL     1       1.239   7.450  21.087  0.00  0.00    +0.000 A 
ATOM     14  C   UNL     1       0.509   8.532  21.578  0.00  0.00    +0.000 A 
ATOM     15  C   UNL     1       0.378   9.676  20.800  0.00  0.00    +0.000 A 
ATOM     16  C   UNL     1       1.011   9.744  19.558  0.00  0.00    +0.000 A 
ATOM     17 CL   UNL     1       0.814  11.156  18.594  0.00  0.00    +0.000 Cl
ATOM     18  C   UNL     1       1.757   8.669  19.069  0.00  0.00    +0.000 A 
ENDBRANCH   9  12
BRANCH  11  19
ATOM     19  C   UNL     1       4.772   4.937  16.962  0.00  0.00    +0.000 C 
BRANCH  19  20
ATOM     20  C   UNL     1       5.865   5.715  17.635  0.00  0.00    +0.000 A 
ATOM     21  C   UNL     1       6.463   5.213  18.802  0.00  0.00    +0.000 A 
ATOM     22  C   UNL     1       7.626   5.791  19.308  0.00  0.00    +0.000 A 
ATOM     23  C   UNL     1       8.195   6.887  18.664  0.00  0.00    +0.000 A 
ATOM     24  C   UNL     1       7.582   7.428  17.534  0.00  0.00    +0.000 A 
ATOM     25  C   UNL     1       6.419   6.850  17.024  0.00  0.00    +0.000 A 
ENDBRANCH  19  20
ENDBRANCH  11  19
TORSDOF 3
ENDMDL
MODEL 2
REMARK VINA RESULT:      -9.0      2.878      6.200
REMARK  Name = 
REMARK  3 active torsions:
REMARK  status: ('A' for Active; 'I' for Inactive)
REMARK    1  A    between atoms: C_9  and  C_10
REMARK    2  A    between atoms: N_18  and  C_19
REMARK    3  A    between atoms: C_19  and  C_20
REMARK                            x       y       z     vdW  Elec       q    Type
REMARK                         _______ _______ _______ _____ _____    ______ ____
ROOT
ATOM      1  O   UNL     1       1.838   7.857  20.623  0.00  0.00    +0.000 OA
ATOM      2  C   UNL     1       2.187   7.195  19.651  0.00  0.00    +0.000 C 
ATOM      3  C   UNL     1       1.833   5.745  19.488  0.00  0.00    +0.000 C 
ATOM      4  C   UNL     1       1.482   4.918  20.725  0.00  0.00    +0.000 C 
ATOM      5  C   UNL     1       0.877   3.577  20.258  0.00  0.00    +0.000 C 
ATOM      6  C   UNL     1       1.710   2.857  19.180  0.00  0.00    +0.000 C 
ATOM      7  C   UNL     1       2.176   3.801  18.067  0.00  0.00    +0.000 C 
ATOM      8  C   UNL     1       2.900   4.979  18.736  0.00  0.00    +0.000 C 
ATOM      9  C   UNL     1       3.753   5.820  17.811  0.00  0.00    +0.000 C 
ATOM     10  N   UNL     1       3.496   7.072  17.585  0.00  0.00    +0.000 NA
ATOM     11  N   UNL     1       2.602   7.741  18.421  0.00  0.00    +0.000 N 
ENDROOT
BRANCH   9  12
ATOM     12  C   UNL     1       4.986   5.176  17.236  0.00  0.00    +0.000 A 
ATOM     13  C   UNL     1       6.191   5.136  17.966  0.00  0.00    +0.000 A 
ATOM     14  C   UNL     1       7.388   4.745  17.368  0.00  0.00    +0.000 A 
ATOM     15  C   UNL     1       7.396   4.392  16.024  0.00  0.00    +0.000 A 
ATOM     16  C   UNL     1       6.202   4.392  15.302  0.00  0.00    +0.000 A 
ATOM     17 CL   UNL     1       6.234   3.980  13.631  0.00  0.00    +0.000 Cl
ATOM     18  C   UNL     1       4.996   4.767  15.901  0.00  0.00    +0.000 A 
ENDBRANCH   9  12
BRANCH  11  19
ATOM     19  C   UNL     1       1.617   8.583  17.761  0.00  0.00    +0.000 C 
BRANCH  19  20
ATOM     20  C   UNL     1       1.419   9.974  18.289  0.00  0.00    +0.000 A 
ATOM     21  C   UNL     1       2.410  10.947  18.082  0.00  0.00    +0.000 A 
ATOM     22  C   UNL     1       2.153  12.291  18.351  0.00  0.00    +0.000 A 
ATOM     23  C   UNL     1       0.909  12.675  18.844  0.00  0.00    +0.000 A 
ATOM     24  C   UNL     1      -0.067  11.712  19.102  0.00  0.00    +0.000 A 
ATOM     25  C   UNL     1       0.187  10.367  18.833  0.00  0.00    +0.000 A 
ENDBRANCH  19  20
ENDBRANCH  11  19
TORSDOF 3
ENDMDL
MODEL 3
REMARK VINA RESULT:      -8.9      1.006      1.390
REMARK  Name = 
REMARK  3 active torsions:
REMARK  status: ('A' for Active; 'I' for Inactive)
REMARK    1  A    between atoms: C_9  and  C_10
REMARK    2  A    between atoms: N_18  and  C_19
REMARK    3  A    between atoms: C_19  and  C_20
REMARK                            x       y       z     vdW  Elec       q    Type
REMARK                         _______ _______ _______ _____ _____    ______ ____
ROOT
ATOM      1  O   UNL     1       2.710   2.951  16.565  0.00  0.00    +0.000 OA
ATOM      2  C   UNL     1       2.842   3.851  17.388  0.00  0.00    +0.000 C 
ATOM      3  C   UNL     1       2.538   3.666  18.847  0.00  0.00    +0.000 C 
ATOM      4  C   UNL     1       1.586   2.550  19.277  0.00  0.00    +0.000 C 
ATOM      5  C   UNL     1       1.683   2.390  20.808  0.00  0.00    +0.000 C 
ATOM      6  C   UNL     1       1.560   3.716  21.584  0.00  0.00    +0.000 C 
ATOM      7  C   UNL     1       2.411   4.835  20.976  0.00  0.00    +0.000 C 
ATOM      8  C   UNL     1       2.037   4.942  19.490  0.00  0.00    +0.000 C 
ATOM      9  C   UNL     1       2.480   6.215  18.805  0.00  0.00    +0.000 C 
ATOM     10  N   UNL     1       3.331   6.211  17.824  0.00  0.00    +0.000 NA
ATOM     11  N   UNL     1       3.628   5.004  17.192  0.00  0.00    +0.000 N 
ENDROOT
BRANCH   9  12
ATOM     12  C   UNL     1       1.814   7.495  19.232  0.00  0.00    +0.000 A 
ATOM     13  C   UNL     1       1.679   8.577  18.338  0.00  0.00    +0.000 A 
ATOM     14  C   UNL     1       1.268   9.834  18.778  0.00  0.00    +0.000 A 
ATOM     15  C   UNL     1       0.990  10.029  20.125  0.00  0.00    +0.000 A 
ATOM     16  C   UNL     1       1.084   8.956  21.013  0.00  0.00    +0.000 A 
ATOM     17 CL   UNL     1       0.764   9.220  22.683  0.00  0.00    +0.000 Cl
ATOM     18  C   UNL     1       1.480   7.689  20.575  0.00  0.00    +0.000 A 
ENDBRANCH   9  12
BRANCH  11  19
ATOM     19  C   UNL     1       5.035   4.747  16.929  0.00  0.00    +0.000 C 
BRANCH  19  20
ATOM     20  C   UNL     1       6.047   5.619  17.615  0.00  0.00    +0.000 A 
ATOM     21  C   UNL     1       6.674   5.170  18.789  0.00  0.00    +0.000 A 
ATOM     22  C   UNL     1       7.774   5.849  19.309  0.00  0.00    +0.000 A 
ATOM     23  C   UNL     1       8.251   6.991  18.673  0.00  0.00    +0.000 A 
ATOM     24  C   UNL     1       7.605   7.477  17.536  0.00  0.00    +0.000 A 
ATOM     25  C   UNL     1       6.504   6.799  17.011  0.00  0.00    +0.000 A 
ENDBRANCH  19  20
ENDBRANCH  11  19
TORSDOF 3
ENDMDL
MODEL 4
REMARK VINA RESULT:      -8.8      0.444      1.056
REMARK  Name = 
REMARK  3 active torsions:
REMARK  status: ('A' for Active; 'I' for Inactive)
REMARK    1  A    between atoms: C_9  and  C_10
REMARK    2  A    between atoms: N_18  and  C_19
REMARK    3  A    between atoms: C_19  and  C_20
REMARK                            x       y       z     vdW  Elec       q    Type
REMARK                         _______ _______ _______ _____ _____    ______ ____
ROOT
ATOM      1  O   UNL     1       2.214   2.891  16.616  0.00  0.00    +0.000 OA
ATOM      2  C   UNL     1       2.545   3.736  17.440  0.00  0.00    +0.000 C 
ATOM      3  C   UNL     1       2.466   3.500  18.921  0.00  0.00    +0.000 C 
ATOM      4  C   UNL     1       1.512   2.433  19.457  0.00  0.00    +0.000 C 
ATOM      5  C   UNL     1       1.841   2.189  20.945  0.00  0.00    +0.000 C 
ATOM      6  C   UNL     1       1.947   3.479  21.781  0.00  0.00    +0.000 C 
ATOM      7  C   UNL     1       2.773   4.566  21.086  0.00  0.00    +0.000 C 
ATOM      8  C   UNL     1       2.174   4.773  19.686  0.00  0.00    +0.000 C 
ATOM      9  C   UNL     1       2.598   6.046  18.987  0.00  0.00    +0.000 C 
ATOM     10  N   UNL     1       3.277   6.032  17.881  0.00  0.00    +0.000 NA
ATOM     11  N   UNL     1       3.375   4.840  17.163  0.00  0.00    +0.000 N 
ENDROOT
BRANCH   9  12
ATOM     12  C   UNL     1       2.110   7.346  19.567  0.00  0.00    +0.000 A 
ATOM     13  C   UNL     1       1.589   7.407  20.875  0.00  0.00    +0.000 A 
ATOM     14  C   UNL     1       0.936   8.547  21.343  0.00  0.00    +0.000 A 
ATOM     15  C   UNL     1       0.791   9.644  20.503  0.00  0.00    +0.000 A 
ATOM     16  C   UNL     1       1.336   9.608  19.218  0.00  0.00    +0.000 A 
ATOM     17 CL   UNL     1       1.122  10.964  18.181  0.00  0.00    +0.000 Cl
ATOM     18  C   UNL     1       2.006   8.475  18.750  0.00  0.00    +0.000 A 
ENDBRANCH   9  12
BRANCH  11  19
ATOM     19  C   UNL     1       4.698   4.500  16.663  0.00  0.00    +0.000 C 
BRANCH  19  20
ATOM     20  C   UNL     1       5.884   5.140  17.326  0.00  0.00    +0.000 A 
ATOM     21  C   UNL     1       6.541   6.211  16.699  0.00  0.00    +0.000 A 
ATOM     22  C   UNL     1       7.485   6.967  17.392  0.00  0.00    +0.000 A 
ATOM     23  C   UNL     1       7.794   6.652  18.712  0.00  0.00    +0.000 A 
ATOM     24  C   UNL     1       7.186   5.559  19.330  0.00  0.00    +0.000 A 
ATOM     25  C   UNL     1       6.240   4.801  18.640  0.00  0.00    +0.000 A 
ENDBRANCH  19  20
ENDBRANCH  11  19
TORSDOF 3
ENDMDL
MODEL 5
REMARK VINA RESULT:      -8.8      2.801      6.074
REMARK  Name = 
REMARK  3 active torsions:
REMARK  status: ('A' for Active; 'I' for Inactive)
REMARK    1  A    between atoms: C_9  and  C_10
REMARK    2  A    between atoms: N_18  and  C_19
REMARK    3  A    between atoms: C_19  and  C_20
REMARK                            x       y       z     vdW  Elec       q    Type
REMARK                         _______ _______ _______ _____ _____    ______ ____
ROOT
ATOM      1  O   UNL     1       1.761   7.620  20.682  0.00  0.00    +0.000 OA
ATOM      2  C   UNL     1       2.135   6.967  19.714  0.00  0.00    +0.000 C 
ATOM      3  C   UNL     1       1.864   5.497  19.574  0.00  0.00    +0.000 C 
ATOM      4  C   UNL     1       1.579   4.667  20.825  0.00  0.00    +0.000 C 
ATOM      5  C   UNL     1       1.047   3.287  20.384  0.00  0.00    +0.000 C 
ATOM      6  C   UNL     1       1.907   2.603  19.303  0.00  0.00    +0.000 C 
ATOM      7  C   UNL     1       2.301   3.558  18.172  0.00  0.00    +0.000 C 
ATOM      8  C   UNL     1       2.964   4.785  18.816  0.00  0.00    +0.000 C 
ATOM      9  C   UNL     1       3.754   5.661  17.869  0.00  0.00    +0.000 C 
ATOM     10  N   UNL     1       3.422   6.893  17.632  0.00  0.00    +0.000 NA
ATOM     11  N   UNL     1       2.502   7.520  18.471  0.00  0.00    +0.000 N 
ENDROOT
BRANCH   9  12
ATOM     12  C   UNL     1       5.015   5.083  17.285  0.00  0.00    +0.000 A 
ATOM     13  C   UNL     1       6.220   5.083  18.015  0.00  0.00    +0.000 A 
ATOM     14  C   UNL     1       7.434   4.756  17.413  0.00  0.00    +0.000 A 
ATOM     15  C   UNL     1       7.458   4.427  16.063  0.00  0.00    +0.000 A 
ATOM     16  C   UNL     1       6.266   4.387  15.339  0.00  0.00    +0.000 A 
ATOM     17 CL   UNL     1       6.317   4.006  13.661  0.00  0.00    +0.000 Cl
ATOM     18  C   UNL     1       5.044   4.698  15.942  0.00  0.00    +0.000 A 
ENDBRANCH   9  12
BRANCH  11  19
ATOM     19  C   UNL     1       1.460   8.295  17.815  0.00  0.00    +0.000 C 
BRANCH  19  20
ATOM     20  C   UNL     1       1.281   9.725  18.235  0.00  0.00    +0.000 A 
ATOM     21  C   UNL     1       0.222  10.074  19.090  0.00  0.00    +0.000 A 
ATOM     22  C   UNL     1       0.173  11.337  19.677  0.00  0.00    +0.000 A 
ATOM     23  C   UNL     1       1.170  12.270  19.407  0.00  0.00    +0.000 A 
ATOM     24  C   UNL     1       2.199  11.953  18.520  0.00  0.00    +0.000 A 
ATOM     25  C   UNL     1       2.253  10.689  17.931  0.00  0.00    +0.000 A 
ENDBRANCH  19  20
ENDBRANCH  11  19
TORSDOF 3
ENDMDL
MODEL 6
REMARK VINA RESULT:      -8.8      1.112      1.801
REMARK  Name = 
REMARK  3 active torsions:
REMARK  status: ('A' for Active; 'I' for Inactive)
REMARK    1  A    between atoms: C_9  and  C_10
REMARK    2  A    between atoms: N_18  and  C_19
REMARK    3  A    between atoms: C_19  and  C_20
REMARK                            x       y       z     vdW  Elec       q    Type
REMARK                         _______ _______ _______ _____ _____    ______ ____
ROOT
ATOM      1  O   UNL     1       2.580   2.316  16.743  0.00  0.00    +0.000 OA
ATOM      2  C   UNL     1       2.804   3.308  17.427  0.00  0.00    +0.000 C 
ATOM      3  C   UNL     1       2.599   3.331  18.914  0.00  0.00    +0.000 C 
ATOM      4  C   UNL     1       1.639   2.327  19.552  0.00  0.00    +0.000 C 
ATOM      5  C   UNL     1       1.841   2.364  21.081  0.00  0.00    +0.000 C 
ATOM      6  C   UNL     1       1.823   3.784  21.679  0.00  0.00    +0.000 C 
ATOM      7  C   UNL     1       2.670   4.774  20.872  0.00  0.00    +0.000 C 
ATOM      8  C   UNL     1       2.194   4.702  19.413  0.00  0.00    +0.000 C 
ATOM      9  C   UNL     1       2.634   5.853  18.535  0.00  0.00    +0.000 C 
ATOM     10  N   UNL     1       3.411   5.680  17.510  0.00  0.00    +0.000 NA
ATOM     11  N   UNL     1       3.617   4.388  17.027  0.00  0.00    +0.000 N 
ENDROOT
BRANCH   9  12
ATOM     12  C   UNL     1       2.049   7.208  18.830  0.00  0.00    +0.000 A 
ATOM     13  C   UNL     1       2.025   8.218  17.848  0.00  0.00    +0.000 A 
ATOM     14  C   UNL     1       1.692   9.533  18.168  0.00  0.00    +0.000 A 
ATOM     15  C   UNL     1       1.381   9.858  19.482  0.00  0.00    +0.000 A 
ATOM     16  C   UNL     1       1.364   8.858  20.456  0.00  0.00    +0.000 A 
ATOM     17 CL   UNL     1       1.005   9.282  22.085  0.00  0.00    +0.000 Cl
ATOM     18  C   UNL     1       1.681   7.535  20.138  0.00  0.00    +0.000 A 
ENDBRANCH   9  12
BRANCH  11  19
ATOM     19  C   UNL     1       4.991   4.034  16.708  0.00  0.00    +0.000 C 
BRANCH  19  20
ATOM     20  C   UNL     1       6.086   4.865  17.309  0.00  0.00    +0.000 A 
ATOM     21  C   UNL     1       6.649   5.919  16.571  0.00  0.00    +0.000 A 
ATOM     22  C   UNL     1       7.492   6.844  17.185  0.00  0.00    +0.000 A 
ATOM     23  C   UNL     1       7.795   6.718  18.538  0.00  0.00    +0.000 A 
ATOM     24  C   UNL     1       7.284   5.646  19.270  0.00  0.00    +0.000 A 
ATOM     25  C   UNL     1       6.439   4.720  18.659  0.00  0.00    +0.000 A 
ENDBRANCH  19  20
ENDBRANCH  11  19
TORSDOF 3
ENDMDL
MODEL 7
REMARK VINA RESULT:      -8.4      2.963      6.430
REMARK  Name = 
REMARK  3 active torsions:
REMARK  status: ('A' for Active; 'I' for Inactive)
REMARK    1  A    between atoms: C_9  and  C_10
REMARK    2  A    between atoms: N_18  and  C_19
REMARK    3  A    between atoms: C_19  and  C_20
REMARK                            x       y       z     vdW  Elec       q    Type
REMARK                         _______ _______ _______ _____ _____    ______ ____
ROOT
ATOM      1  O   UNL     1       1.701   8.108  20.727  0.00  0.00    +0.000 OA
ATOM      2  C   UNL     1       2.071   7.572  19.688  0.00  0.00    +0.000 C 
ATOM      3  C   UNL     1       1.847   6.114  19.403  0.00  0.00    +0.000 C 
ATOM      4  C   UNL     1       1.627   5.150  20.569  0.00  0.00    +0.000 C 
ATOM      5  C   UNL     1       1.131   3.804  20.000  0.00  0.00    +0.000 C 
ATOM      6  C   UNL     1       1.983   3.267  18.834  0.00  0.00    +0.000 C 
ATOM      7  C   UNL     1       2.312   4.347  17.798  0.00  0.00    +0.000 C 
ATOM      8  C   UNL     1       2.950   5.526  18.549  0.00  0.00    +0.000 C 
ATOM      9  C   UNL     1       3.681   6.523  17.679  0.00  0.00    +0.000 C 
ATOM     10  N   UNL     1       3.300   7.760  17.578  0.00  0.00    +0.000 NA
ATOM     11  N   UNL     1       2.382   8.262  18.500  0.00  0.00    +0.000 N 
ENDROOT
BRANCH   9  12
ATOM     12  C   UNL     1       4.944   6.056  17.007  0.00  0.00    +0.000 A 
ATOM     13  C   UNL     1       5.007   5.902  15.608  0.00  0.00    +0.000 A 
ATOM     14  C   UNL     1       6.087   5.266  14.996  0.00  0.00    +0.000 A 
ATOM     15  C   UNL     1       7.121   4.770  15.780  0.00  0.00    +0.000 A 
ATOM     16  C   UNL     1       7.087   4.951  17.164  0.00  0.00    +0.000 A 
ATOM     17 CL   UNL     1       8.360   4.305  18.124  0.00  0.00    +0.000 Cl
ATOM     18  C   UNL     1       6.015   5.602  17.781  0.00  0.00    +0.000 A 
ENDBRANCH   9  12
BRANCH  11  19
ATOM     19  C   UNL     1       1.296   9.060  17.954  0.00  0.00    +0.000 C 
BRANCH  19  20
ATOM     20  C   UNL     1       1.058  10.419  18.546  0.00  0.00    +0.000 A 
ATOM     21  C   UNL     1       1.979  11.453  18.312  0.00  0.00    +0.000 A 
ATOM     22  C   UNL     1       1.667  12.770  18.648  0.00  0.00    +0.000 A 
ATOM     23  C   UNL     1       0.440  13.066  19.235  0.00  0.00    +0.000 A 
ATOM     24  C   UNL     1      -0.462  12.040  19.520  0.00  0.00    +0.000 A 
ATOM     25  C   UNL     1      -0.154  10.722  19.184  0.00  0.00    +0.000 A 
ENDBRANCH  19  20
ENDBRANCH  11  19
TORSDOF 3
ENDMDL
MODEL 8
REMARK VINA RESULT:      -8.1      0.763      1.274
REMARK  Name = 
REMARK  3 active torsions:
REMARK  status: ('A' for Active; 'I' for Inactive)
REMARK    1  A    between atoms: C_9  and  C_10
REMARK    2  A    between atoms: N_18  and  C_19
REMARK    3  A    between atoms: C_19  and  C_20
REMARK                            x       y       z     vdW  Elec       q    Type
REMARK                         _______ _______ _______ _____ _____    ______ ____
ROOT
ATOM      1  O   UNL     1       3.550   3.540  16.293  0.00  0.00    +0.000 OA
ATOM      2  C   UNL     1       3.479   4.193  17.328  0.00  0.00    +0.000 C 
ATOM      3  C   UNL     1       2.724   3.719  18.536  0.00  0.00    +0.000 C 
ATOM      4  C   UNL     1       1.612   2.684  18.363  0.00  0.00    +0.000 C 
ATOM      5  C   UNL     1       1.215   2.158  19.759  0.00  0.00    +0.000 C 
ATOM      6  C   UNL     1       0.947   3.269  20.792  0.00  0.00    +0.000 C 
ATOM      7  C   UNL     1       2.018   4.363  20.773  0.00  0.00    +0.000 C 
ATOM      8  C   UNL     1       2.135   4.868  19.327  0.00  0.00    +0.000 C 
ATOM      9  C   UNL     1       2.854   6.188  19.161  0.00  0.00    +0.000 C 
ATOM     10  N   UNL     1       3.966   6.289  18.499  0.00  0.00    +0.000 NA
ATOM     11  N   UNL     1       4.363   5.233  17.679  0.00  0.00    +0.000 N 
ENDROOT
BRANCH   9  12
ATOM     12  C   UNL     1       2.177   7.415  19.708  0.00  0.00    +0.000 A 
ATOM     13  C   UNL     1       1.652   7.433  21.016  0.00  0.00    +0.000 A 
ATOM     14  C   UNL     1       0.835   8.474  21.456  0.00  0.00    +0.000 A 
ATOM     15  C   UNL     1       0.528   9.514  20.587  0.00  0.00    +0.000 A 
ATOM     16  C   UNL     1       1.072   9.525  19.302  0.00  0.00    +0.000 A 
ATOM     17 CL   UNL     1       0.658  10.805  18.229  0.00  0.00    +0.000 Cl
ATOM     18  C   UNL     1       1.905   8.493  18.862  0.00  0.00    +0.000 A 
ENDBRANCH   9  12
BRANCH  11  19
ATOM     19  C   UNL     1       5.761   4.843  17.768  0.00  0.00    +0.000 C 
BRANCH  19  20
ATOM     20  C   UNL     1       6.785   5.932  17.901  0.00  0.00    +0.000 A 
ATOM     21  C   UNL     1       6.736   7.045  17.046  0.00  0.00    +0.000 A 
ATOM     22  C   UNL     1       7.521   8.169  17.300  0.00  0.00    +0.000 A 
ATOM     23  C   UNL     1       8.374   8.188  18.399  0.00  0.00    +0.000 A 
ATOM     24  C   UNL     1       8.470   7.069  19.227  0.00  0.00    +0.000 A 
ATOM     25  C   UNL     1       7.685   5.943  18.977  0.00  0.00    +0.000 A 
ENDBRANCH  19  20
ENDBRANCH  11  19
TORSDOF 3
ENDMDL
MODEL 9
REMARK VINA RESULT:      -8.1      1.979      2.824
REMARK  Name = 
REMARK  3 active torsions:
REMARK  status: ('A' for Active; 'I' for Inactive)
REMARK    1  A    between atoms: C_9  and  C_10
REMARK    2  A    between atoms: N_18  and  C_19
REMARK    3  A    between atoms: C_19  and  C_20
REMARK                            x       y       z     vdW  Elec       q    Type
REMARK                         _______ _______ _______ _____ _____    ______ ____
ROOT
ATOM      1  O   UNL     1       2.697   2.407  16.620  0.00  0.00    +0.000 OA
ATOM      2  C   UNL     1       2.887   3.382  17.339  0.00  0.00    +0.000 C 
ATOM      3  C   UNL     1       2.583   3.377  18.810  0.00  0.00    +0.000 C 
ATOM      4  C   UNL     1       1.572   2.371  19.360  0.00  0.00    +0.000 C 
ATOM      5  C   UNL     1       1.671   2.375  20.900  0.00  0.00    +0.000 C 
ATOM      6  C   UNL     1       1.630   3.782  21.526  0.00  0.00    +0.000 C 
ATOM      7  C   UNL     1       2.539   4.778  20.798  0.00  0.00    +0.000 C 
ATOM      8  C   UNL     1       2.161   4.742  19.309  0.00  0.00    +0.000 C 
ATOM      9  C   UNL     1       2.671   5.905  18.487  0.00  0.00    +0.000 C 
ATOM     10  N   UNL     1       3.513   5.743  17.512  0.00  0.00    +0.000 NA
ATOM     11  N   UNL     1       3.735   4.459  17.017  0.00  0.00    +0.000 N 
ENDROOT
BRANCH   9  12
ATOM     12  C   UNL     1       2.082   7.260  18.772  0.00  0.00    +0.000 A 
ATOM     13  C   UNL     1       2.052   8.261  17.780  0.00  0.00    +0.000 A 
ATOM     14  C   UNL     1       1.715   9.578  18.088  0.00  0.00    +0.000 A 
ATOM     15  C   UNL     1       1.408   9.914  19.401  0.00  0.00    +0.000 A 
ATOM     16  C   UNL     1       1.399   8.924  20.385  0.00  0.00    +0.000 A 
ATOM     17 CL   UNL     1       1.044   9.362  22.010  0.00  0.00    +0.000 Cl
ATOM     18  C   UNL     1       1.719   7.599  20.077  0.00  0.00    +0.000 A 
ENDBRANCH   9  12
BRANCH  11  19
ATOM     19  C   UNL     1       5.124   4.095  16.782  0.00  0.00    +0.000 C 
BRANCH  19  20
ATOM     20  C   UNL     1       5.688   4.332  15.411  0.00  0.00    +0.000 A 
ATOM     21  C   UNL     1       6.870   5.076  15.262  0.00  0.00    +0.000 A 
ATOM     22  C   UNL     1       7.536   5.111  14.038  0.00  0.00    +0.000 A 
ATOM     23  C   UNL     1       7.022   4.416  12.946  0.00  0.00    +0.000 A 
ATOM     24  C   UNL     1       5.822   3.716  13.068  0.00  0.00    +0.000 A 
ATOM     25  C   UNL     1       5.153   3.677  14.292  0.00  0.00    +0.000 A 
ENDBRANCH  19  20
ENDBRANCH  11  19
TORSDOF 3
ENDMDL
