MODEL 1
REMARK VINA RESULT:      -7.8      0.000      0.000
REMARK  Name = 
REMARK  11 active torsions:
REMARK  status: ('A' for Active; 'I' for Inactive)
REMARK    1  A    between atoms: C_1  and  C_2
REMARK    2  A    between atoms: C_2  and  O_3
REMARK    3  A    between atoms: O_3  and  C_4
REMARK    4  A    between atoms: C_4  and  C_6
REMARK    5  A    between atoms: C_7  and  C_8
REMARK    6  A    between atoms: C_8  and  O_9
REMARK    7  A    between atoms: O_9  and  C_10
REMARK    8  A    between atoms: C_10  and  C_12
REMARK    9  A    between atoms: C_13  and  C_14
REMARK   10  A    between atoms: C_17  and  C_18
REMARK   11  A    between atoms: C_24  and  C_25
REMARK                            x       y       z     vdW  Elec       q    Type
REMARK                         _______ _______ _______ _____ _____    ______ ____
ROOT
ATOM      1  C   UNL     1       2.719   4.380  19.346  0.00  0.00    +0.000 C 
ATOM      2  C   UNL     1       4.040   4.099  19.311  0.00  0.00    +0.000 C 
ATOM      3  N   UNL     1       4.419   2.790  19.098  0.00  0.00    +0.000 N 
ATOM      4  C   UNL     1       3.584   1.756  18.810  0.00  0.00    +0.000 C 
ATOM      5  O   UNL     1       3.997   0.633  18.551  0.00  0.00    +0.000 OA
ATOM      6  N   UNL     1       2.261   2.047  18.788  0.00  0.00    +0.000 N 
ATOM      7  C   UNL     1       1.673   3.296  19.232  0.00  0.00    +0.000 C 
ATOM      8  C   UNL     1       0.925   3.062  20.548  0.00  0.00    +0.000 C 
ATOM      9  H   UNL     1       5.410   2.571  19.056  0.00  0.00    +0.000 HD
ATOM     10  H   UNL     1       1.661   1.261  18.575  0.00  0.00    +0.000 HD
ENDROOT
BRANCH   1  11
ATOM     11  C   UNL     1       2.241   5.782  19.476  0.00  0.00    +0.000 C 
ATOM     12  O   UNL     1       2.031   6.353  20.533  0.00  0.00    +0.000 OA
BRANCH  11  13
ATOM     13  O   UNL     1       2.107   6.333  18.243  0.00  0.00    +0.000 OA
BRANCH  13  15
ATOM     14  C   UNL     1       1.823   8.683  17.752  0.00  0.00    +0.000 C 
ATOM     15  C   UNL     1       2.811   7.562  18.017  0.00  0.00    +0.000 C 
ENDBRANCH  13  15
ENDBRANCH  11  13
ENDBRANCH   1  11
BRANCH   2  16
ATOM     16  C   UNL     1       5.174   5.104  19.452  0.00  0.00    +0.000 C 
BRANCH  16  17
ATOM     17  O   UNL     1       5.756   5.382  18.156  0.00  0.00    +0.000 OA
BRANCH  17  18
ATOM     18  C   UNL     1       7.050   5.019  17.988  0.00  0.00    +0.000 C 
ATOM     19  O   UNL     1       7.936   5.060  18.828  0.00  0.00    +0.000 OA
BRANCH  18  20
ATOM     20  C   UNL     1       7.237   4.562  16.598  0.00  0.00    +0.000 C 
ATOM     21  C   UNL     1       6.370   4.953  15.652  0.00  0.00    +0.000 C 
BRANCH  21  22
ATOM     22  C   UNL     1       6.519   4.537  14.300  0.00  0.00    +0.000 A 
ATOM     23  C   UNL     1       7.486   4.917  13.375  0.00  0.00    +0.000 A 
ATOM     24  C   UNL     1       7.224   4.237  12.162  0.00  0.00    +0.000 A 
ATOM     25  C   UNL     1       6.107   3.473  12.392  0.00  0.00    +0.000 A 
ATOM     26  C   UNL     1       5.318   2.544  11.561  0.00  0.00    +0.000 C 
ATOM     27  O   UNL     1       5.679   3.645  13.670  0.00  0.00    +0.000 OA
ENDBRANCH  21  22
ENDBRANCH  18  20
ENDBRANCH  17  18
ENDBRANCH  16  17
ENDBRANCH   2  16
TORSDOF 8
ENDMDL
MODEL 2
REMARK VINA RESULT:      -7.7      4.165      6.452
REMARK  Name = 
REMARK  11 active torsions:
REMARK  status: ('A' for Active; 'I' for Inactive)
REMARK    1  A    between atoms: C_1  and  C_2
REMARK    2  A    between atoms: C_2  and  O_3
REMARK    3  A    between atoms: O_3  and  C_4
REMARK    4  A    between atoms: C_4  and  C_6
REMARK    5  A    between atoms: C_7  and  C_8
REMARK    6  A    between atoms: C_8  and  O_9
REMARK    7  A    between atoms: O_9  and  C_10
REMARK    8  A    between atoms: C_10  and  C_12
REMARK    9  A    between atoms: C_13  and  C_14
REMARK   10  A    between atoms: C_17  and  C_18
REMARK   11  A    between atoms: C_24  and  C_25
REMARK                            x       y       z     vdW  Elec       q    Type
REMARK                         _______ _______ _______ _____ _____    ______ ____
ROOT
ATOM      1  C   UNL     1       4.646   4.699  17.471  0.00  0.00    +0.000 C 
ATOM      2  C   UNL     1       5.691   4.458  18.293  0.00  0.00    +0.000 C 
ATOM      3  N   UNL     1       5.490   3.620  19.370  0.00  0.00    +0.000 N 
ATOM      4  C   UNL     1       4.355   2.918  19.630  0.00  0.00    +0.000 C 
ATOM      5  O   UNL     1       4.274   2.128  20.562  0.00  0.00    +0.000 OA
ATOM      6  N   UNL     1       3.323   3.113  18.775  0.00  0.00    +0.000 N 
ATOM      7  C   UNL     1       3.271   4.137  17.748  0.00  0.00    +0.000 C 
ATOM      8  C   UNL     1       2.268   5.217  18.162  0.00  0.00    +0.000 C 
ATOM      9  H   UNL     1       6.273   3.423  19.985  0.00  0.00    +0.000 HD
ATOM     10  H   UNL     1       2.490   2.582  18.992  0.00  0.00    +0.000 HD
ENDROOT
BRANCH   1  11
ATOM     11  C   UNL     1       4.817   5.514  16.239  0.00  0.00    +0.000 C 
ATOM     12  O   UNL     1       4.765   6.732  16.195  0.00  0.00    +0.000 OA
BRANCH  11  13
ATOM     13  O   UNL     1       5.070   4.698  15.184  0.00  0.00    +0.000 OA
BRANCH  13  15
ATOM     14  C   UNL     1       6.482   3.870  13.406  0.00  0.00    +0.000 C 
ATOM     15  C   UNL     1       6.346   4.857  14.551  0.00  0.00    +0.000 C 
ENDBRANCH  13  15
ENDBRANCH  11  13
ENDBRANCH   1  11
BRANCH   2  16
ATOM     16  C   UNL     1       7.103   5.002  18.129  0.00  0.00    +0.000 C 
BRANCH  16  17
ATOM     17  O   UNL     1       7.184   6.345  18.663  0.00  0.00    +0.000 OA
BRANCH  17  18
ATOM     18  C   UNL     1       7.802   7.266  17.886  0.00  0.00    +0.000 C 
ATOM     19  O   UNL     1       7.806   7.309  16.665  0.00  0.00    +0.000 OA
BRANCH  18  20
ATOM     20  C   UNL     1       8.498   8.230  18.757  0.00  0.00    +0.000 C 
ATOM     21  C   UNL     1       8.749   9.469  18.305  0.00  0.00    +0.000 C 
BRANCH  21  22
ATOM     22  C   UNL     1       9.414  10.428  19.117  0.00  0.00    +0.000 A 
ATOM     23  C   UNL     1       9.234  10.696  20.471  0.00  0.00    +0.000 A 
ATOM     24  C   UNL     1      10.123  11.735  20.835  0.00  0.00    +0.000 A 
ATOM     25  C   UNL     1      10.808  12.062  19.690  0.00  0.00    +0.000 A 
ATOM     26  C   UNL     1      11.860  13.049  19.379  0.00  0.00    +0.000 C 
ATOM     27  O   UNL     1      10.391  11.283  18.658  0.00  0.00    +0.000 OA
ENDBRANCH  21  22
ENDBRANCH  18  20
ENDBRANCH  17  18
ENDBRANCH  16  17
ENDBRANCH   2  16
TORSDOF 8
ENDMDL
MODEL 3
REMARK VINA RESULT:      -7.6      0.948      1.174
REMARK  Name = 
REMARK  11 active torsions:
REMARK  status: ('A' for Active; 'I' for Inactive)
REMARK    1  A    between atoms: C_1  and  C_2
REMARK    2  A    between atoms: C_2  and  O_3
REMARK    3  A    between atoms: O_3  and  C_4
REMARK    4  A    between atoms: C_4  and  C_6
REMARK    5  A    between atoms: C_7  and  C_8
REMARK    6  A    between atoms: C_8  and  O_9
REMARK    7  A    between atoms: O_9  and  C_10
REMARK    8  A    between atoms: C_10  and  C_12
REMARK    9  A    between atoms: C_13  and  C_14
REMARK   10  A    between atoms: C_17  and  C_18
REMARK   11  A    between atoms: C_24  and  C_25
REMARK                            x       y       z     vdW  Elec       q    Type
REMARK                         _______ _______ _______ _____ _____    ______ ____
ROOT
ATOM      1  C   UNL     1       2.926   4.766  19.029  0.00  0.00    +0.000 C 
ATOM      2  C   UNL     1       4.197   4.383  18.776  0.00  0.00    +0.000 C 
ATOM      3  N   UNL     1       4.444   3.039  18.588  0.00  0.00    +0.000 N 
ATOM      4  C   UNL     1       3.504   2.058  18.526  0.00  0.00    +0.000 C 
ATOM      5  O   UNL     1       3.788   0.895  18.275  0.00  0.00    +0.000 OA
ATOM      6  N   UNL     1       2.221   2.448  18.724  0.00  0.00    +0.000 N 
ATOM      7  C   UNL     1       1.808   3.761  19.181  0.00  0.00    +0.000 C 
ATOM      8  C   UNL     1       1.303   3.658  20.623  0.00  0.00    +0.000 C 
ATOM      9  H   UNL     1       5.393   2.743  18.383  0.00  0.00    +0.000 HD
ATOM     10  H   UNL     1       1.543   1.700  18.676  0.00  0.00    +0.000 HD
ENDROOT
BRANCH   1  11
ATOM     11  C   UNL     1       2.573   6.206  19.147  0.00  0.00    +0.000 C 
ATOM     12  O   UNL     1       2.444   6.809  20.199  0.00  0.00    +0.000 OA
BRANCH  11  13
ATOM     13  O   UNL     1       2.451   6.747  17.908  0.00  0.00    +0.000 OA
BRANCH  13  15
ATOM     14  C   UNL     1       1.660   9.027  17.765  0.00  0.00    +0.000 C 
ATOM     15  C   UNL     1       2.870   8.111  17.767  0.00  0.00    +0.000 C 
ENDBRANCH  13  15
ENDBRANCH  11  13
ENDBRANCH   1  11
BRANCH   2  16
ATOM     16  C   UNL     1       5.400   5.305  18.641  0.00  0.00    +0.000 C 
BRANCH  16  17
ATOM     17  O   UNL     1       6.471   4.626  17.940  0.00  0.00    +0.000 OA
BRANCH  17  18
ATOM     18  C   UNL     1       6.938   5.233  16.823  0.00  0.00    +0.000 C 
ATOM     19  O   UNL     1       7.485   6.323  16.758  0.00  0.00    +0.000 OA
BRANCH  18  20
ATOM     20  C   UNL     1       6.672   4.361  15.664  0.00  0.00    +0.000 C 
ATOM     21  C   UNL     1       6.104   4.879  14.564  0.00  0.00    +0.000 C 
BRANCH  21  22
ATOM     22  C   UNL     1       5.836   4.071  13.425  0.00  0.00    +0.000 A 
ATOM     23  C   UNL     1       6.679   3.173  12.778  0.00  0.00    +0.000 A 
ATOM     24  C   UNL     1       5.967   2.605  11.695  0.00  0.00    +0.000 A 
ATOM     25  C   UNL     1       4.720   3.180  11.721  0.00  0.00    +0.000 A 
ATOM     26  C   UNL     1       3.513   3.036  10.885  0.00  0.00    +0.000 C 
ATOM     27  O   UNL     1       4.632   4.057  12.755  0.00  0.00    +0.000 OA
ENDBRANCH  21  22
ENDBRANCH  18  20
ENDBRANCH  17  18
ENDBRANCH  16  17
ENDBRANCH   2  16
TORSDOF 8
ENDMDL
MODEL 4
REMARK VINA RESULT:      -7.3      1.493      1.958
REMARK  Name = 
REMARK  11 active torsions:
REMARK  status: ('A' for Active; 'I' for Inactive)
REMARK    1  A    between atoms: C_1  and  C_2
REMARK    2  A    between atoms: C_2  and  O_3
REMARK    3  A    between atoms: O_3  and  C_4
REMARK    4  A    between atoms: C_4  and  C_6
REMARK    5  A    between atoms: C_7  and  C_8
REMARK    6  A    between atoms: C_8  and  O_9
REMARK    7  A    between atoms: O_9  and  C_10
REMARK    8  A    between atoms: C_10  and  C_12
REMARK    9  A    between atoms: C_13  and  C_14
REMARK   10  A    between atoms: C_17  and  C_18
REMARK   11  A    between atoms: C_24  and  C_25
REMARK                            x       y       z     vdW  Elec       q    Type
REMARK                         _______ _______ _______ _____ _____    ______ ____
ROOT
ATOM      1  C   UNL     1       3.263   4.579  19.244  0.00  0.00    +0.000 C 
ATOM      2  C   UNL     1       4.568   4.421  18.933  0.00  0.00    +0.000 C 
ATOM      3  N   UNL     1       5.210   3.288  19.387  0.00  0.00    +0.000 N 
ATOM      4  C   UNL     1       4.623   2.247  20.036  0.00  0.00    +0.000 C 
ATOM      5  O   UNL     1       5.239   1.233  20.338  0.00  0.00    +0.000 OA
ATOM      6  N   UNL     1       3.301   2.377  20.299  0.00  0.00    +0.000 N 
ATOM      7  C   UNL     1       2.530   3.594  20.124  0.00  0.00    +0.000 C 
ATOM      8  C   UNL     1       2.186   4.176  21.498  0.00  0.00    +0.000 C 
ATOM      9  H   UNL     1       6.187   3.153  19.146  0.00  0.00    +0.000 HD
ATOM     10  H   UNL     1       2.889   1.592  20.785  0.00  0.00    +0.000 HD
ENDROOT
BRANCH   1  11
ATOM     11  C   UNL     1       2.485   5.728  18.708  0.00  0.00    +0.000 C 
ATOM     12  O   UNL     1       1.613   5.646  17.859  0.00  0.00    +0.000 OA
BRANCH  11  13
ATOM     13  O   UNL     1       2.872   6.870  19.331  0.00  0.00    +0.000 OA
BRANCH  13  15
ATOM     14  C   UNL     1       1.345   7.857  20.924  0.00  0.00    +0.000 C 
ATOM     15  C   UNL     1       1.864   7.875  19.497  0.00  0.00    +0.000 C 
ENDBRANCH  13  15
ENDBRANCH  11  13
ENDBRANCH   1  11
BRANCH   2  16
ATOM     16  C   UNL     1       5.409   5.368  18.089  0.00  0.00    +0.000 C 
BRANCH  16  17
ATOM     17  O   UNL     1       6.536   4.659  17.520  0.00  0.00    +0.000 OA
BRANCH  17  18
ATOM     18  C   UNL     1       6.977   5.097  16.317  0.00  0.00    +0.000 C 
ATOM     19  O   UNL     1       7.656   6.091  16.104  0.00  0.00    +0.000 OA
BRANCH  18  20
ATOM     20  C   UNL     1       6.495   4.175  15.272  0.00  0.00    +0.000 C 
ATOM     21  C   UNL     1       6.283   4.637  14.029  0.00  0.00    +0.000 C 
BRANCH  21  22
ATOM     22  C   UNL     1       5.823   3.778  12.994  0.00  0.00    +0.000 A 
ATOM     23  C   UNL     1       4.661   3.878  12.234  0.00  0.00    +0.000 A 
ATOM     24  C   UNL     1       4.635   2.792  11.327  0.00  0.00    +0.000 A 
ATOM     25  C   UNL     1       5.779   2.071  11.571  0.00  0.00    +0.000 A 
ATOM     26  C   UNL     1       6.354   0.843  10.988  0.00  0.00    +0.000 C 
ATOM     27  O   UNL     1       6.496   2.656  12.565  0.00  0.00    +0.000 OA
ENDBRANCH  21  22
ENDBRANCH  18  20
ENDBRANCH  17  18
ENDBRANCH  16  17
ENDBRANCH   2  16
TORSDOF 8
ENDMDL
MODEL 5
REMARK VINA RESULT:      -7.3      3.501      8.024
REMARK  Name = 
REMARK  11 active torsions:
REMARK  status: ('A' for Active; 'I' for Inactive)
REMARK    1  A    between atoms: C_1  and  C_2
REMARK    2  A    between atoms: C_2  and  O_3
REMARK    3  A    between atoms: O_3  and  C_4
REMARK    4  A    between atoms: C_4  and  C_6
REMARK    5  A    between atoms: C_7  and  C_8
REMARK    6  A    between atoms: C_8  and  O_9
REMARK    7  A    between atoms: O_9  and  C_10
REMARK    8  A    between atoms: C_10  and  C_12
REMARK    9  A    between atoms: C_13  and  C_14
REMARK   10  A    between atoms: C_17  and  C_18
REMARK   11  A    between atoms: C_24  and  C_25
REMARK                            x       y       z     vdW  Elec       q    Type
REMARK                         _______ _______ _______ _____ _____    ______ ____
ROOT
ATOM      1  C   UNL     1       3.324   4.340  18.669  0.00  0.00    +0.000 C 
ATOM      2  C   UNL     1       3.649   5.570  19.125  0.00  0.00    +0.000 C 
ATOM      3  N   UNL     1       4.978   5.838  19.376  0.00  0.00    +0.000 N 
ATOM      4  C   UNL     1       6.022   5.010  19.106  0.00  0.00    +0.000 C 
ATOM      5  O   UNL     1       7.186   5.346  19.280  0.00  0.00    +0.000 OA
ATOM      6  N   UNL     1       5.703   3.796  18.594  0.00  0.00    +0.000 N 
ATOM      7  C   UNL     1       4.361   3.255  18.504  0.00  0.00    +0.000 C 
ATOM      8  C   UNL     1       4.200   2.129  19.530  0.00  0.00    +0.000 C 
ATOM      9  H   UNL     1       5.234   6.764  19.706  0.00  0.00    +0.000 HD
ATOM     10  H   UNL     1       6.496   3.198  18.405  0.00  0.00    +0.000 HD
ENDROOT
BRANCH   1  11
ATOM     11  C   UNL     1       1.923   4.015  18.287  0.00  0.00    +0.000 C 
ATOM     12  O   UNL     1       1.556   3.731  17.159  0.00  0.00    +0.000 OA
BRANCH  11  13
ATOM     13  O   UNL     1       1.132   4.050  19.389  0.00  0.00    +0.000 OA
BRANCH  13  15
ATOM     14  C   UNL     1       1.298   2.805  21.454  0.00  0.00    +0.000 C 
ATOM     15  C   UNL     1       0.846   2.787  20.005  0.00  0.00    +0.000 C 
ENDBRANCH  13  15
ENDBRANCH  11  13
ENDBRANCH   1  11
BRANCH   2  16
ATOM     16  C   UNL     1       2.682   6.722  19.363  0.00  0.00    +0.000 C 
BRANCH  16  17
ATOM     17  O   UNL     1       2.422   7.417  18.119  0.00  0.00    +0.000 OA
BRANCH  17  18
ATOM     18  C   UNL     1       1.963   8.687  18.225  0.00  0.00    +0.000 C 
ATOM     19  O   UNL     1       2.118   9.590  17.418  0.00  0.00    +0.000 OA
BRANCH  18  20
ATOM     20  C   UNL     1       1.234   8.821  19.500  0.00  0.00    +0.000 C 
ATOM     21  C   UNL     1       0.913  10.044  19.951  0.00  0.00    +0.000 C 
BRANCH  21  22
ATOM     22  C   UNL     1       0.207  10.214  21.174  0.00  0.00    +0.000 A 
ATOM     23  C   UNL     1       0.274   9.444  22.331  0.00  0.00    +0.000 A 
ATOM     24  C   UNL     1      -0.611  10.003  23.283  0.00  0.00    +0.000 A 
ATOM     25  C   UNL     1      -1.186  11.089  22.670  0.00  0.00    +0.000 A 
ATOM     26  C   UNL     1      -2.181  12.092  23.095  0.00  0.00    +0.000 C 
ATOM     27  O   UNL     1      -0.700  11.224  21.408  0.00  0.00    +0.000 OA
ENDBRANCH  21  22
ENDBRANCH  18  20
ENDBRANCH  17  18
ENDBRANCH  16  17
ENDBRANCH   2  16
TORSDOF 8
ENDMDL
MODEL 6
REMARK VINA RESULT:      -7.3      4.182      6.739
REMARK  Name = 
REMARK  11 active torsions:
REMARK  status: ('A' for Active; 'I' for Inactive)
REMARK    1  A    between atoms: C_1  and  C_2
REMARK    2  A    between atoms: C_2  and  O_3
REMARK    3  A    between atoms: O_3  and  C_4
REMARK    4  A    between atoms: C_4  and  C_6
REMARK    5  A    between atoms: C_7  and  C_8
REMARK    6  A    between atoms: C_8  and  O_9
REMARK    7  A    between atoms: O_9  and  C_10
REMARK    8  A    between atoms: C_10  and  C_12
REMARK    9  A    between atoms: C_13  and  C_14
REMARK   10  A    between atoms: C_17  and  C_18
REMARK   11  A    between atoms: C_24  and  C_25
REMARK                            x       y       z     vdW  Elec       q    Type
REMARK                         _______ _______ _______ _____ _____    ______ ____
ROOT
ATOM      1  C   UNL     1       5.219   4.200  17.051  0.00  0.00    +0.000 C 
ATOM      2  C   UNL     1       6.106   4.346  18.060  0.00  0.00    +0.000 C 
ATOM      3  N   UNL     1       5.821   3.742  19.267  0.00  0.00    +0.000 N 
ATOM      4  C   UNL     1       4.770   2.914  19.514  0.00  0.00    +0.000 C 
ATOM      5  O   UNL     1       4.623   2.347  20.588  0.00  0.00    +0.000 OA
ATOM      6  N   UNL     1       3.909   2.721  18.486  0.00  0.00    +0.000 N 
ATOM      7  C   UNL     1       3.913   3.466  17.242  0.00  0.00    +0.000 C 
ATOM      8  C   UNL     1       2.702   4.404  17.211  0.00  0.00    +0.000 C 
ATOM      9  H   UNL     1       6.488   3.833  20.026  0.00  0.00    +0.000 HD
ATOM     10  H   UNL     1       3.135   2.105  18.696  0.00  0.00    +0.000 HD
ENDROOT
BRANCH   1  11
ATOM     11  C   UNL     1       5.509   4.743  15.697  0.00  0.00    +0.000 C 
ATOM     12  O   UNL     1       5.354   5.906  15.364  0.00  0.00    +0.000 OA
BRANCH  11  13
ATOM     13  O   UNL     1       6.000   3.756  14.907  0.00  0.00    +0.000 OA
BRANCH  13  15
ATOM     14  C   UNL     1       6.873   4.041  12.671  0.00  0.00    +0.000 C 
ATOM     15  C   UNL     1       5.637   3.812  13.521  0.00  0.00    +0.000 C 
ENDBRANCH  13  15
ENDBRANCH  11  13
ENDBRANCH   1  11
BRANCH   2  16
ATOM     16  C   UNL     1       7.429   5.094  17.988  0.00  0.00    +0.000 C 
BRANCH  16  17
ATOM     17  O   UNL     1       7.289   6.409  18.580  0.00  0.00    +0.000 OA
BRANCH  17  18
ATOM     18  C   UNL     1       7.725   7.453  17.835  0.00  0.00    +0.000 C 
ATOM     19  O   UNL     1       7.538   7.627  16.640  0.00  0.00    +0.000 OA
BRANCH  18  20
ATOM     20  C   UNL     1       8.488   8.368  18.704  0.00  0.00    +0.000 C 
ATOM     21  C   UNL     1       8.623   9.656  18.350  0.00  0.00    +0.000 C 
BRANCH  21  22
ATOM     22  C   UNL     1       9.348  10.569  19.164  0.00  0.00    +0.000 A 
ATOM     23  C   UNL     1      10.647  11.041  18.997  0.00  0.00    +0.000 A 
ATOM     24  C   UNL     1      10.930  11.933  20.058  0.00  0.00    +0.000 A 
ATOM     25  C   UNL     1       9.797  11.967  20.833  0.00  0.00    +0.000 A 
ATOM     26  C   UNL     1       9.428  12.683  22.070  0.00  0.00    +0.000 C 
ATOM     27  O   UNL     1       8.844  11.156  20.304  0.00  0.00    +0.000 OA
ENDBRANCH  21  22
ENDBRANCH  18  20
ENDBRANCH  17  18
ENDBRANCH  16  17
ENDBRANCH   2  16
TORSDOF 8
ENDMDL
MODEL 7
REMARK VINA RESULT:      -7.2      1.629      2.047
REMARK  Name = 
REMARK  11 active torsions:
REMARK  status: ('A' for Active; 'I' for Inactive)
REMARK    1  A    between atoms: C_1  and  C_2
REMARK    2  A    between atoms: C_2  and  O_3
REMARK    3  A    between atoms: O_3  and  C_4
REMARK    4  A    between atoms: C_4  and  C_6
REMARK    5  A    between atoms: C_7  and  C_8
REMARK    6  A    between atoms: C_8  and  O_9
REMARK    7  A    between atoms: O_9  and  C_10
REMARK    8  A    between atoms: C_10  and  C_12
REMARK    9  A    between atoms: C_13  and  C_14
REMARK   10  A    between atoms: C_17  and  C_18
REMARK   11  A    between atoms: C_24  and  C_25
REMARK                            x       y       z     vdW  Elec       q    Type
REMARK                         _______ _______ _______ _____ _____    ______ ____
ROOT
ATOM      1  C   UNL     1       3.103   3.862  18.869  0.00  0.00    +0.000 C 
ATOM      2  C   UNL     1       4.346   3.458  18.529  0.00  0.00    +0.000 C 
ATOM      3  N   UNL     1       5.038   2.667  19.422  0.00  0.00    +0.000 N 
ATOM      4  C   UNL     1       4.545   2.160  20.584  0.00  0.00    +0.000 C 
ATOM      5  O   UNL     1       5.190   1.397  21.291  0.00  0.00    +0.000 OA
ATOM      6  N   UNL     1       3.277   2.518  20.900  0.00  0.00    +0.000 N 
ATOM      7  C   UNL     1       2.500   3.532  20.214  0.00  0.00    +0.000 C 
ATOM      8  C   UNL     1       2.368   4.763  21.116  0.00  0.00    +0.000 C 
ATOM      9  H   UNL     1       5.968   2.347  19.170  0.00  0.00    +0.000 HD
ATOM     10  H   UNL     1       2.936   2.130  21.769  0.00  0.00    +0.000 HD
ENDROOT
BRANCH   1  11
ATOM     11  C   UNL     1       2.264   4.635  17.914  0.00  0.00    +0.000 C 
ATOM     12  O   UNL     1       1.275   4.204  17.346  0.00  0.00    +0.000 OA
BRANCH  11  13
ATOM     13  O   UNL     1       2.751   5.897  17.800  0.00  0.00    +0.000 OA
BRANCH  13  15
ATOM     14  C   UNL     1       2.283   8.054  18.785  0.00  0.00    +0.000 C 
ATOM     15  C   UNL     1       1.787   6.957  17.862  0.00  0.00    +0.000 C 
ENDBRANCH  13  15
ENDBRANCH  11  13
ENDBRANCH   1  11
BRANCH   2  16
ATOM     16  C   UNL     1       5.061   3.764  17.220  0.00  0.00    +0.000 C 
BRANCH  16  17
ATOM     17  O   UNL     1       6.128   4.717  17.448  0.00  0.00    +0.000 OA
BRANCH  17  18
ATOM     18  C   UNL     1       6.818   5.119  16.355  0.00  0.00    +0.000 C 
ATOM     19  O   UNL     1       7.578   6.073  16.279  0.00  0.00    +0.000 OA
BRANCH  18  20
ATOM     20  C   UNL     1       6.500   4.214  15.235  0.00  0.00    +0.000 C 
ATOM     21  C   UNL     1       5.911   4.707  14.134  0.00  0.00    +0.000 C 
BRANCH  21  22
ATOM     22  C   UNL     1       5.592   3.866  13.032  0.00  0.00    +0.000 A 
ATOM     23  C   UNL     1       6.337   2.823  12.490  0.00  0.00    +0.000 A 
ATOM     24  C   UNL     1       5.609   2.282  11.403  0.00  0.00    +0.000 A 
ATOM     25  C   UNL     1       4.452   3.017  11.323  0.00  0.00    +0.000 A 
ATOM     26  C   UNL     1       3.279   2.978  10.428  0.00  0.00    +0.000 C 
ATOM     27  O   UNL     1       4.433   3.966  12.295  0.00  0.00    +0.000 OA
ENDBRANCH  21  22
ENDBRANCH  18  20
ENDBRANCH  17  18
ENDBRANCH  16  17
ENDBRANCH   2  16
TORSDOF 8
ENDMDL
MODEL 8
REMARK VINA RESULT:      -7.1      1.093      1.345
REMARK  Name = 
REMARK  11 active torsions:
REMARK  status: ('A' for Active; 'I' for Inactive)
REMARK    1  A    between atoms: C_1  and  C_2
REMARK    2  A    between atoms: C_2  and  O_3
REMARK    3  A    between atoms: O_3  and  C_4
REMARK    4  A    between atoms: C_4  and  C_6
REMARK    5  A    between atoms: C_7  and  C_8
REMARK    6  A    between atoms: C_8  and  O_9
REMARK    7  A    between atoms: O_9  and  C_10
REMARK    8  A    between atoms: C_10  and  C_12
REMARK    9  A    between atoms: C_13  and  C_14
REMARK   10  A    between atoms: C_17  and  C_18
REMARK   11  A    between atoms: C_24  and  C_25
REMARK                            x       y       z     vdW  Elec       q    Type
REMARK                         _______ _______ _______ _____ _____    ______ ____
ROOT
ATOM      1  C   UNL     1       2.994   4.850  18.882  0.00  0.00    +0.000 C 
ATOM      2  C   UNL     1       4.261   4.404  19.029  0.00  0.00    +0.000 C 
ATOM      3  N   UNL     1       4.482   3.045  18.963  0.00  0.00    +0.000 N 
ATOM      4  C   UNL     1       3.552   2.101  18.654  0.00  0.00    +0.000 C 
ATOM      5  O   UNL     1       3.837   0.917  18.533  0.00  0.00    +0.000 OA
ATOM      6  N   UNL     1       2.291   2.551  18.450  0.00  0.00    +0.000 N 
ATOM      7  C   UNL     1       1.831   3.899  18.725  0.00  0.00    +0.000 C 
ATOM      8  C   UNL     1       0.918   3.881  19.954  0.00  0.00    +0.000 C 
ATOM      9  H   UNL     1       5.433   2.701  19.058  0.00  0.00    +0.000 HD
ATOM     10  H   UNL     1       1.619   1.830  18.226  0.00  0.00    +0.000 HD
ENDROOT
BRANCH   1  11
ATOM     11  C   UNL     1       2.698   6.307  18.847  0.00  0.00    +0.000 C 
ATOM     12  O   UNL     1       2.663   6.988  17.835  0.00  0.00    +0.000 OA
BRANCH  11  13
ATOM     13  O   UNL     1       2.441   6.750  20.104  0.00  0.00    +0.000 OA
BRANCH  13  15
ATOM     14  C   UNL     1       1.489   8.336  21.659  0.00  0.00    +0.000 C 
ATOM     15  C   UNL     1       1.573   7.885  20.212  0.00  0.00    +0.000 C 
ENDBRANCH  13  15
ENDBRANCH  11  13
ENDBRANCH   1  11
BRANCH   2  16
ATOM     16  C   UNL     1       5.497   5.269  19.230  0.00  0.00    +0.000 C 
BRANCH  16  17
ATOM     17  O   UNL     1       5.713   6.106  18.068  0.00  0.00    +0.000 OA
BRANCH  17  18
ATOM     18  C   UNL     1       6.999   6.270  17.675  0.00  0.00    +0.000 C 
ATOM     19  O   UNL     1       7.938   6.621  18.374  0.00  0.00    +0.000 OA
BRANCH  18  20
ATOM     20  C   UNL     1       7.098   5.962  16.237  0.00  0.00    +0.000 C 
ATOM     21  C   UNL     1       6.616   4.798  15.776  0.00  0.00    +0.000 C 
BRANCH  21  22
ATOM     22  C   UNL     1       6.690   4.467  14.395  0.00  0.00    +0.000 A 
ATOM     23  C   UNL     1       7.522   5.001  13.415  0.00  0.00    +0.000 A 
ATOM     24  C   UNL     1       7.230   4.355  12.191  0.00  0.00    +0.000 A 
ATOM     25  C   UNL     1       6.231   3.455  12.469  0.00  0.00    +0.000 A 
ATOM     26  C   UNL     1       5.480   2.480  11.654  0.00  0.00    +0.000 C 
ATOM     27  O   UNL     1       5.903   3.514  13.787  0.00  0.00    +0.000 OA
ENDBRANCH  21  22
ENDBRANCH  18  20
ENDBRANCH  17  18
ENDBRANCH  16  17
ENDBRANCH   2  16
TORSDOF 8
ENDMDL
MODEL 9
REMARK VINA RESULT:      -7.1      3.137      4.894
REMARK  Name = 
REMARK  11 active torsions:
REMARK  status: ('A' for Active; 'I' for Inactive)
REMARK    1  A    between atoms: C_1  and  C_2
REMARK    2  A    between atoms: C_2  and  O_3
REMARK    3  A    between atoms: O_3  and  C_4
REMARK    4  A    between atoms: C_4  and  C_6
REMARK    5  A    between atoms: C_7  and  C_8
REMARK    6  A    between atoms: C_8  and  O_9
REMARK    7  A    between atoms: O_9  and  C_10
REMARK    8  A    between atoms: C_10  and  C_12
REMARK    9  A    between atoms: C_13  and  C_14
REMARK   10  A    between atoms: C_17  and  C_18
REMARK   11  A    between atoms: C_24  and  C_25
REMARK                            x       y       z     vdW  Elec       q    Type
REMARK                         _______ _______ _______ _____ _____    ______ ____
ROOT
ATOM      1  C   UNL     1       3.058   3.678  19.034  0.00  0.00    +0.000 C 
ATOM      2  C   UNL     1       4.372   3.571  18.737  0.00  0.00    +0.000 C 
ATOM      3  N   UNL     1       5.174   2.849  19.596  0.00  0.00    +0.000 N 
ATOM      4  C   UNL     1       4.747   2.133  20.671  0.00  0.00    +0.000 C 
ATOM      5  O   UNL     1       5.506   1.447  21.343  0.00  0.00    +0.000 OA
ATOM      6  N   UNL     1       3.420   2.192  20.938  0.00  0.00    +0.000 N 
ATOM      7  C   UNL     1       2.479   3.094  20.301  0.00  0.00    +0.000 C 
ATOM      8  C   UNL     1       2.056   4.172  21.303  0.00  0.00    +0.000 C 
ATOM      9  H   UNL     1       6.159   2.751  19.374  0.00  0.00    +0.000 HD
ATOM     10  H   UNL     1       3.129   1.655  21.743  0.00  0.00    +0.000 HD
ENDROOT
BRANCH   1  11
ATOM     11  C   UNL     1       2.119   4.360  18.103  0.00  0.00    +0.000 C 
ATOM     12  O   UNL     1       1.593   3.838  17.135  0.00  0.00    +0.000 OA
BRANCH  11  13
ATOM     13  O   UNL     1       1.916   5.637  18.517  0.00  0.00    +0.000 OA
BRANCH  13  15
ATOM     14  C   UNL     1       2.663   7.935  18.500  0.00  0.00    +0.000 C 
ATOM     15  C   UNL     1       2.469   6.668  17.688  0.00  0.00    +0.000 C 
ENDBRANCH  13  15
ENDBRANCH  11  13
ENDBRANCH   1  11
BRANCH   2  16
ATOM     16  C   UNL     1       5.063   4.151  17.511  0.00  0.00    +0.000 C 
BRANCH  16  17
ATOM     17  O   UNL     1       5.955   5.222  17.904  0.00  0.00    +0.000 OA
BRANCH  17  18
ATOM     18  C   UNL     1       7.066   5.388  17.147  0.00  0.00    +0.000 C 
ATOM     19  O   UNL     1       7.670   4.520  16.535  0.00  0.00    +0.000 OA
BRANCH  18  20
ATOM     20  C   UNL     1       7.453   6.811  17.180  0.00  0.00    +0.000 C 
ATOM     21  C   UNL     1       7.969   7.329  18.305  0.00  0.00    +0.000 C 
BRANCH  21  22
ATOM     22  C   UNL     1       8.358   8.695  18.374  0.00  0.00    +0.000 A 
ATOM     23  C   UNL     1       8.039   9.735  17.506  0.00  0.00    +0.000 A 
ATOM     24  C   UNL     1       8.656  10.914  17.988  0.00  0.00    +0.000 A 
ATOM     25  C   UNL     1       9.330  10.548  19.127  0.00  0.00    +0.000 A 
ATOM     26  C   UNL     1      10.166  11.280  20.098  0.00  0.00    +0.000 C 
ATOM     27  O   UNL     1       9.155   9.221  19.367  0.00  0.00    +0.000 OA
ENDBRANCH  21  22
ENDBRANCH  18  20
ENDBRANCH  17  18
ENDBRANCH  16  17
ENDBRANCH   2  16
TORSDOF 8
ENDMDL
