MODEL 1
REMARK VINA RESULT:      -7.3      0.000      0.000
REMARK  Name = 
REMARK  6 active torsions:
REMARK  status: ('A' for Active; 'I' for Inactive)
REMARK    1  A    between atoms: C_1  and  C_2
REMARK    2  A    between atoms: C_2  and  O_3
REMARK    3  A    between atoms: O_3  and  C_4
REMARK    4  A    between atoms: C_4  and  C_6
REMARK    5  A    between atoms: C_7  and  C_8
REMARK    6  A    between atoms: C_22  and  C_23
REMARK                            x       y       z     vdW  Elec       q    Type
REMARK                         _______ _______ _______ _____ _____    ______ ____
ROOT
ATOM      1  C   UNL     1       3.654   4.009  18.059  0.00  0.00    +0.000 C 
ATOM      2  C   UNL     1       4.343   3.176  18.878  0.00  0.00    +0.000 C 
ATOM      3  N   UNL     1       5.587   3.588  19.366  0.00  0.00    +0.000 N 
ATOM      4  C   UNL     1       6.192   4.742  19.032  0.00  0.00    +0.000 A 
ATOM      5  N   UNL     1       7.369   5.188  19.386  0.00  0.00    +0.000 NA
ATOM      6  C   UNL     1       7.488   6.411  18.766  0.00  0.00    +0.000 A 
ATOM      7  C   UNL     1       8.537   7.342  18.821  0.00  0.00    +0.000 A 
ATOM      8  C   UNL     1       8.415   8.539  18.106  0.00  0.00    +0.000 A 
ATOM      9  C   UNL     1       7.279   8.801  17.337  0.00  0.00    +0.000 A 
ATOM     10  C   UNL     1       6.228   7.883  17.261  0.00  0.00    +0.000 A 
ATOM     11  C   UNL     1       6.361   6.702  17.997  0.00  0.00    +0.000 A 
ATOM     12  N   UNL     1       5.540   5.621  18.212  0.00  0.00    +0.000 N 
ATOM     13  C   UNL     1       4.179   5.398  17.711  0.00  0.00    +0.000 C 
ATOM     14  H   UNL     1       6.102   2.919  19.942  0.00  0.00    +0.000 HD
ENDROOT
BRANCH  13  15
ATOM     15  C   UNL     1       3.279   6.485  18.252  0.00  0.00    +0.000 A 
ATOM     16  C   UNL     1       2.668   7.565  17.544  0.00  0.00    +0.000 A 
ATOM     17  C   UNL     1       1.935   8.274  18.466  0.00  0.00    +0.000 A 
ATOM     18  O   UNL     1       2.054   7.713  19.696  0.00  0.00    +0.000 OA
ATOM     19  C   UNL     1       2.868   6.638  19.563  0.00  0.00    +0.000 A 
ENDBRANCH  13  15
BRANCH   2  20
ATOM     20  C   UNL     1       3.872   1.782  19.290  0.00  0.00    +0.000 C 
ATOM     21  F   UNL     1       4.917   1.053  19.778  0.00  0.00    +0.000 F 
ATOM     22  F   UNL     1       2.947   1.807  20.281  0.00  0.00    +0.000 F 
ATOM     23  F   UNL     1       3.367   1.076  18.249  0.00  0.00    +0.000 F 
ENDBRANCH   2  20
BRANCH   1  24
ATOM     24  C   UNL     1       2.333   3.728  17.444  0.00  0.00    +0.000 C 
ATOM     25  O   UNL     1       2.212   3.265  16.323  0.00  0.00    +0.000 OA
BRANCH  24  26
ATOM     26  O   UNL     1       1.351   4.242  18.208  0.00  0.00    +0.000 OA
BRANCH  26  28
ATOM     27  C   UNL     1       0.787   3.842  20.476  0.00  0.00    +0.000 C 
ATOM     28  C   UNL     1       0.658   3.319  19.057  0.00  0.00    +0.000 C 
ENDBRANCH  26  28
ENDBRANCH  24  26
ENDBRANCH   1  24
TORSDOF 5
ENDMDL
MODEL 2
REMARK VINA RESULT:      -7.2      3.027      5.525
REMARK  Name = 
REMARK  6 active torsions:
REMARK  status: ('A' for Active; 'I' for Inactive)
REMARK    1  A    between atoms: C_1  and  C_2
REMARK    2  A    between atoms: C_2  and  O_3
REMARK    3  A    between atoms: O_3  and  C_4
REMARK    4  A    between atoms: C_4  and  C_6
REMARK    5  A    between atoms: C_7  and  C_8
REMARK    6  A    between atoms: C_22  and  C_23
REMARK                            x       y       z     vdW  Elec       q    Type
REMARK                         _______ _______ _______ _____ _____    ______ ____
ROOT
ATOM      1  C   UNL     1       5.495   5.438  17.031  0.00  0.00    +0.000 C 
ATOM      2  C   UNL     1       5.411   4.464  16.091  0.00  0.00    +0.000 C 
ATOM      3  N   UNL     1       4.518   3.407  16.295  0.00  0.00    +0.000 N 
ATOM      4  C   UNL     1       3.767   3.247  17.399  0.00  0.00    +0.000 A 
ATOM      5  N   UNL     1       2.952   2.272  17.708  0.00  0.00    +0.000 NA
ATOM      6  C   UNL     1       2.445   2.609  18.942  0.00  0.00    +0.000 A 
ATOM      7  C   UNL     1       1.503   1.935  19.735  0.00  0.00    +0.000 A 
ATOM      8  C   UNL     1       1.130   2.494  20.963  0.00  0.00    +0.000 A 
ATOM      9  C   UNL     1       1.694   3.693  21.404  0.00  0.00    +0.000 A 
ATOM     10  C   UNL     1       2.641   4.374  20.635  0.00  0.00    +0.000 A 
ATOM     11  C   UNL     1       2.986   3.809  19.403  0.00  0.00    +0.000 A 
ATOM     12  N   UNL     1       3.810   4.203  18.376  0.00  0.00    +0.000 N 
ATOM     13  C   UNL     1       4.601   5.434  18.265  0.00  0.00    +0.000 C 
ATOM     14  H   UNL     1       4.511   2.664  15.593  0.00  0.00    +0.000 HD
ENDROOT
BRANCH  13  15
ATOM     15  C   UNL     1       3.659   6.617  18.275  0.00  0.00    +0.000 A 
ATOM     16  C   UNL     1       3.189   7.387  17.167  0.00  0.00    +0.000 A 
ATOM     17  C   UNL     1       2.346   8.342  17.683  0.00  0.00    +0.000 A 
ATOM     18  O   UNL     1       2.265   8.222  19.032  0.00  0.00    +0.000 OA
ATOM     19  C   UNL     1       3.061   7.183  19.385  0.00  0.00    +0.000 A 
ENDBRANCH  13  15
BRANCH   2  20
ATOM     20  C   UNL     1       6.255   4.411  14.818  0.00  0.00    +0.000 C 
ATOM     21  F   UNL     1       6.039   5.524  14.059  0.00  0.00    +0.000 F 
ATOM     22  F   UNL     1       7.587   4.388  15.068  0.00  0.00    +0.000 F 
ATOM     23  F   UNL     1       5.947   3.349  14.035  0.00  0.00    +0.000 F 
ENDBRANCH   2  20
BRANCH   1  24
ATOM     24  C   UNL     1       6.393   6.618  16.980  0.00  0.00    +0.000 C 
ATOM     25  O   UNL     1       6.078   7.664  16.437  0.00  0.00    +0.000 OA
BRANCH  24  26
ATOM     26  O   UNL     1       7.619   6.285  17.422  0.00  0.00    +0.000 OA
BRANCH  26  28
ATOM     27  C   UNL     1       8.025   5.667  19.675  0.00  0.00    +0.000 C 
ATOM     28  C   UNL     1       8.006   6.822  18.692  0.00  0.00    +0.000 C 
ENDBRANCH  26  28
ENDBRANCH  24  26
ENDBRANCH   1  24
TORSDOF 5
ENDMDL
MODEL 3
REMARK VINA RESULT:      -7.1      3.061      5.551
REMARK  Name = 
REMARK  6 active torsions:
REMARK  status: ('A' for Active; 'I' for Inactive)
REMARK    1  A    between atoms: C_1  and  C_2
REMARK    2  A    between atoms: C_2  and  O_3
REMARK    3  A    between atoms: O_3  and  C_4
REMARK    4  A    between atoms: C_4  and  C_6
REMARK    5  A    between atoms: C_7  and  C_8
REMARK    6  A    between atoms: C_22  and  C_23
REMARK                            x       y       z     vdW  Elec       q    Type
REMARK                         _______ _______ _______ _____ _____    ______ ____
ROOT
ATOM      1  C   UNL     1       5.520   5.498  17.000  0.00  0.00    +0.000 C 
ATOM      2  C   UNL     1       5.474   4.498  16.084  0.00  0.00    +0.000 C 
ATOM      3  N   UNL     1       4.585   3.439  16.290  0.00  0.00    +0.000 N 
ATOM      4  C   UNL     1       3.802   3.301  17.374  0.00  0.00    +0.000 A 
ATOM      5  N   UNL     1       2.987   2.326  17.685  0.00  0.00    +0.000 NA
ATOM      6  C   UNL     1       2.439   2.691  18.894  0.00  0.00    +0.000 A 
ATOM      7  C   UNL     1       1.480   2.029  19.675  0.00  0.00    +0.000 A 
ATOM      8  C   UNL     1       1.064   2.617  20.876  0.00  0.00    +0.000 A 
ATOM      9  C   UNL     1       1.603   3.833  21.301  0.00  0.00    +0.000 A 
ATOM     10  C   UNL     1       2.567   4.502  20.543  0.00  0.00    +0.000 A 
ATOM     11  C   UNL     1       2.955   3.908  19.338  0.00  0.00    +0.000 A 
ATOM     12  N   UNL     1       3.806   4.283  18.327  0.00  0.00    +0.000 N 
ATOM     13  C   UNL     1       4.589   5.518  18.206  0.00  0.00    +0.000 C 
ATOM     14  H   UNL     1       4.606   2.677  15.608  0.00  0.00    +0.000 HD
ENDROOT
BRANCH  13  15
ATOM     15  C   UNL     1       3.637   6.691  18.156  0.00  0.00    +0.000 A 
ATOM     16  C   UNL     1       2.942   7.317  19.236  0.00  0.00    +0.000 A 
ATOM     17  C   UNL     1       2.211   8.345  18.689  0.00  0.00    +0.000 A 
ATOM     18  O   UNL     1       2.400   8.397  17.347  0.00  0.00    +0.000 OA
ATOM     19  C   UNL     1       3.257   7.396  17.029  0.00  0.00    +0.000 A 
ENDBRANCH  13  15
BRANCH   2  20
ATOM     20  C   UNL     1       6.357   4.420  14.840  0.00  0.00    +0.000 C 
ATOM     21  F   UNL     1       7.672   4.337  15.195  0.00  0.00    +0.000 F 
ATOM     22  F   UNL     1       6.109   3.323  14.084  0.00  0.00    +0.000 F 
ATOM     23  F   UNL     1       6.243   5.518  14.053  0.00  0.00    +0.000 F 
ENDBRANCH   2  20
BRANCH   1  24
ATOM     24  C   UNL     1       6.408   6.686  16.945  0.00  0.00    +0.000 C 
ATOM     25  O   UNL     1       6.080   7.731  16.408  0.00  0.00    +0.000 OA
BRANCH  24  26
ATOM     26  O   UNL     1       7.642   6.360  17.373  0.00  0.00    +0.000 OA
BRANCH  26  28
ATOM     27  C   UNL     1       7.995   5.693  19.621  0.00  0.00    +0.000 C 
ATOM     28  C   UNL     1       8.023   6.866  18.659  0.00  0.00    +0.000 C 
ENDBRANCH  26  28
ENDBRANCH  24  26
ENDBRANCH   1  24
TORSDOF 5
ENDMDL
MODEL 4
REMARK VINA RESULT:      -6.9      6.767      9.793
REMARK  Name = 
REMARK  6 active torsions:
REMARK  status: ('A' for Active; 'I' for Inactive)
REMARK    1  A    between atoms: C_1  and  C_2
REMARK    2  A    between atoms: C_2  and  O_3
REMARK    3  A    between atoms: O_3  and  C_4
REMARK    4  A    between atoms: C_4  and  C_6
REMARK    5  A    between atoms: C_7  and  C_8
REMARK    6  A    between atoms: C_22  and  C_23
REMARK                            x       y       z     vdW  Elec       q    Type
REMARK                         _______ _______ _______ _____ _____    ______ ____
ROOT
ATOM      1  C   UNL     1      -0.163  10.702  19.731  0.00  0.00    +0.000 C 
ATOM      2  C   UNL     1       0.195  10.189  18.527  0.00  0.00    +0.000 C 
ATOM      3  N   UNL     1      -0.708  10.280  17.463  0.00  0.00    +0.000 N 
ATOM      4  C   UNL     1      -1.948  10.790  17.557  0.00  0.00    +0.000 A 
ATOM      5  N   UNL     1      -2.881  10.866  16.643  0.00  0.00    +0.000 NA
ATOM      6  C   UNL     1      -3.945  11.476  17.269  0.00  0.00    +0.000 A 
ATOM      7  C   UNL     1      -5.199  11.834  16.752  0.00  0.00    +0.000 A 
ATOM      8  C   UNL     1      -6.120  12.468  17.594  0.00  0.00    +0.000 A 
ATOM      9  C   UNL     1      -5.808  12.728  18.930  0.00  0.00    +0.000 A 
ATOM     10  C   UNL     1      -4.569  12.370  19.466  0.00  0.00    +0.000 A 
ATOM     11  C   UNL     1      -3.655  11.755  18.605  0.00  0.00    +0.000 A 
ATOM     12  N   UNL     1      -2.358  11.325  18.747  0.00  0.00    +0.000 N 
ATOM     13  C   UNL     1      -1.492  11.421  19.928  0.00  0.00    +0.000 C 
ATOM     14  H   UNL     1      -0.430   9.842  16.581  0.00  0.00    +0.000 HD
ENDROOT
BRANCH  13  15
ATOM     15  C   UNL     1      -1.292  12.881  20.265  0.00  0.00    +0.000 A 
ATOM     16  C   UNL     1      -0.689  13.902  19.467  0.00  0.00    +0.000 A 
ATOM     17  C   UNL     1      -0.755  15.062  20.200  0.00  0.00    +0.000 A 
ATOM     18  O   UNL     1      -1.350  14.832  21.397  0.00  0.00    +0.000 OA
ATOM     19  C   UNL     1      -1.669  13.515  21.434  0.00  0.00    +0.000 A 
ENDBRANCH  13  15
BRANCH   2  20
ATOM     20  C   UNL     1       1.517   9.478  18.245  0.00  0.00    +0.000 C 
ATOM     21  F   UNL     1       1.843   8.654  19.283  0.00  0.00    +0.000 F 
ATOM     22  F   UNL     1       1.467   8.684  17.147  0.00  0.00    +0.000 F 
ATOM     23  F   UNL     1       2.551  10.342  18.103  0.00  0.00    +0.000 F 
ENDBRANCH   2  20
BRANCH   1  24
ATOM     24  C   UNL     1       0.664  10.682  20.963  0.00  0.00    +0.000 C 
ATOM     25  O   UNL     1       1.510  11.527  21.204  0.00  0.00    +0.000 OA
BRANCH  24  26
ATOM     26  O   UNL     1       0.479   9.524  21.624  0.00  0.00    +0.000 OA
BRANCH  26  28
ATOM     27  C   UNL     1      -1.019  10.350  23.266  0.00  0.00    +0.000 C 
ATOM     28  C   UNL     1       0.293   9.623  23.041  0.00  0.00    +0.000 C 
ENDBRANCH  26  28
ENDBRANCH  24  26
ENDBRANCH   1  24
TORSDOF 5
ENDMDL
MODEL 5
REMARK VINA RESULT:      -6.7      3.890      5.759
REMARK  Name = 
REMARK  6 active torsions:
REMARK  status: ('A' for Active; 'I' for Inactive)
REMARK    1  A    between atoms: C_1  and  C_2
REMARK    2  A    between atoms: C_2  and  O_3
REMARK    3  A    between atoms: O_3  and  C_4
REMARK    4  A    between atoms: C_4  and  C_6
REMARK    5  A    between atoms: C_7  and  C_8
REMARK    6  A    between atoms: C_22  and  C_23
REMARK                            x       y       z     vdW  Elec       q    Type
REMARK                         _______ _______ _______ _____ _____    ______ ____
ROOT
ATOM      1  C   UNL     1       1.757   7.896  19.887  0.00  0.00    +0.000 C 
ATOM      2  C   UNL     1       1.554   8.677  18.796  0.00  0.00    +0.000 C 
ATOM      3  N   UNL     1       2.353   8.474  17.666  0.00  0.00    +0.000 N 
ATOM      4  C   UNL     1       3.363   7.590  17.596  0.00  0.00    +0.000 A 
ATOM      5  N   UNL     1       4.197   7.367  16.614  0.00  0.00    +0.000 NA
ATOM      6  C   UNL     1       5.022   6.363  17.067  0.00  0.00    +0.000 A 
ATOM      7  C   UNL     1       6.080   5.712  16.413  0.00  0.00    +0.000 A 
ATOM      8  C   UNL     1       6.768   4.697  17.088  0.00  0.00    +0.000 A 
ATOM      9  C   UNL     1       6.422   4.343  18.394  0.00  0.00    +0.000 A 
ATOM     10  C   UNL     1       5.379   4.986  19.066  0.00  0.00    +0.000 A 
ATOM     11  C   UNL     1       4.692   5.984  18.369  0.00  0.00    +0.000 A 
ATOM     12  N   UNL     1       3.608   6.774  18.666  0.00  0.00    +0.000 N 
ATOM     13  C   UNL     1       2.787   6.773  19.883  0.00  0.00    +0.000 C 
ATOM     14  H   UNL     1       2.208   9.108  16.878  0.00  0.00    +0.000 HD
ENDROOT
BRANCH  13  15
ATOM     15  C   UNL     1       2.135   5.417  20.026  0.00  0.00    +0.000 A 
ATOM     16  C   UNL     1       2.135   4.548  21.161  0.00  0.00    +0.000 A 
ATOM     17  C   UNL     1       1.398   3.443  20.807  0.00  0.00    +0.000 A 
ATOM     18  O   UNL     1       0.947   3.563  19.533  0.00  0.00    +0.000 OA
ATOM     19  C   UNL     1       1.397   4.753  19.065  0.00  0.00    +0.000 A 
ENDBRANCH  13  15
BRANCH   2  20
ATOM     20  C   UNL     1       0.527   9.805  18.716  0.00  0.00    +0.000 C 
ATOM     21  F   UNL     1       0.095   9.963  17.432  0.00  0.00    +0.000 F 
ATOM     22  F   UNL     1      -0.586   9.559  19.451  0.00  0.00    +0.000 F 
ATOM     23  F   UNL     1       1.038  11.001  19.097  0.00  0.00    +0.000 F 
ENDBRANCH   2  20
BRANCH   1  24
ATOM     24  C   UNL     1       1.013   7.984  21.168  0.00  0.00    +0.000 C 
ATOM     25  O   UNL     1       0.013   7.324  21.397  0.00  0.00    +0.000 OA
BRANCH  24  26
ATOM     26  O   UNL     1       1.480   9.009  21.904  0.00  0.00    +0.000 OA
BRANCH  26  28
ATOM     27  C   UNL     1      -0.205  10.586  22.451  0.00  0.00    +0.000 C 
ATOM     28  C   UNL     1       0.646   9.449  22.983  0.00  0.00    +0.000 C 
ENDBRANCH  26  28
ENDBRANCH  24  26
ENDBRANCH   1  24
TORSDOF 5
ENDMDL
MODEL 6
REMARK VINA RESULT:      -6.7      3.689      5.969
REMARK  Name = 
REMARK  6 active torsions:
REMARK  status: ('A' for Active; 'I' for Inactive)
REMARK    1  A    between atoms: C_1  and  C_2
REMARK    2  A    between atoms: C_2  and  O_3
REMARK    3  A    between atoms: O_3  and  C_4
REMARK    4  A    between atoms: C_4  and  C_6
REMARK    5  A    between atoms: C_7  and  C_8
REMARK    6  A    between atoms: C_22  and  C_23
REMARK                            x       y       z     vdW  Elec       q    Type
REMARK                         _______ _______ _______ _____ _____    ______ ____
ROOT
ATOM      1  C   UNL     1       2.002   7.748  18.881  0.00  0.00    +0.000 C 
ATOM      2  C   UNL     1       1.734   7.712  20.210  0.00  0.00    +0.000 C 
ATOM      3  N   UNL     1       1.906   6.506  20.898  0.00  0.00    +0.000 N 
ATOM      4  C   UNL     1       2.265   5.345  20.323  0.00  0.00    +0.000 A 
ATOM      5  N   UNL     1       2.395   4.162  20.865  0.00  0.00    +0.000 NA
ATOM      6  C   UNL     1       2.781   3.338  19.833  0.00  0.00    +0.000 A 
ATOM      7  C   UNL     1       3.090   1.969  19.850  0.00  0.00    +0.000 A 
ATOM      8  C   UNL     1       3.479   1.349  18.657  0.00  0.00    +0.000 A 
ATOM      9  C   UNL     1       3.546   2.071  17.464  0.00  0.00    +0.000 A 
ATOM     10  C   UNL     1       3.232   3.432  17.423  0.00  0.00    +0.000 A 
ATOM     11  C   UNL     1       2.864   4.037  18.628  0.00  0.00    +0.000 A 
ATOM     12  N   UNL     1       2.551   5.326  18.986  0.00  0.00    +0.000 N 
ATOM     13  C   UNL     1       2.539   6.528  18.143  0.00  0.00    +0.000 C 
ATOM     14  H   UNL     1       1.651   6.498  21.888  0.00  0.00    +0.000 HD
ENDROOT
BRANCH  13  15
ATOM     15  C   UNL     1       3.936   6.764  17.617  0.00  0.00    +0.000 A 
ATOM     16  C   UNL     1       5.166   6.795  18.345  0.00  0.00    +0.000 A 
ATOM     17  C   UNL     1       6.160   7.030  17.425  0.00  0.00    +0.000 A 
ATOM     18  O   UNL     1       5.633   7.152  16.180  0.00  0.00    +0.000 OA
ATOM     19  C   UNL     1       4.293   6.994  16.301  0.00  0.00    +0.000 A 
ENDBRANCH  13  15
BRANCH   2  20
ATOM     20  C   UNL     1       1.217   8.897  21.023  0.00  0.00    +0.000 C 
ATOM     21  F   UNL     1       1.575   8.768  22.333  0.00  0.00    +0.000 F 
ATOM     22  F   UNL     1       1.733  10.083  20.616  0.00  0.00    +0.000 F 
ATOM     23  F   UNL     1      -0.135   8.989  21.005  0.00  0.00    +0.000 F 
ENDBRANCH   2  20
BRANCH   1  24
ATOM     24  C   UNL     1       1.864   8.933  17.999  0.00  0.00    +0.000 C 
ATOM     25  O   UNL     1       2.735   9.780  17.890  0.00  0.00    +0.000 OA
BRANCH  24  26
ATOM     26  O   UNL     1       0.603   9.018  17.535  0.00  0.00    +0.000 OA
BRANCH  26  28
ATOM     27  C   UNL     1      -1.569   9.966  17.447  0.00  0.00    +0.000 C 
ATOM     28  C   UNL     1      -0.151  10.165  17.948  0.00  0.00    +0.000 C 
ENDBRANCH  26  28
ENDBRANCH  24  26
ENDBRANCH   1  24
TORSDOF 5
ENDMDL
MODEL 7
REMARK VINA RESULT:      -6.6      6.796      9.856
REMARK  Name = 
REMARK  6 active torsions:
REMARK  status: ('A' for Active; 'I' for Inactive)
REMARK    1  A    between atoms: C_1  and  C_2
REMARK    2  A    between atoms: C_2  and  O_3
REMARK    3  A    between atoms: O_3  and  C_4
REMARK    4  A    between atoms: C_4  and  C_6
REMARK    5  A    between atoms: C_7  and  C_8
REMARK    6  A    between atoms: C_22  and  C_23
REMARK                            x       y       z     vdW  Elec       q    Type
REMARK                         _______ _______ _______ _____ _____    ______ ____
ROOT
ATOM      1  C   UNL     1       0.043  11.105  19.760  0.00  0.00    +0.000 C 
ATOM      2  C   UNL     1       0.258  10.324  18.672  0.00  0.00    +0.000 C 
ATOM      3  N   UNL     1      -0.776  10.167  17.743  0.00  0.00    +0.000 N 
ATOM      4  C   UNL     1      -2.007  10.689  17.878  0.00  0.00    +0.000 A 
ATOM      5  N   UNL     1      -3.051  10.552  17.101  0.00  0.00    +0.000 NA
ATOM      6  C   UNL     1      -4.042  11.294  17.701  0.00  0.00    +0.000 A 
ATOM      7  C   UNL     1      -5.361  11.526  17.284  0.00  0.00    +0.000 A 
ATOM      8  C   UNL     1      -6.185  12.342  18.068  0.00  0.00    +0.000 A 
ATOM      9  C   UNL     1      -5.712  12.905  19.255  0.00  0.00    +0.000 A 
ATOM     10  C   UNL     1      -4.405  12.679  19.694  0.00  0.00    +0.000 A 
ATOM     11  C   UNL     1      -3.592  11.877  18.887  0.00  0.00    +0.000 A 
ATOM     12  N   UNL     1      -2.276  11.488  18.955  0.00  0.00    +0.000 N 
ATOM     13  C   UNL     1      -1.269  11.854  19.957  0.00  0.00    +0.000 C 
ATOM     14  H   UNL     1      -0.600   9.535  16.959  0.00  0.00    +0.000 HD
ENDROOT
BRANCH  13  15
ATOM     15  C   UNL     1      -1.069  13.352  19.918  0.00  0.00    +0.000 A 
ATOM     16  C   UNL     1      -0.508  14.145  18.869  0.00  0.00    +0.000 A 
ATOM     17  C   UNL     1      -0.554  15.450  19.298  0.00  0.00    +0.000 A 
ATOM     18  O   UNL     1      -1.097  15.521  20.539  0.00  0.00    +0.000 OA
ATOM     19  C   UNL     1      -1.403  14.254  20.910  0.00  0.00    +0.000 A 
ENDBRANCH  13  15
BRANCH   2  20
ATOM     20  C   UNL     1       1.553   9.563  18.393  0.00  0.00    +0.000 C 
ATOM     21  F   UNL     1       1.414   8.782  17.283  0.00  0.00    +0.000 F 
ATOM     22  F   UNL     1       2.603  10.381  18.139  0.00  0.00    +0.000 F 
ATOM     23  F   UNL     1       1.893   8.729  19.406  0.00  0.00    +0.000 F 
ENDBRANCH   2  20
BRANCH   1  24
ATOM     24  C   UNL     1       1.020  11.371  20.845  0.00  0.00    +0.000 C 
ATOM     25  O   UNL     1       1.793  12.314  20.821  0.00  0.00    +0.000 OA
BRANCH  24  26
ATOM     26  O   UNL     1       1.052  10.334  21.702  0.00  0.00    +0.000 OA
BRANCH  26  28
ATOM     27  C   UNL     1      -0.516   8.646  22.264  0.00  0.00    +0.000 C 
ATOM     28  C   UNL     1      -0.140  10.102  22.463  0.00  0.00    +0.000 C 
ENDBRANCH  26  28
ENDBRANCH  24  26
ENDBRANCH   1  24
TORSDOF 5
ENDMDL
MODEL 8
REMARK VINA RESULT:      -6.6      6.891     10.158
REMARK  Name = 
REMARK  6 active torsions:
REMARK  status: ('A' for Active; 'I' for Inactive)
REMARK    1  A    between atoms: C_1  and  C_2
REMARK    2  A    between atoms: C_2  and  O_3
REMARK    3  A    between atoms: O_3  and  C_4
REMARK    4  A    between atoms: C_4  and  C_6
REMARK    5  A    between atoms: C_7  and  C_8
REMARK    6  A    between atoms: C_22  and  C_23
REMARK                            x       y       z     vdW  Elec       q    Type
REMARK                         _______ _______ _______ _____ _____    ______ ____
ROOT
ATOM      1  C   UNL     1       0.041  11.125  19.606  0.00  0.00    +0.000 C 
ATOM      2  C   UNL     1       0.193  10.269  18.565  0.00  0.00    +0.000 C 
ATOM      3  N   UNL     1      -0.889  10.058  17.704  0.00  0.00    +0.000 N 
ATOM      4  C   UNL     1      -2.108  10.601  17.866  0.00  0.00    +0.000 A 
ATOM      5  N   UNL     1      -3.192  10.422  17.155  0.00  0.00    +0.000 NA
ATOM      6  C   UNL     1      -4.145  11.213  17.753  0.00  0.00    +0.000 A 
ATOM      7  C   UNL     1      -5.483  11.429  17.389  0.00  0.00    +0.000 A 
ATOM      8  C   UNL     1      -6.259  12.306  18.157  0.00  0.00    +0.000 A 
ATOM      9  C   UNL     1      -5.721  12.945  19.275  0.00  0.00    +0.000 A 
ATOM     10  C   UNL     1      -4.394  12.736  19.660  0.00  0.00    +0.000 A 
ATOM     11  C   UNL     1      -3.630  11.872  18.870  0.00  0.00    +0.000 A 
ATOM     12  N   UNL     1      -2.315  11.475  18.897  0.00  0.00    +0.000 N 
ATOM     13  C   UNL     1      -1.255  11.899  19.818  0.00  0.00    +0.000 C 
ATOM     14  H   UNL     1      -0.759   9.372  16.957  0.00  0.00    +0.000 HD
ENDROOT
BRANCH  13  15
ATOM     15  C   UNL     1      -1.046  13.388  19.664  0.00  0.00    +0.000 A 
ATOM     16  C   UNL     1      -1.307  14.424  20.613  0.00  0.00    +0.000 A 
ATOM     17  C   UNL     1      -0.943  15.606  20.013  0.00  0.00    +0.000 A 
ATOM     18  O   UNL     1      -0.482  15.377  18.758  0.00  0.00    +0.000 OA
ATOM     19  C   UNL     1      -0.549  14.039  18.550  0.00  0.00    +0.000 A 
ENDBRANCH  13  15
BRANCH   2  20
ATOM     20  C   UNL     1       1.466   9.476  18.273  0.00  0.00    +0.000 C 
ATOM     21  F   UNL     1       1.239   8.557  17.291  0.00  0.00    +0.000 F 
ATOM     22  F   UNL     1       2.481  10.253  17.821  0.00  0.00    +0.000 F 
ATOM     23  F   UNL     1       1.904   8.783  19.352  0.00  0.00    +0.000 F 
ENDBRANCH   2  20
BRANCH   1  24
ATOM     24  C   UNL     1       1.075  11.455  20.617  0.00  0.00    +0.000 C 
ATOM     25  O   UNL     1       0.966  11.155  21.795  0.00  0.00    +0.000 OA
BRANCH  24  26
ATOM     26  O   UNL     1       1.996  12.280  20.084  0.00  0.00    +0.000 OA
BRANCH  26  28
ATOM     27  C   UNL     1       2.850  14.485  19.913  0.00  0.00    +0.000 C 
ATOM     28  C   UNL     1       2.365  13.417  20.874  0.00  0.00    +0.000 C 
ENDBRANCH  26  28
ENDBRANCH  24  26
ENDBRANCH   1  24
TORSDOF 5
ENDMDL
MODEL 9
REMARK VINA RESULT:      -6.6      6.854      9.912
REMARK  Name = 
REMARK  6 active torsions:
REMARK  status: ('A' for Active; 'I' for Inactive)
REMARK    1  A    between atoms: C_1  and  C_2
REMARK    2  A    between atoms: C_2  and  O_3
REMARK    3  A    between atoms: O_3  and  C_4
REMARK    4  A    between atoms: C_4  and  C_6
REMARK    5  A    between atoms: C_7  and  C_8
REMARK    6  A    between atoms: C_22  and  C_23
REMARK                            x       y       z     vdW  Elec       q    Type
REMARK                         _______ _______ _______ _____ _____    ______ ____
ROOT
ATOM      1  C   UNL     1       0.022  11.162  19.730  0.00  0.00    +0.000 C 
ATOM      2  C   UNL     1       0.238  10.386  18.639  0.00  0.00    +0.000 C 
ATOM      3  N   UNL     1      -0.800  10.219  17.716  0.00  0.00    +0.000 N 
ATOM      4  C   UNL     1      -2.036  10.728  17.860  0.00  0.00    +0.000 A 
ATOM      5  N   UNL     1      -3.083  10.582  17.090  0.00  0.00    +0.000 NA
ATOM      6  C   UNL     1      -4.078  11.313  17.699  0.00  0.00    +0.000 A 
ATOM      7  C   UNL     1      -5.403  11.532  17.290  0.00  0.00    +0.000 A 
ATOM      8  C   UNL     1      -6.229  12.338  18.082  0.00  0.00    +0.000 A 
ATOM      9  C   UNL     1      -5.754  12.904  19.267  0.00  0.00    +0.000 A 
ATOM     10  C   UNL     1      -4.442  12.690  19.696  0.00  0.00    +0.000 A 
ATOM     11  C   UNL     1      -3.627  11.898  18.882  0.00  0.00    +0.000 A 
ATOM     12  N   UNL     1      -2.306  11.523  18.940  0.00  0.00    +0.000 N 
ATOM     13  C   UNL     1      -1.296  11.897  19.937  0.00  0.00    +0.000 C 
ATOM     14  H   UNL     1      -0.623   9.591  16.929  0.00  0.00    +0.000 HD
ENDROOT
BRANCH  13  15
ATOM     15  C   UNL     1      -1.111  13.396  19.899  0.00  0.00    +0.000 A 
ATOM     16  C   UNL     1      -1.443  14.358  20.904  0.00  0.00    +0.000 A 
ATOM     17  C   UNL     1      -1.072  15.585  20.408  0.00  0.00    +0.000 A 
ATOM     18  O   UNL     1      -0.542  15.454  19.167  0.00  0.00    +0.000 OA
ATOM     19  C   UNL     1      -0.570  14.134  18.862  0.00  0.00    +0.000 A 
ENDBRANCH  13  15
BRANCH   2  20
ATOM     20  C   UNL     1       1.538   9.638  18.350  0.00  0.00    +0.000 C 
ATOM     21  F   UNL     1       2.558  10.520  18.144  0.00  0.00    +0.000 F 
ATOM     22  F   UNL     1       1.935   8.850  19.379  0.00  0.00    +0.000 F 
ATOM     23  F   UNL     1       1.461   8.876  17.231  0.00  0.00    +0.000 F 
ENDBRANCH   2  20
BRANCH   1  24
ATOM     24  C   UNL     1       1.004  11.435  20.809  0.00  0.00    +0.000 C 
ATOM     25  O   UNL     1       1.779  12.377  20.773  0.00  0.00    +0.000 OA
BRANCH  24  26
ATOM     26  O   UNL     1       1.036  10.406  21.675  0.00  0.00    +0.000 OA
BRANCH  26  28
ATOM     27  C   UNL     1      -0.516   8.750  22.362  0.00  0.00    +0.000 C 
ATOM     28  C   UNL     1      -0.135  10.214  22.478  0.00  0.00    +0.000 C 
ENDBRANCH  26  28
ENDBRANCH  24  26
ENDBRANCH   1  24
TORSDOF 5
ENDMDL
