MODEL 1
REMARK VINA RESULT:      -6.9      0.000      0.000
REMARK  Name = 
REMARK  7 active torsions:
REMARK  status: ('A' for Active; 'I' for Inactive)
REMARK    1  A    between atoms: C_2  and  C_3
REMARK    2  A    between atoms: C_3  and  C_4
REMARK    3  A    between atoms: C_4  and  N_5
REMARK    4  A    between atoms: N_5  and  C_6
REMARK    5  A    between atoms: N_5  and  S_12
REMARK    6  A    between atoms: C_6  and  C_7
REMARK    7  A    between atoms: S_12  and  C_15
REMARK                            x       y       z     vdW  Elec       q    Type
REMARK                         _______ _______ _______ _____ _____    ______ ____
ROOT
ATOM      1  N   UNL     1       3.374   4.916  18.878  0.00  0.00    +0.000 NA
ENDROOT
BRANCH   1   2
ATOM      2  S   UNL     1       5.012   4.386  19.071  0.00  0.00    +0.000 S 
ATOM      3  O   UNL     1       5.749   5.423  19.771  0.00  0.00    +0.000 OA
ATOM      4  O   UNL     1       5.006   3.018  19.540  0.00  0.00    +0.000 OA
BRANCH   2   5
ATOM      5  C   UNL     1       5.636   4.401  17.405  0.00  0.00    +0.000 A 
ATOM      6  C   UNL     1       4.737   4.238  16.347  0.00  0.00    +0.000 A 
ATOM      7  C   UNL     1       5.197   4.321  15.033  0.00  0.00    +0.000 A 
ATOM      8  C   UNL     1       6.548   4.572  14.789  0.00  0.00    +0.000 A 
ATOM      9 BR   UNL     1       7.177   4.654  13.007  0.00  0.00    +0.000 Br
ATOM     10  C   UNL     1       7.441   4.763  15.846  0.00  0.00    +0.000 A 
ATOM     11  C   UNL     1       6.984   4.686  17.164  0.00  0.00    +0.000 A 
ENDBRANCH   2   5
ENDBRANCH   1   2
BRANCH   1  12
ATOM     12  C   UNL     1       2.377   3.777  18.872  0.00  0.00    +0.000 C 
BRANCH  12  13
ATOM     13  C   UNL     1       1.260   3.958  19.892  0.00  0.00    +0.000 C 
BRANCH  13  15
ATOM     14  N   UNL     1       1.651   2.395  22.158  0.00  0.00    +0.000 NA
ATOM     15  C   UNL     1       1.474   3.104  21.130  0.00  0.00    +0.000 C 
ENDBRANCH  13  15
ENDBRANCH  12  13
ENDBRANCH   1  12
BRANCH   1  16
ATOM     16  C   UNL     1       3.033   6.050  19.811  0.00  0.00    +0.000 C 
BRANCH  16  17
ATOM     17  C   UNL     1       2.474   7.196  19.052  0.00  0.00    +0.000 A 
ATOM     18  C   UNL     1       2.706   7.673  17.782  0.00  0.00    +0.000 A 
ATOM     19  C   UNL     1       2.155   8.977  17.749  0.00  0.00    +0.000 A 
ATOM     20  C   UNL     1       1.535   9.163  18.962  0.00  0.00    +0.000 A 
ATOM     21  O   UNL     1       1.685   8.064  19.746  0.00  0.00    +0.000 OA
ENDBRANCH  16  17
ENDBRANCH   1  16
TORSDOF 7
ENDMDL
MODEL 2
REMARK VINA RESULT:      -6.9      0.117      1.065
REMARK  Name = 
REMARK  7 active torsions:
REMARK  status: ('A' for Active; 'I' for Inactive)
REMARK    1  A    between atoms: C_2  and  C_3
REMARK    2  A    between atoms: C_3  and  C_4
REMARK    3  A    between atoms: C_4  and  N_5
REMARK    4  A    between atoms: N_5  and  C_6
REMARK    5  A    between atoms: N_5  and  S_12
REMARK    6  A    between atoms: C_6  and  C_7
REMARK    7  A    between atoms: S_12  and  C_15
REMARK                            x       y       z     vdW  Elec       q    Type
REMARK                         _______ _______ _______ _____ _____    ______ ____
ROOT
ATOM      1  N   UNL     1       3.281   4.977  18.881  0.00  0.00    +0.000 NA
ENDROOT
BRANCH   1   2
ATOM      2  S   UNL     1       4.912   4.417  19.046  0.00  0.00    +0.000 S 
ATOM      3  O   UNL     1       5.655   5.396  19.820  0.00  0.00    +0.000 OA
ATOM      4  O   UNL     1       4.890   3.020  19.419  0.00  0.00    +0.000 OA
BRANCH   2   5
ATOM      5  C   UNL     1       5.547   4.540  17.389  0.00  0.00    +0.000 A 
ATOM      6  C   UNL     1       6.904   4.825  17.207  0.00  0.00    +0.000 A 
ATOM      7  C   UNL     1       7.435   4.852  15.918  0.00  0.00    +0.000 A 
ATOM      8  C   UNL     1       6.609   4.589  14.824  0.00  0.00    +0.000 A 
ATOM      9 BR   UNL     1       7.324   4.655  13.075  0.00  0.00    +0.000 Br
ATOM     10  C   UNL     1       5.261   4.276  15.008  0.00  0.00    +0.000 A 
ATOM     11  C   UNL     1       4.725   4.242  16.298  0.00  0.00    +0.000 A 
ENDBRANCH   2   5
ENDBRANCH   1   2
BRANCH   1  12
ATOM     12  C   UNL     1       2.265   3.855  18.879  0.00  0.00    +0.000 C 
BRANCH  12  13
ATOM     13  C   UNL     1       1.206   4.008  19.963  0.00  0.00    +0.000 C 
BRANCH  13  15
ATOM     14  N   UNL     1       1.722   2.388  22.165  0.00  0.00    +0.000 NA
ATOM     15  C   UNL     1       1.488   3.123  21.166  0.00  0.00    +0.000 C 
ENDBRANCH  13  15
ENDBRANCH  12  13
ENDBRANCH   1  12
BRANCH   1  16
ATOM     16  C   UNL     1       2.973   6.107  19.829  0.00  0.00    +0.000 C 
BRANCH  16  17
ATOM     17  C   UNL     1       2.412   7.265  19.089  0.00  0.00    +0.000 A 
ATOM     18  C   UNL     1       2.655   7.774  17.833  0.00  0.00    +0.000 A 
ATOM     19  C   UNL     1       2.093   9.073  17.824  0.00  0.00    +0.000 A 
ATOM     20  C   UNL     1       1.456   9.225  19.032  0.00  0.00    +0.000 A 
ATOM     21  O   UNL     1       1.607   8.111  19.793  0.00  0.00    +0.000 OA
ENDBRANCH  16  17
ENDBRANCH   1  16
TORSDOF 7
ENDMDL
MODEL 3
REMARK VINA RESULT:      -6.8      3.501      6.643
REMARK  Name = 
REMARK  7 active torsions:
REMARK  status: ('A' for Active; 'I' for Inactive)
REMARK    1  A    between atoms: C_2  and  C_3
REMARK    2  A    between atoms: C_3  and  C_4
REMARK    3  A    between atoms: C_4  and  N_5
REMARK    4  A    between atoms: N_5  and  C_6
REMARK    5  A    between atoms: N_5  and  S_12
REMARK    6  A    between atoms: C_6  and  C_7
REMARK    7  A    between atoms: S_12  and  C_15
REMARK                            x       y       z     vdW  Elec       q    Type
REMARK                         _______ _______ _______ _____ _____    ______ ____
ROOT
ATOM      1  N   UNL     1       6.227   5.450  17.169  0.00  0.00    +0.000 NA
ENDROOT
BRANCH   1   2
ATOM      2  S   UNL     1       4.926   4.682  18.017  0.00  0.00    +0.000 S 
ATOM      3  O   UNL     1       4.178   3.874  17.071  0.00  0.00    +0.000 OA
ATOM      4  O   UNL     1       5.439   4.121  19.247  0.00  0.00    +0.000 OA
BRANCH   2   5
ATOM      5  C   UNL     1       3.858   6.043  18.429  0.00  0.00    +0.000 A 
ATOM      6  C   UNL     1       3.729   7.098  17.520  0.00  0.00    +0.000 A 
ATOM      7  C   UNL     1       2.839   8.137  17.792  0.00  0.00    +0.000 A 
ATOM      8  C   UNL     1       2.083   8.110  18.965  0.00  0.00    +0.000 A 
ATOM      9 BR   UNL     1       0.899   9.534  19.346  0.00  0.00    +0.000 Br
ATOM     10  C   UNL     1       2.190   7.042  19.858  0.00  0.00    +0.000 A 
ATOM     11  C   UNL     1       3.076   5.996  19.587  0.00  0.00    +0.000 A 
ENDBRANCH   2   5
ENDBRANCH   1   2
BRANCH   1  12
ATOM     12  C   UNL     1       6.976   6.457  18.016  0.00  0.00    +0.000 C 
BRANCH  12  13
ATOM     13  C   UNL     1       7.471   7.656  17.217  0.00  0.00    +0.000 C 
BRANCH  13  15
ATOM     14  N   UNL     1       8.811   9.496  18.815  0.00  0.00    +0.000 NA
ATOM     15  C   UNL     1       8.203   8.661  18.091  0.00  0.00    +0.000 C 
ENDBRANCH  13  15
ENDBRANCH  12  13
ENDBRANCH   1  12
BRANCH   1  16
ATOM     16  C   UNL     1       7.100   4.454  16.451  0.00  0.00    +0.000 C 
BRANCH  16  17
ATOM     17  C   UNL     1       6.886   4.539  14.985  0.00  0.00    +0.000 A 
ATOM     18  C   UNL     1       6.048   3.865  14.125  0.00  0.00    +0.000 A 
ATOM     19  C   UNL     1       6.539   4.122  12.822  0.00  0.00    +0.000 A 
ATOM     20  C   UNL     1       7.572   5.016  12.970  0.00  0.00    +0.000 A 
ATOM     21  O   UNL     1       7.761   5.312  14.281  0.00  0.00    +0.000 OA
ENDBRANCH  16  17
ENDBRANCH   1  16
TORSDOF 7
ENDMDL
MODEL 4
REMARK VINA RESULT:      -6.4      3.468      6.413
REMARK  Name = 
REMARK  7 active torsions:
REMARK  status: ('A' for Active; 'I' for Inactive)
REMARK    1  A    between atoms: C_2  and  C_3
REMARK    2  A    between atoms: C_3  and  C_4
REMARK    3  A    between atoms: C_4  and  N_5
REMARK    4  A    between atoms: N_5  and  C_6
REMARK    5  A    between atoms: N_5  and  S_12
REMARK    6  A    between atoms: C_6  and  C_7
REMARK    7  A    between atoms: S_12  and  C_15
REMARK                            x       y       z     vdW  Elec       q    Type
REMARK                         _______ _______ _______ _____ _____    ______ ____
ROOT
ATOM      1  N   UNL     1       5.768   5.672  16.612  0.00  0.00    +0.000 NA
ENDROOT
BRANCH   1   2
ATOM      2  S   UNL     1       4.540   4.783  17.452  0.00  0.00    +0.000 S 
ATOM      3  O   UNL     1       3.738   4.073  16.472  0.00  0.00    +0.000 OA
ATOM      4  O   UNL     1       5.146   4.095  18.571  0.00  0.00    +0.000 OA
BRANCH   2   5
ATOM      5  C   UNL     1       3.484   6.064  18.091  0.00  0.00    +0.000 A 
ATOM      6  C   UNL     1       2.991   5.943  19.395  0.00  0.00    +0.000 A 
ATOM      7  C   UNL     1       2.223   6.972  19.939  0.00  0.00    +0.000 A 
ATOM      8  C   UNL     1       1.960   8.113  19.180  0.00  0.00    +0.000 A 
ATOM      9 BR   UNL     1       0.893   9.494  19.908  0.00  0.00    +0.000 Br
ATOM     10  C   UNL     1       2.477   8.246  17.889  0.00  0.00    +0.000 A 
ATOM     11  C   UNL     1       3.251   7.221  17.342  0.00  0.00    +0.000 A 
ENDBRANCH   2   5
ENDBRANCH   1   2
BRANCH   1  12
ATOM     12  C   UNL     1       6.282   6.860  17.396  0.00  0.00    +0.000 C 
BRANCH  12  13
ATOM     13  C   UNL     1       7.724   6.689  17.859  0.00  0.00    +0.000 C 
BRANCH  13  15
ATOM     14  N   UNL     1       7.888   5.328  20.279  0.00  0.00    +0.000 NA
ATOM     15  C   UNL     1       7.814   5.946  19.182  0.00  0.00    +0.000 C 
ENDBRANCH  13  15
ENDBRANCH  12  13
ENDBRANCH   1  12
BRANCH   1  16
ATOM     16  C   UNL     1       6.838   4.769  16.055  0.00  0.00    +0.000 C 
BRANCH  16  17
ATOM     17  C   UNL     1       6.713   4.666  14.580  0.00  0.00    +0.000 A 
ATOM     18  C   UNL     1       5.971   3.842  13.764  0.00  0.00    +0.000 A 
ATOM     19  C   UNL     1       6.528   3.972  12.469  0.00  0.00    +0.000 A 
ATOM     20  C   UNL     1       7.498   4.942  12.564  0.00  0.00    +0.000 A 
ATOM     21  O   UNL     1       7.586   5.403  13.838  0.00  0.00    +0.000 OA
ENDBRANCH  16  17
ENDBRANCH   1  16
TORSDOF 7
ENDMDL
MODEL 5
REMARK VINA RESULT:      -6.4      3.236      6.288
REMARK  Name = 
REMARK  7 active torsions:
REMARK  status: ('A' for Active; 'I' for Inactive)
REMARK    1  A    between atoms: C_2  and  C_3
REMARK    2  A    between atoms: C_3  and  C_4
REMARK    3  A    between atoms: C_4  and  N_5
REMARK    4  A    between atoms: N_5  and  C_6
REMARK    5  A    between atoms: N_5  and  S_12
REMARK    6  A    between atoms: C_6  and  C_7
REMARK    7  A    between atoms: S_12  and  C_15
REMARK                            x       y       z     vdW  Elec       q    Type
REMARK                         _______ _______ _______ _____ _____    ______ ____
ROOT
ATOM      1  N   UNL     1       5.436   5.014  18.134  0.00  0.00    +0.000 NA
ENDROOT
BRANCH   1   2
ATOM      2  S   UNL     1       3.826   4.573  18.597  0.00  0.00    +0.000 S 
ATOM      3  O   UNL     1       3.195   3.901  17.474  0.00  0.00    +0.000 OA
ATOM      4  O   UNL     1       3.867   3.968  19.909  0.00  0.00    +0.000 OA
BRANCH   2   5
ATOM      5  C   UNL     1       3.003   6.144  18.733  0.00  0.00    +0.000 A 
ATOM      6  C   UNL     1       2.337   6.454  19.923  0.00  0.00    +0.000 A 
ATOM      7  C   UNL     1       1.750   7.710  20.076  0.00  0.00    +0.000 A 
ATOM      8  C   UNL     1       1.838   8.645  19.044  0.00  0.00    +0.000 A 
ATOM      9 BR   UNL     1       1.015  10.336  19.241  0.00  0.00    +0.000 Br
ATOM     10  C   UNL     1       2.528   8.344  17.867  0.00  0.00    +0.000 A 
ATOM     11  C   UNL     1       3.123   7.090  17.711  0.00  0.00    +0.000 A 
ENDBRANCH   2   5
ENDBRANCH   1   2
BRANCH   1  12
ATOM     12  C   UNL     1       6.257   5.556  19.284  0.00  0.00    +0.000 C 
BRANCH  12  13
ATOM     13  C   UNL     1       7.675   5.935  18.877  0.00  0.00    +0.000 C 
BRANCH  13  15
ATOM     14  N   UNL     1       7.731   8.211  17.279  0.00  0.00    +0.000 NA
ATOM     15  C   UNL     1       7.706   7.179  18.004  0.00  0.00    +0.000 C 
ENDBRANCH  13  15
ENDBRANCH  12  13
ENDBRANCH   1  12
BRANCH   1  16
ATOM     16  C   UNL     1       6.110   3.933  17.330  0.00  0.00    +0.000 C 
BRANCH  16  17
ATOM     17  C   UNL     1       6.221   4.338  15.907  0.00  0.00    +0.000 A 
ATOM     18  C   UNL     1       5.374   4.200  14.830  0.00  0.00    +0.000 A 
ATOM     19  C   UNL     1       6.160   4.456  13.681  0.00  0.00    +0.000 A 
ATOM     20  C   UNL     1       7.400   4.834  14.140  0.00  0.00    +0.000 A 
ATOM     21  O   UNL     1       7.433   4.809  15.497  0.00  0.00    +0.000 OA
ENDBRANCH  16  17
ENDBRANCH   1  16
TORSDOF 7
ENDMDL
MODEL 6
REMARK VINA RESULT:      -6.4      3.138      5.856
REMARK  Name = 
REMARK  7 active torsions:
REMARK  status: ('A' for Active; 'I' for Inactive)
REMARK    1  A    between atoms: C_2  and  C_3
REMARK    2  A    between atoms: C_3  and  C_4
REMARK    3  A    between atoms: C_4  and  N_5
REMARK    4  A    between atoms: N_5  and  C_6
REMARK    5  A    between atoms: N_5  and  S_12
REMARK    6  A    between atoms: C_6  and  C_7
REMARK    7  A    between atoms: S_12  and  C_15
REMARK                            x       y       z     vdW  Elec       q    Type
REMARK                         _______ _______ _______ _____ _____    ______ ____
ROOT
ATOM      1  N   UNL     1       4.866   3.836  16.963  0.00  0.00    +0.000 NA
ENDROOT
BRANCH   1   2
ATOM      2  S   UNL     1       5.483   4.909  18.175  0.00  0.00    +0.000 S 
ATOM      3  O   UNL     1       5.521   4.196  19.440  0.00  0.00    +0.000 OA
ATOM      4  O   UNL     1       6.654   5.578  17.653  0.00  0.00    +0.000 OA
BRANCH   2   5
ATOM      5  C   UNL     1       4.184   6.111  18.345  0.00  0.00    +0.000 A 
ATOM      6  C   UNL     1       3.355   6.053  19.470  0.00  0.00    +0.000 A 
ATOM      7  C   UNL     1       2.380   7.032  19.658  0.00  0.00    +0.000 A 
ATOM      8  C   UNL     1       2.245   8.061  18.725  0.00  0.00    +0.000 A 
ATOM      9 BR   UNL     1       0.902   9.371  18.965  0.00  0.00    +0.000 Br
ATOM     10  C   UNL     1       3.092   8.135  17.618  0.00  0.00    +0.000 A 
ATOM     11  C   UNL     1       4.075   7.161  17.428  0.00  0.00    +0.000 A 
ENDBRANCH   2   5
ENDBRANCH   1   2
BRANCH   1  12
ATOM     12  C   UNL     1       5.817   3.642  15.801  0.00  0.00    +0.000 C 
BRANCH  12  13
ATOM     13  C   UNL     1       5.419   4.441  14.567  0.00  0.00    +0.000 C 
BRANCH  13  15
ATOM     14  N   UNL     1       6.463   3.348  12.232  0.00  0.00    +0.000 NA
ATOM     15  C   UNL     1       5.990   3.844  13.291  0.00  0.00    +0.000 C 
ENDBRANCH  13  15
ENDBRANCH  12  13
ENDBRANCH   1  12
BRANCH   1  16
ATOM     16  C   UNL     1       4.326   2.561  17.558  0.00  0.00    +0.000 C 
BRANCH  16  17
ATOM     17  C   UNL     1       2.880   2.702  17.859  0.00  0.00    +0.000 A 
ATOM     18  C   UNL     1       1.928   3.610  17.454  0.00  0.00    +0.000 A 
ATOM     19  C   UNL     1       0.833   3.447  18.336  0.00  0.00    +0.000 A 
ATOM     20  C   UNL     1       1.148   2.383  19.147  0.00  0.00    +0.000 A 
ATOM     21  O   UNL     1       2.375   1.893  18.834  0.00  0.00    +0.000 OA
ENDBRANCH  16  17
ENDBRANCH   1  16
TORSDOF 7
ENDMDL
MODEL 7
REMARK VINA RESULT:      -6.3      2.901      5.645
REMARK  Name = 
REMARK  7 active torsions:
REMARK  status: ('A' for Active; 'I' for Inactive)
REMARK    1  A    between atoms: C_2  and  C_3
REMARK    2  A    between atoms: C_3  and  C_4
REMARK    3  A    between atoms: C_4  and  N_5
REMARK    4  A    between atoms: N_5  and  C_6
REMARK    5  A    between atoms: N_5  and  S_12
REMARK    6  A    between atoms: C_6  and  C_7
REMARK    7  A    between atoms: S_12  and  C_15
REMARK                            x       y       z     vdW  Elec       q    Type
REMARK                         _______ _______ _______ _____ _____    ______ ____
ROOT
ATOM      1  N   UNL     1       4.571   3.595  17.517  0.00  0.00    +0.000 NA
ENDROOT
BRANCH   1   2
ATOM      2  S   UNL     1       5.270   4.718  18.634  0.00  0.00    +0.000 S 
ATOM      3  O   UNL     1       5.172   4.156  19.970  0.00  0.00    +0.000 OA
ATOM      4  O   UNL     1       6.533   5.180  18.103  0.00  0.00    +0.000 OA
BRANCH   2   5
ATOM      5  C   UNL     1       4.124   6.078  18.606  0.00  0.00    +0.000 A 
ATOM      6  C   UNL     1       4.188   6.993  17.550  0.00  0.00    +0.000 A 
ATOM      7  C   UNL     1       3.250   8.022  17.471  0.00  0.00    +0.000 A 
ATOM      8  C   UNL     1       2.255   8.125  18.444  0.00  0.00    +0.000 A 
ATOM      9 BR   UNL     1       1.002   9.538  18.353  0.00  0.00    +0.000 Br
ATOM     10  C   UNL     1       2.173   7.194  19.482  0.00  0.00    +0.000 A 
ATOM     11  C   UNL     1       3.107   6.158  19.562  0.00  0.00    +0.000 A 
ENDBRANCH   2   5
ENDBRANCH   1   2
BRANCH   1  12
ATOM     12  C   UNL     1       5.424   3.371  16.287  0.00  0.00    +0.000 C 
BRANCH  12  13
ATOM     13  C   UNL     1       5.179   4.405  15.195  0.00  0.00    +0.000 C 
BRANCH  13  15
ATOM     14  N   UNL     1       7.554   5.369  14.116  0.00  0.00    +0.000 NA
ATOM     15  C   UNL     1       6.477   4.932  14.606  0.00  0.00    +0.000 C 
ENDBRANCH  13  15
ENDBRANCH  12  13
ENDBRANCH   1  12
BRANCH   1  16
ATOM     16  C   UNL     1       4.102   2.336  18.199  0.00  0.00    +0.000 C 
BRANCH  16  17
ATOM     17  C   UNL     1       2.746   2.530  18.770  0.00  0.00    +0.000 A 
ATOM     18  C   UNL     1       1.577   3.032  18.243  0.00  0.00    +0.000 A 
ATOM     19  C   UNL     1       0.733   3.295  19.349  0.00  0.00    +0.000 A 
ATOM     20  C   UNL     1       1.402   2.839  20.460  0.00  0.00    +0.000 A 
ATOM     21  O   UNL     1       2.611   2.329  20.112  0.00  0.00    +0.000 OA
ENDBRANCH  16  17
ENDBRANCH   1  16
TORSDOF 7
ENDMDL
MODEL 8
REMARK VINA RESULT:      -6.3      0.928      1.160
REMARK  Name = 
REMARK  7 active torsions:
REMARK  status: ('A' for Active; 'I' for Inactive)
REMARK    1  A    between atoms: C_2  and  C_3
REMARK    2  A    between atoms: C_3  and  C_4
REMARK    3  A    between atoms: C_4  and  N_5
REMARK    4  A    between atoms: N_5  and  C_6
REMARK    5  A    between atoms: N_5  and  S_12
REMARK    6  A    between atoms: C_6  and  C_7
REMARK    7  A    between atoms: S_12  and  C_15
REMARK                            x       y       z     vdW  Elec       q    Type
REMARK                         _______ _______ _______ _____ _____    ______ ____
ROOT
ATOM      1  N   UNL     1       3.020   4.644  18.690  0.00  0.00    +0.000 NA
ENDROOT
BRANCH   1   2
ATOM      2  S   UNL     1       4.249   3.424  18.640  0.00  0.00    +0.000 S 
ATOM      3  O   UNL     1       5.116   3.601  19.793  0.00  0.00    +0.000 OA
ATOM      4  O   UNL     1       3.630   2.150  18.352  0.00  0.00    +0.000 OA
BRANCH   2   5
ATOM      5  C   UNL     1       5.229   3.898  17.233  0.00  0.00    +0.000 A 
ATOM      6  C   UNL     1       4.632   3.906  15.968  0.00  0.00    +0.000 A 
ATOM      7  C   UNL     1       5.363   4.347  14.865  0.00  0.00    +0.000 A 
ATOM      8  C   UNL     1       6.679   4.779  15.035  0.00  0.00    +0.000 A 
ATOM      9 BR   UNL     1       7.677   5.347  13.534  0.00  0.00    +0.000 Br
ATOM     10  C   UNL     1       7.264   4.799  16.303  0.00  0.00    +0.000 A 
ATOM     11  C   UNL     1       6.535   4.364  17.412  0.00  0.00    +0.000 A 
ENDBRANCH   2   5
ENDBRANCH   1   2
BRANCH   1  12
ATOM     12  C   UNL     1       1.622   4.075  18.795  0.00  0.00    +0.000 C 
BRANCH  12  13
ATOM     13  C   UNL     1       1.003   4.267  20.174  0.00  0.00    +0.000 C 
BRANCH  13  15
ATOM     14  N   UNL     1       1.875   2.347  21.987  0.00  0.00    +0.000 NA
ATOM     15  C   UNL     1       1.479   3.218  21.165  0.00  0.00    +0.000 C 
ENDBRANCH  13  15
ENDBRANCH  12  13
ENDBRANCH   1  12
BRANCH   1  16
ATOM     16  C   UNL     1       3.340   5.728  19.686  0.00  0.00    +0.000 C 
BRANCH  16  17
ATOM     17  C   UNL     1       2.836   7.039  19.206  0.00  0.00    +0.000 A 
ATOM     18  C   UNL     1       1.939   7.941  19.732  0.00  0.00    +0.000 A 
ATOM     19  C   UNL     1       1.600   8.816  18.672  0.00  0.00    +0.000 A 
ATOM     20  C   UNL     1       2.389   8.454  17.607  0.00  0.00    +0.000 A 
ATOM     21  O   UNL     1       3.179   7.400  17.937  0.00  0.00    +0.000 OA
ENDBRANCH  16  17
ENDBRANCH   1  16
TORSDOF 7
ENDMDL
MODEL 9
REMARK VINA RESULT:      -6.2      3.087      6.026
REMARK  Name = 
REMARK  7 active torsions:
REMARK  status: ('A' for Active; 'I' for Inactive)
REMARK    1  A    between atoms: C_2  and  C_3
REMARK    2  A    between atoms: C_3  and  C_4
REMARK    3  A    between atoms: C_4  and  N_5
REMARK    4  A    between atoms: N_5  and  C_6
REMARK    5  A    between atoms: N_5  and  S_12
REMARK    6  A    between atoms: C_6  and  C_7
REMARK    7  A    between atoms: S_12  and  C_15
REMARK                            x       y       z     vdW  Elec       q    Type
REMARK                         _______ _______ _______ _____ _____    ______ ____
ROOT
ATOM      1  N   UNL     1       4.092   4.611  17.428  0.00  0.00    +0.000 NA
ENDROOT
BRANCH   1   2
ATOM      2  S   UNL     1       4.795   5.921  18.318  0.00  0.00    +0.000 S 
ATOM      3  O   UNL     1       5.148   5.436  19.641  0.00  0.00    +0.000 OA
ATOM      4  O   UNL     1       5.763   6.589  17.478  0.00  0.00    +0.000 OA
BRANCH   2   5
ATOM      5  C   UNL     1       3.420   7.021  18.567  0.00  0.00    +0.000 A 
ATOM      6  C   UNL     1       2.716   6.958  19.774  0.00  0.00    +0.000 A 
ATOM      7  C   UNL     1       1.683   7.863  20.017  0.00  0.00    +0.000 A 
ATOM      8  C   UNL     1       1.366   8.824  19.057  0.00  0.00    +0.000 A 
ATOM      9 BR   UNL     1      -0.055  10.030  19.375  0.00  0.00    +0.000 Br
ATOM     10  C   UNL     1       2.088   8.905  17.864  0.00  0.00    +0.000 A 
ATOM     11  C   UNL     1       3.128   8.005  17.618  0.00  0.00    +0.000 A 
ENDBRANCH   2   5
ENDBRANCH   1   2
BRANCH   1  12
ATOM     12  C   UNL     1       4.548   4.561  15.986  0.00  0.00    +0.000 C 
BRANCH  12  13
ATOM     13  C   UNL     1       5.862   3.811  15.803  0.00  0.00    +0.000 C 
BRANCH  13  15
ATOM     14  N   UNL     1       7.708   5.280  14.330  0.00  0.00    +0.000 NA
ATOM     15  C   UNL     1       6.870   4.613  14.998  0.00  0.00    +0.000 C 
ENDBRANCH  13  15
ENDBRANCH  12  13
ENDBRANCH   1  12
BRANCH   1  16
ATOM     16  C   UNL     1       4.193   3.304  18.171  0.00  0.00    +0.000 C 
BRANCH  16  17
ATOM     17  C   UNL     1       2.874   2.926  18.736  0.00  0.00    +0.000 A 
ATOM     18  C   UNL     1       1.789   2.265  18.206  0.00  0.00    +0.000 A 
ATOM     19  C   UNL     1       0.712   2.513  19.090  0.00  0.00    +0.000 A 
ATOM     20  C   UNL     1       1.238   3.215  20.149  0.00  0.00    +0.000 A 
ATOM     21  O   UNL     1       2.565   3.431  19.963  0.00  0.00    +0.000 OA
ENDBRANCH  16  17
ENDBRANCH   1  16
TORSDOF 7
ENDMDL
