MODEL 1
REMARK VINA RESULT:      -8.1      0.000      0.000
REMARK  Name = 
REMARK  4 active torsions:
REMARK  status: ('A' for Active; 'I' for Inactive)
REMARK    1  A    between atoms: S_2  and  C_4
REMARK    2  A    between atoms: S_2  and  N_25
REMARK    3  A    between atoms: N_11  and  S_12
REMARK    4  A    between atoms: S_12  and  C_15
REMARK                            x       y       z     vdW  Elec       q    Type
REMARK                         _______ _______ _______ _____ _____    ______ ____
ROOT
ATOM      1  C   UNL     1       3.607   5.611  18.802  0.00  0.00    +0.000 A 
ATOM      2  C   UNL     1       2.848   5.496  19.954  0.00  0.00    +0.000 A 
ATOM      3  C   UNL     1       2.087   6.587  20.347  0.00  0.00    +0.000 A 
ATOM      4  C   UNL     1       2.067   7.756  19.574  0.00  0.00    +0.000 A 
ATOM      5  N   UNL     1       1.227   8.775  19.954  0.00  0.00    +0.000 N 
ATOM      6  C   UNL     1       0.637   9.665  18.952  0.00  0.00    +0.000 C 
ATOM      7  C   UNL     1      -0.776  10.066  19.455  0.00  0.00    +0.000 C 
ATOM      8  N   UNL     1      -0.746  10.645  20.850  0.00  0.00    +0.000 NA
ATOM      9  C   UNL     1      -0.068   9.675  21.786  0.00  0.00    +0.000 C 
ATOM     10  C   UNL     1       1.351   9.332  21.304  0.00  0.00    +0.000 C 
ATOM     11  N   UNL     1       2.798   7.858  18.448  0.00  0.00    +0.000 NA
ATOM     12  C   UNL     1       3.575   6.798  18.091  0.00  0.00    +0.000 A 
ENDROOT
BRANCH   1  14
ATOM     13  O   UNL     1       5.346   4.734  17.108  0.00  0.00    +0.000 OA
ATOM     14  S   UNL     1       4.551   4.250  18.214  0.00  0.00    +0.000 S 
ATOM     15  O   UNL     1       5.169   3.602  19.353  0.00  0.00    +0.000 OA
BRANCH  14  16
ATOM     16  N   UNL     1       3.389   3.183  17.585  0.00  0.00    +0.000 NA
ATOM     17  C   UNL     1       2.009   3.658  17.365  0.00  0.00    +0.000 C 
ATOM     18  C   UNL     1       1.187   3.087  18.503  0.00  0.00    +0.000 C 
ATOM     19  C   UNL     1       1.914   1.825  18.934  0.00  0.00    +0.000 C 
ATOM     20  C   UNL     1       3.283   1.866  18.261  0.00  0.00    +0.000 C 
ENDBRANCH  14  16
ENDBRANCH   1  14
BRANCH   8  21
ATOM     21  S   UNL     1      -0.189  12.261  20.947  0.00  0.00    +0.000 S 
ATOM     22  O   UNL     1       1.167  12.227  21.468  0.00  0.00    +0.000 OA
ATOM     23  O   UNL     1      -0.485  12.937  19.710  0.00  0.00    +0.000 OA
BRANCH  21  24
ATOM     24  C   UNL     1      -1.226  12.949  22.218  0.00  0.00    +0.000 A 
ATOM     25  C   UNL     1      -0.790  14.075  22.923  0.00  0.00    +0.000 A 
ATOM     26  C   UNL     1      -1.579  14.584  23.957  0.00  0.00    +0.000 A 
ATOM     27  C   UNL     1      -2.807  13.991  24.260  0.00  0.00    +0.000 A 
ATOM     28  C   UNL     1      -3.252  12.887  23.531  0.00  0.00    +0.000 A 
ATOM     29  C   UNL     1      -2.460  12.358  22.511  0.00  0.00    +0.000 A 
ENDBRANCH  21  24
ENDBRANCH   8  21
TORSDOF 4
ENDMDL
MODEL 2
REMARK VINA RESULT:      -8.0      0.892      1.231
REMARK  Name = 
REMARK  4 active torsions:
REMARK  status: ('A' for Active; 'I' for Inactive)
REMARK    1  A    between atoms: S_2  and  C_4
REMARK    2  A    between atoms: S_2  and  N_25
REMARK    3  A    between atoms: N_11  and  S_12
REMARK    4  A    between atoms: S_12  and  C_15
REMARK                            x       y       z     vdW  Elec       q    Type
REMARK                         _______ _______ _______ _____ _____    ______ ____
ROOT
ATOM      1  C   UNL     1       3.882   5.641  18.604  0.00  0.00    +0.000 A 
ATOM      2  C   UNL     1       2.993   5.614  19.665  0.00  0.00    +0.000 A 
ATOM      3  C   UNL     1       2.174   6.716  19.860  0.00  0.00    +0.000 A 
ATOM      4  C   UNL     1       2.228   7.807  18.983  0.00  0.00    +0.000 A 
ATOM      5  N   UNL     1       1.333   8.834  19.163  0.00  0.00    +0.000 N 
ATOM      6  C   UNL     1       0.852   9.611  18.018  0.00  0.00    +0.000 C 
ATOM      7  C   UNL     1      -0.616  10.019  18.313  0.00  0.00    +0.000 C 
ATOM      8  N   UNL     1      -0.761  10.726  19.640  0.00  0.00    +0.000 NA
ATOM      9  C   UNL     1      -0.183   9.866  20.737  0.00  0.00    +0.000 C 
ATOM     10  C   UNL     1       1.289   9.518  20.458  0.00  0.00    +0.000 C 
ATOM     11  N   UNL     1       3.085   7.823  17.944  0.00  0.00    +0.000 NA
ATOM     12  C   UNL     1       3.915   6.755  17.783  0.00  0.00    +0.000 A 
ENDROOT
BRANCH   1  14
ATOM     13  O   UNL     1       5.789   4.640  17.181  0.00  0.00    +0.000 OA
ATOM     14  S   UNL     1       4.909   4.256  18.262  0.00  0.00    +0.000 S 
ATOM     15  O   UNL     1       5.438   3.764  19.519  0.00  0.00    +0.000 OA
BRANCH  14  16
ATOM     16  N   UNL     1       3.837   3.084  17.663  0.00  0.00    +0.000 NA
ATOM     17  C   UNL     1       2.532   3.504  17.114  0.00  0.00    +0.000 C 
ATOM     18  C   UNL     1       1.508   3.173  18.180  0.00  0.00    +0.000 C 
ATOM     19  C   UNL     1       2.105   2.023  18.973  0.00  0.00    +0.000 C 
ATOM     20  C   UNL     1       3.570   1.930  18.557  0.00  0.00    +0.000 C 
ENDBRANCH  14  16
ENDBRANCH   1  14
BRANCH   8  21
ATOM     21  S   UNL     1      -0.244  12.359  19.645  0.00  0.00    +0.000 S 
ATOM     22  O   UNL     1       1.179  12.368  19.938  0.00  0.00    +0.000 OA
ATOM     23  O   UNL     1      -0.757  13.020  18.474  0.00  0.00    +0.000 OA
BRANCH  21  24
ATOM     24  C   UNL     1      -1.080  13.022  21.069  0.00  0.00    +0.000 A 
ATOM     25  C   UNL     1      -2.477  13.007  21.111  0.00  0.00    +0.000 A 
ATOM     26  C   UNL     1      -3.136  13.575  22.204  0.00  0.00    +0.000 A 
ATOM     27  C   UNL     1      -2.401  14.123  23.259  0.00  0.00    +0.000 A 
ATOM     28  C   UNL     1      -1.006  14.106  23.225  0.00  0.00    +0.000 A 
ATOM     29  C   UNL     1      -0.340  13.561  22.127  0.00  0.00    +0.000 A 
ENDBRANCH  21  24
ENDBRANCH   8  21
TORSDOF 4
ENDMDL
MODEL 3
REMARK VINA RESULT:      -7.9      1.803      2.498
REMARK  Name = 
REMARK  4 active torsions:
REMARK  status: ('A' for Active; 'I' for Inactive)
REMARK    1  A    between atoms: S_2  and  C_4
REMARK    2  A    between atoms: S_2  and  N_25
REMARK    3  A    between atoms: N_11  and  S_12
REMARK    4  A    between atoms: S_12  and  C_15
REMARK                            x       y       z     vdW  Elec       q    Type
REMARK                         _______ _______ _______ _____ _____    ______ ____
ROOT
ATOM      1  C   UNL     1       3.389   6.015  18.491  0.00  0.00    +0.000 A 
ATOM      2  C   UNL     1       2.647   5.820  19.643  0.00  0.00    +0.000 A 
ATOM      3  C   UNL     1       1.895   6.882  20.124  0.00  0.00    +0.000 A 
ATOM      4  C   UNL     1       1.866   8.102  19.436  0.00  0.00    +0.000 A 
ATOM      5  N   UNL     1       1.034   9.092  19.900  0.00  0.00    +0.000 N 
ATOM      6  C   UNL     1       0.429  10.051  18.972  0.00  0.00    +0.000 C 
ATOM      7  C   UNL     1      -0.974  10.418  19.525  0.00  0.00    +0.000 C 
ATOM      8  N   UNL     1      -0.921  10.897  20.957  0.00  0.00    +0.000 NA
ATOM      9  C   UNL     1      -0.229   9.863  21.811  0.00  0.00    +0.000 C 
ATOM     10  C   UNL     1       1.181   9.554  21.283  0.00  0.00    +0.000 C 
ATOM     11  N   UNL     1       2.578   8.282  18.308  0.00  0.00    +0.000 NA
ATOM     12  C   UNL     1       3.347   7.249  17.865  0.00  0.00    +0.000 A 
ENDROOT
BRANCH   1  14
ATOM     13  O   UNL     1       5.119   4.135  18.859  0.00  0.00    +0.000 OA
ATOM     14  S   UNL     1       4.320   4.697  17.793  0.00  0.00    +0.000 S 
ATOM     15  O   UNL     1       3.419   3.869  17.016  0.00  0.00    +0.000 OA
BRANCH  14  16
ATOM     16  N   UNL     1       5.375   5.466  16.708  0.00  0.00    +0.000 NA
ATOM     17  C   UNL     1       5.239   5.217  15.259  0.00  0.00    +0.000 C 
ATOM     18  C   UNL     1       6.360   4.265  14.895  0.00  0.00    +0.000 C 
ATOM     19  C   UNL     1       7.452   4.514  15.921  0.00  0.00    +0.000 C 
ATOM     20  C   UNL     1       6.822   5.360  17.024  0.00  0.00    +0.000 C 
ENDBRANCH  14  16
ENDBRANCH   1  14
BRANCH   8  21
ATOM     21  S   UNL     1      -0.358  12.502  21.158  0.00  0.00    +0.000 S 
ATOM     22  O   UNL     1       0.996  12.431  21.677  0.00  0.00    +0.000 OA
ATOM     23  O   UNL     1      -0.650  13.256  19.967  0.00  0.00    +0.000 OA
BRANCH  21  24
ATOM     24  C   UNL     1      -1.395  13.111  22.469  0.00  0.00    +0.000 A 
ATOM     25  C   UNL     1      -2.616  12.480  22.726  0.00  0.00    +0.000 A 
ATOM     26  C   UNL     1      -3.454  12.989  23.720  0.00  0.00    +0.000 A 
ATOM     27  C   UNL     1      -3.060  14.100  24.470  0.00  0.00    +0.000 A 
ATOM     28  C   UNL     1      -1.825  14.706  24.230  0.00  0.00    +0.000 A 
ATOM     29  C   UNL     1      -0.991  14.218  23.224  0.00  0.00    +0.000 A 
ENDBRANCH  21  24
ENDBRANCH   8  21
TORSDOF 4
ENDMDL
MODEL 4
REMARK VINA RESULT:      -7.9      1.995      2.945
REMARK  Name = 
REMARK  4 active torsions:
REMARK  status: ('A' for Active; 'I' for Inactive)
REMARK    1  A    between atoms: S_2  and  C_4
REMARK    2  A    between atoms: S_2  and  N_25
REMARK    3  A    between atoms: N_11  and  S_12
REMARK    4  A    between atoms: S_12  and  C_15
REMARK                            x       y       z     vdW  Elec       q    Type
REMARK                         _______ _______ _______ _____ _____    ______ ____
ROOT
ATOM      1  C   UNL     1       4.069   5.996  17.255  0.00  0.00    +0.000 A 
ATOM      2  C   UNL     1       3.127   5.373  18.055  0.00  0.00    +0.000 A 
ATOM      3  C   UNL     1       2.310   6.170  18.844  0.00  0.00    +0.000 A 
ATOM      4  C   UNL     1       2.421   7.566  18.799  0.00  0.00    +0.000 A 
ATOM      5  N   UNL     1       1.529   8.314  19.528  0.00  0.00    +0.000 N 
ATOM      6  C   UNL     1       1.114   9.640  19.062  0.00  0.00    +0.000 C 
ATOM      7  C   UNL     1      -0.362   9.848  19.491  0.00  0.00    +0.000 C 
ATOM      8  N   UNL     1      -0.568   9.625  20.971  0.00  0.00    +0.000 NA
ATOM      9  C   UNL     1      -0.056   8.257  21.352  0.00  0.00    +0.000 C 
ATOM     10  C   UNL     1       1.424   8.089  20.972  0.00  0.00    +0.000 C 
ATOM     11  N   UNL     1       3.330   8.167  18.008  0.00  0.00    +0.000 NA
ATOM     12  C   UNL     1       4.156   7.376  17.268  0.00  0.00    +0.000 A 
ENDROOT
BRANCH   1  14
ATOM     13  O   UNL     1       4.469   3.759  16.029  0.00  0.00    +0.000 OA
ATOM     14  S   UNL     1       5.098   5.052  16.187  0.00  0.00    +0.000 S 
ATOM     15  O   UNL     1       5.428   5.870  15.037  0.00  0.00    +0.000 OA
BRANCH  14  16
ATOM     16  N   UNL     1       6.524   4.826  17.081  0.00  0.00    +0.000 NA
ATOM     17  C   UNL     1       6.438   4.404  18.493  0.00  0.00    +0.000 C 
ATOM     18  C   UNL     1       6.715   5.647  19.314  0.00  0.00    +0.000 C 
ATOM     19  C   UNL     1       7.573   6.534  18.430  0.00  0.00    +0.000 C 
ATOM     20  C   UNL     1       7.507   5.936  17.027  0.00  0.00    +0.000 C 
ENDBRANCH  14  16
ENDBRANCH   1  14
BRANCH   8  21
ATOM     21  S   UNL     1      -0.035  10.907  21.973  0.00  0.00    +0.000 S 
ATOM     22  O   UNL     1       0.210  10.359  23.296  0.00  0.00    +0.000 OA
ATOM     23  O   UNL     1       0.988  11.650  21.284  0.00  0.00    +0.000 OA
BRANCH  21  24
ATOM     24  C   UNL     1      -1.484  11.933  22.087  0.00  0.00    +0.000 A 
ATOM     25  C   UNL     1      -1.755  12.852  21.069  0.00  0.00    +0.000 A 
ATOM     26  C   UNL     1      -2.863  13.694  21.183  0.00  0.00    +0.000 A 
ATOM     27  C   UNL     1      -3.709  13.596  22.290  0.00  0.00    +0.000 A 
ATOM     28  C   UNL     1      -3.451  12.655  23.288  0.00  0.00    +0.000 A 
ATOM     29  C   UNL     1      -2.334  11.824  23.194  0.00  0.00    +0.000 A 
ENDBRANCH  21  24
ENDBRANCH   8  21
TORSDOF 4
ENDMDL
MODEL 5
REMARK VINA RESULT:      -7.9      0.651      1.108
REMARK  Name = 
REMARK  4 active torsions:
REMARK  status: ('A' for Active; 'I' for Inactive)
REMARK    1  A    between atoms: S_2  and  C_4
REMARK    2  A    between atoms: S_2  and  N_25
REMARK    3  A    between atoms: N_11  and  S_12
REMARK    4  A    between atoms: S_12  and  C_15
REMARK                            x       y       z     vdW  Elec       q    Type
REMARK                         _______ _______ _______ _____ _____    ______ ____
ROOT
ATOM      1  C   UNL     1       3.169   6.125  18.728  0.00  0.00    +0.000 A 
ATOM      2  C   UNL     1       2.526   6.009  19.949  0.00  0.00    +0.000 A 
ATOM      3  C   UNL     1       1.795   7.094  20.408  0.00  0.00    +0.000 A 
ATOM      4  C   UNL     1       1.688   8.258  19.636  0.00  0.00    +0.000 A 
ATOM      5  N   UNL     1       0.877   9.270  20.090  0.00  0.00    +0.000 N 
ATOM      6  C   UNL     1       0.182  10.148  19.146  0.00  0.00    +0.000 C 
ATOM      7  C   UNL     1      -1.179  10.537  19.781  0.00  0.00    +0.000 C 
ATOM      8  N   UNL     1      -1.021  11.124  21.164  0.00  0.00    +0.000 NA
ATOM      9  C   UNL     1      -0.244  10.167  22.035  0.00  0.00    +0.000 C 
ATOM     10  C   UNL     1       1.125   9.837  21.418  0.00  0.00    +0.000 C 
ATOM     11  N   UNL     1       2.304   8.361  18.443  0.00  0.00    +0.000 NA
ATOM     12  C   UNL     1       3.055   7.307  18.018  0.00  0.00    +0.000 A 
ENDROOT
BRANCH   1  14
ATOM     13  O   UNL     1       4.771   5.264  16.896  0.00  0.00    +0.000 OA
ATOM     14  S   UNL     1       4.067   4.770  18.058  0.00  0.00    +0.000 S 
ATOM     15  O   UNL     1       4.774   4.116  19.141  0.00  0.00    +0.000 OA
BRANCH  14  16
ATOM     16  N   UNL     1       2.861   3.705  17.516  0.00  0.00    +0.000 NA
ATOM     17  C   UNL     1       1.446   3.990  17.822  0.00  0.00    +0.000 C 
ATOM     18  C   UNL     1       1.067   3.049  18.948  0.00  0.00    +0.000 C 
ATOM     19  C   UNL     1       1.995   1.855  18.807  0.00  0.00    +0.000 C 
ATOM     20  C   UNL     1       3.081   2.268  17.817  0.00  0.00    +0.000 C 
ENDBRANCH  14  16
ENDBRANCH   1  14
BRANCH   8  21
ATOM     21  S   UNL     1      -0.475  12.747  21.198  0.00  0.00    +0.000 S 
ATOM     22  O   UNL     1       0.928  12.730  21.574  0.00  0.00    +0.000 OA
ATOM     23  O   UNL     1      -0.906  13.415  19.998  0.00  0.00    +0.000 OA
BRANCH  21  24
ATOM     24  C   UNL     1      -1.381  13.428  22.570  0.00  0.00    +0.000 A 
ATOM     25  C   UNL     1      -2.666  12.953  22.846  0.00  0.00    +0.000 A 
ATOM     26  C   UNL     1      -3.399  13.523  23.889  0.00  0.00    +0.000 A 
ATOM     27  C   UNL     1      -2.837  14.538  24.668  0.00  0.00    +0.000 A 
ATOM     28  C   UNL     1      -1.542  14.987  24.407  0.00  0.00    +0.000 A 
ATOM     29  C   UNL     1      -0.810  14.438  23.353  0.00  0.00    +0.000 A 
ENDBRANCH  21  24
ENDBRANCH   8  21
TORSDOF 4
ENDMDL
MODEL 6
REMARK VINA RESULT:      -7.8      2.361      9.870
REMARK  Name = 
REMARK  4 active torsions:
REMARK  status: ('A' for Active; 'I' for Inactive)
REMARK    1  A    between atoms: S_2  and  C_4
REMARK    2  A    between atoms: S_2  and  N_25
REMARK    3  A    between atoms: N_11  and  S_12
REMARK    4  A    between atoms: S_12  and  C_15
REMARK                            x       y       z     vdW  Elec       q    Type
REMARK                         _______ _______ _______ _____ _____    ______ ____
ROOT
ATOM      1  C   UNL     1       0.122  10.452  21.271  0.00  0.00    +0.000 A 
ATOM      2  C   UNL     1       0.157  10.255  19.901  0.00  0.00    +0.000 A 
ATOM      3  C   UNL     1       0.836   9.146  19.417  0.00  0.00    +0.000 A 
ATOM      4  C   UNL     1       1.436   8.239  20.299  0.00  0.00    +0.000 A 
ATOM      5  N   UNL     1       2.017   7.108  19.776  0.00  0.00    +0.000 N 
ATOM      6  C   UNL     1       2.043   5.862  20.545  0.00  0.00    +0.000 C 
ATOM      7  C   UNL     1       1.925   4.687  19.539  0.00  0.00    +0.000 C 
ATOM      8  N   UNL     1       2.967   4.758  18.447  0.00  0.00    +0.000 NA
ATOM      9  C   UNL     1       2.890   6.100  17.761  0.00  0.00    +0.000 C 
ATOM     10  C   UNL     1       3.067   7.251  18.764  0.00  0.00    +0.000 C 
ATOM     11  N   UNL     1       1.388   8.427  21.632  0.00  0.00    +0.000 NA
ATOM     12  C   UNL     1       0.756   9.540  22.097  0.00  0.00    +0.000 A 
ENDROOT
BRANCH   1  14
ATOM     13  O   UNL     1      -1.815  12.139  21.019  0.00  0.00    +0.000 OA
ATOM     14  S   UNL     1      -0.768  11.803  21.958  0.00  0.00    +0.000 S 
ATOM     15  O   UNL     1      -1.073  11.488  23.339  0.00  0.00    +0.000 OA
BRANCH  14  16
ATOM     16  N   UNL     1       0.353  13.078  21.958  0.00  0.00    +0.000 NA
ATOM     17  C   UNL     1      -0.097  14.442  22.299  0.00  0.00    +0.000 C 
ATOM     18  C   UNL     1      -0.191  15.189  20.985  0.00  0.00    +0.000 C 
ATOM     19  C   UNL     1       0.797  14.503  20.057  0.00  0.00    +0.000 C 
ATOM     20  C   UNL     1       1.198  13.201  20.743  0.00  0.00    +0.000 C 
ENDBRANCH  14  16
ENDBRANCH   1  14
BRANCH   8  21
ATOM     21  S   UNL     1       4.539   4.271  18.921  0.00  0.00    +0.000 S 
ATOM     22  O   UNL     1       5.035   5.252  19.871  0.00  0.00    +0.000 OA
ATOM     23  O   UNL     1       4.519   2.870  19.254  0.00  0.00    +0.000 OA
BRANCH  21  24
ATOM     24  C   UNL     1       5.472   4.472  17.419  0.00  0.00    +0.000 A 
ATOM     25  C   UNL     1       6.538   5.376  17.391  0.00  0.00    +0.000 A 
ATOM     26  C   UNL     1       7.237   5.574  16.198  0.00  0.00    +0.000 A 
ATOM     27  C   UNL     1       6.893   4.849  15.054  0.00  0.00    +0.000 A 
ATOM     28  C   UNL     1       5.848   3.924  15.097  0.00  0.00    +0.000 A 
ATOM     29  C   UNL     1       5.129   3.737  16.279  0.00  0.00    +0.000 A 
ENDBRANCH  21  24
ENDBRANCH   8  21
TORSDOF 4
ENDMDL
MODEL 7
REMARK VINA RESULT:      -7.7      2.278      9.884
REMARK  Name = 
REMARK  4 active torsions:
REMARK  status: ('A' for Active; 'I' for Inactive)
REMARK    1  A    between atoms: S_2  and  C_4
REMARK    2  A    between atoms: S_2  and  N_25
REMARK    3  A    between atoms: N_11  and  S_12
REMARK    4  A    between atoms: S_12  and  C_15
REMARK                            x       y       z     vdW  Elec       q    Type
REMARK                         _______ _______ _______ _____ _____    ______ ____
ROOT
ATOM      1  C   UNL     1       0.166  10.569  21.362  0.00  0.00    +0.000 A 
ATOM      2  C   UNL     1       0.204  10.396  19.989  0.00  0.00    +0.000 A 
ATOM      3  C   UNL     1       0.858   9.280  19.488  0.00  0.00    +0.000 A 
ATOM      4  C   UNL     1       1.432   8.342  20.357  0.00  0.00    +0.000 A 
ATOM      5  N   UNL     1       1.987   7.208  19.817  0.00  0.00    +0.000 N 
ATOM      6  C   UNL     1       1.980   5.947  20.565  0.00  0.00    +0.000 C 
ATOM      7  C   UNL     1       1.839   4.793  19.536  0.00  0.00    +0.000 C 
ATOM      8  N   UNL     1       2.889   4.859  18.452  0.00  0.00    +0.000 NA
ATOM      9  C   UNL     1       2.848   6.214  17.789  0.00  0.00    +0.000 C 
ATOM     10  C   UNL     1       3.046   7.343  18.813  0.00  0.00    +0.000 C 
ATOM     11  N   UNL     1       1.381   8.508  21.693  0.00  0.00    +0.000 NA
ATOM     12  C   UNL     1       0.773   9.628  22.175  0.00  0.00    +0.000 A 
ENDROOT
BRANCH   1  14
ATOM     13  O   UNL     1      -1.551  11.394  23.104  0.00  0.00    +0.000 OA
ATOM     14  S   UNL     1      -0.695  11.929  22.068  0.00  0.00    +0.000 S 
ATOM     15  O   UNL     1       0.268  12.972  22.358  0.00  0.00    +0.000 OA
BRANCH  14  16
ATOM     16  N   UNL     1      -1.692  12.485  20.811  0.00  0.00    +0.000 NA
ATOM     17  C   UNL     1      -1.357  13.746  20.121  0.00  0.00    +0.000 C 
ATOM     18  C   UNL     1      -2.317  14.784  20.667  0.00  0.00    +0.000 C 
ATOM     19  C   UNL     1      -3.544  14.007  21.112  0.00  0.00    +0.000 C 
ATOM     20  C   UNL     1      -3.145  12.534  21.108  0.00  0.00    +0.000 C 
ENDBRANCH  14  16
ENDBRANCH   1  14
BRANCH   8  21
ATOM     21  S   UNL     1       4.445   4.326  18.925  0.00  0.00    +0.000 S 
ATOM     22  O   UNL     1       4.964   5.283  19.886  0.00  0.00    +0.000 OA
ATOM     23  O   UNL     1       4.387   2.923  19.242  0.00  0.00    +0.000 OA
BRANCH  21  24
ATOM     24  C   UNL     1       5.388   4.518  17.428  0.00  0.00    +0.000 A 
ATOM     25  C   UNL     1       6.473   5.400  17.410  0.00  0.00    +0.000 A 
ATOM     26  C   UNL     1       7.180   5.592  16.221  0.00  0.00    +0.000 A 
ATOM     27  C   UNL     1       6.825   4.883  15.071  0.00  0.00    +0.000 A 
ATOM     28  C   UNL     1       5.761   3.981  15.103  0.00  0.00    +0.000 A 
ATOM     29  C   UNL     1       5.034   3.799  16.281  0.00  0.00    +0.000 A 
ENDBRANCH  21  24
ENDBRANCH   8  21
TORSDOF 4
ENDMDL
MODEL 8
REMARK VINA RESULT:      -7.7      1.728      2.624
REMARK  Name = 
REMARK  4 active torsions:
REMARK  status: ('A' for Active; 'I' for Inactive)
REMARK    1  A    between atoms: S_2  and  C_4
REMARK    2  A    between atoms: S_2  and  N_25
REMARK    3  A    between atoms: N_11  and  S_12
REMARK    4  A    between atoms: S_12  and  C_15
REMARK                            x       y       z     vdW  Elec       q    Type
REMARK                         _______ _______ _______ _____ _____    ______ ____
ROOT
ATOM      1  C   UNL     1       2.526   7.112  18.746  0.00  0.00    +0.000 A 
ATOM      2  C   UNL     1       2.195   8.037  17.770  0.00  0.00    +0.000 A 
ATOM      3  C   UNL     1       1.469   9.156  18.149  0.00  0.00    +0.000 A 
ATOM      4  C   UNL     1       1.115   9.354  19.490  0.00  0.00    +0.000 A 
ATOM      5  N   UNL     1       0.477  10.522  19.831  0.00  0.00    +0.000 N 
ATOM      6  C   UNL     1       0.670  11.116  21.156  0.00  0.00    +0.000 C 
ATOM      7  C   UNL     1       0.607  12.658  20.993  0.00  0.00    +0.000 C 
ATOM      8  N   UNL     1      -0.654  13.111  20.294  0.00  0.00    +0.000 NA
ATOM      9  C   UNL     1      -0.783  12.396  18.971  0.00  0.00    +0.000 C 
ATOM     10  C   UNL     1      -0.776  10.870  19.157  0.00  0.00    +0.000 C 
ATOM     11  N   UNL     1       1.451   8.458  20.439  0.00  0.00    +0.000 NA
ATOM     12  C   UNL     1       2.128   7.341  20.051  0.00  0.00    +0.000 A 
ENDROOT
BRANCH   1  14
ATOM     13  O   UNL     1       4.259   6.032  17.167  0.00  0.00    +0.000 OA
ATOM     14  S   UNL     1       3.494   5.700  18.348  0.00  0.00    +0.000 S 
ATOM     15  O   UNL     1       4.147   5.243  19.558  0.00  0.00    +0.000 OA
BRANCH  14  16
ATOM     16  N   UNL     1       2.349   4.526  17.908  0.00  0.00    +0.000 NA
ATOM     17  C   UNL     1       1.448   3.966  18.935  0.00  0.00    +0.000 C 
ATOM     18  C   UNL     1       1.994   2.591  19.260  0.00  0.00    +0.000 C 
ATOM     19  C   UNL     1       2.732   2.142  18.011  0.00  0.00    +0.000 C 
ATOM     20  C   UNL     1       2.866   3.377  17.123  0.00  0.00    +0.000 C 
ENDBRANCH  14  16
ENDBRANCH   1  14
BRANCH   8  21
ATOM     21  S   UNL     1      -2.061  13.097  21.270  0.00  0.00    +0.000 S 
ATOM     22  O   UNL     1      -3.185  13.462  20.425  0.00  0.00    +0.000 OA
ATOM     23  O   UNL     1      -2.087  11.884  22.044  0.00  0.00    +0.000 OA
BRANCH  21  24
ATOM     24  C   UNL     1      -1.772  14.458  22.379  0.00  0.00    +0.000 A 
ATOM     25  C   UNL     1      -1.416  14.197  23.706  0.00  0.00    +0.000 A 
ATOM     26  C   UNL     1      -1.240  15.262  24.591  0.00  0.00    +0.000 A 
ATOM     27  C   UNL     1      -1.389  16.578  24.144  0.00  0.00    +0.000 A 
ATOM     28  C   UNL     1      -1.714  16.833  22.811  0.00  0.00    +0.000 A 
ATOM     29  C   UNL     1      -1.913  15.774  21.924  0.00  0.00    +0.000 A 
ENDBRANCH  21  24
ENDBRANCH   8  21
TORSDOF 4
ENDMDL
MODEL 9
REMARK VINA RESULT:      -7.7      2.705      9.866
REMARK  Name = 
REMARK  4 active torsions:
REMARK  status: ('A' for Active; 'I' for Inactive)
REMARK    1  A    between atoms: S_2  and  C_4
REMARK    2  A    between atoms: S_2  and  N_25
REMARK    3  A    between atoms: N_11  and  S_12
REMARK    4  A    between atoms: S_12  and  C_15
REMARK                            x       y       z     vdW  Elec       q    Type
REMARK                         _______ _______ _______ _____ _____    ______ ____
ROOT
ATOM      1  C   UNL     1       0.576  10.223  20.282  0.00  0.00    +0.000 A 
ATOM      2  C   UNL     1       0.658   9.254  21.267  0.00  0.00    +0.000 A 
ATOM      3  C   UNL     1       1.279   8.054  20.955  0.00  0.00    +0.000 A 
ATOM      4  C   UNL     1       1.836   7.851  19.685  0.00  0.00    +0.000 A 
ATOM      5  N   UNL     1       2.522   6.683  19.454  0.00  0.00    +0.000 N 
ATOM      6  C   UNL     1       3.644   6.654  18.512  0.00  0.00    +0.000 C 
ATOM      7  C   UNL     1       4.677   5.625  19.045  0.00  0.00    +0.000 C 
ATOM      8  N   UNL     1       4.058   4.272  19.306  0.00  0.00    +0.000 NA
ATOM      9  C   UNL     1       2.881   4.425  20.238  0.00  0.00    +0.000 C 
ATOM     10  C   UNL     1       1.841   5.404  19.668  0.00  0.00    +0.000 C 
ATOM     11  N   UNL     1       1.766   8.802  18.734  0.00  0.00    +0.000 NA
ATOM     12  C   UNL     1       1.118   9.961  19.036  0.00  0.00    +0.000 A 
ENDROOT
BRANCH   1  14
ATOM     13  O   UNL     1      -1.549  11.689  20.283  0.00  0.00    +0.000 OA
ATOM     14  S   UNL     1      -0.147  11.788  20.624  0.00  0.00    +0.000 S 
ATOM     15  O   UNL     1       0.274  12.200  21.948  0.00  0.00    +0.000 OA
BRANCH  14  16
ATOM     16  N   UNL     1       0.584  12.834  19.505  0.00  0.00    +0.000 NA
ATOM     17  C   UNL     1       1.559  13.838  19.975  0.00  0.00    +0.000 C 
ATOM     18  C   UNL     1       0.823  15.162  19.976  0.00  0.00    +0.000 C 
ATOM     19  C   UNL     1      -0.266  15.022  18.927  0.00  0.00    +0.000 C 
ATOM     20  C   UNL     1      -0.337  13.538  18.577  0.00  0.00    +0.000 C 
ENDBRANCH  14  16
ENDBRANCH   1  14
BRANCH   8  21
ATOM     21  S   UNL     1       3.760   3.335  17.904  0.00  0.00    +0.000 S 
ATOM     22  O   UNL     1       4.038   1.948  18.235  0.00  0.00    +0.000 OA
ATOM     23  O   UNL     1       2.489   3.716  17.343  0.00  0.00    +0.000 OA
BRANCH  21  24
ATOM     24  C   UNL     1       5.042   3.881  16.798  0.00  0.00    +0.000 A 
ATOM     25  C   UNL     1       6.329   4.100  17.296  0.00  0.00    +0.000 A 
ATOM     26  C   UNL     1       7.323   4.579  16.440  0.00  0.00    +0.000 A 
ATOM     27  C   UNL     1       7.038   4.806  15.091  0.00  0.00    +0.000 A 
ATOM     28  C   UNL     1       5.759   4.555  14.593  0.00  0.00    +0.000 A 
ATOM     29  C   UNL     1       4.754   4.097  15.445  0.00  0.00    +0.000 A 
ENDBRANCH  21  24
ENDBRANCH   8  21
TORSDOF 4
ENDMDL
