MODEL 1
REMARK VINA RESULT:      -7.9      0.000      0.000
REMARK  Name = 
REMARK  7 active torsions:
REMARK  status: ('A' for Active; 'I' for Inactive)
REMARK    1  A    between atoms: C_1  and  C_2
REMARK    2  A    between atoms: C_4  and  C_5
REMARK    3  A    between atoms: C_11  and  O_12
REMARK    4  A    between atoms: O_12  and  C_13
REMARK    5  A    between atoms: C_13  and  C_14
REMARK    6  A    between atoms: C_18  and  C_19
REMARK    7  A    between atoms: C_19  and  O_21
REMARK                            x       y       z     vdW  Elec       q    Type
REMARK                         _______ _______ _______ _____ _____    ______ ____
ROOT
ATOM      1  O   UNL     1       5.249   6.177  18.049  0.00  0.00    +0.000 OA
ENDROOT
BRANCH   1   8
ATOM      2  C   UNL     1       7.739   4.441  17.759  0.00  0.00    +0.000 C 
ATOM      3  C   UNL     1       6.779   4.814  16.665  0.00  0.00    +0.000 A 
ATOM      4  C   UNL     1       6.978   4.248  15.393  0.00  0.00    +0.000 A 
ATOM      5  C   UNL     1       6.200   4.631  14.290  0.00  0.00    +0.000 A 
ATOM      6  C   UNL     1       5.283   5.676  14.451  0.00  0.00    +0.000 A 
ATOM      7  C   UNL     1       5.037   6.206  15.720  0.00  0.00    +0.000 A 
ATOM      8  C   UNL     1       5.712   5.712  16.841  0.00  0.00    +0.000 A 
BRANCH   5   9
ATOM      9  C   UNL     1       6.310   3.910  12.969  0.00  0.00    +0.000 C 
ATOM     10  F   UNL     1       7.249   4.443  12.137  0.00  0.00    +0.000 F 
ATOM     11  F   UNL     1       6.665   2.604  13.131  0.00  0.00    +0.000 F 
ATOM     12  F   UNL     1       5.145   3.899  12.267  0.00  0.00    +0.000 F 
ENDBRANCH   5   9
ENDBRANCH   1   8
BRANCH   1  13
ATOM     13  C   UNL     1       3.913   6.703  17.976  0.00  0.00    +0.000 C 
BRANCH  13  14
ATOM     14  C   UNL     1       2.885   5.934  18.778  0.00  0.00    +0.000 A 
ATOM     15  C   UNL     1       2.403   6.366  20.017  0.00  0.00    +0.000 A 
ATOM     16  C   UNL     1       1.605   5.522  20.792  0.00  0.00    +0.000 A 
ATOM     17  C   UNL     1       1.285   4.238  20.343  0.00  0.00    +0.000 A 
ATOM     18  C   UNL     1       1.719   3.797  19.088  0.00  0.00    +0.000 A 
ATOM     19  C   UNL     1       2.497   4.662  18.314  0.00  0.00    +0.000 A 
ATOM     20  F   UNL     1       2.924   4.266  17.102  0.00  0.00    +0.000 F 
BRANCH  18  21
ATOM     21  C   UNL     1       1.381   2.409  18.675  0.00  0.00    +0.000 C 
ATOM     22  O   UNL     1       0.227   2.059  18.464  0.00  0.00    +0.000 OA
BRANCH  21  23
ATOM     23  O   UNL     1       2.420   1.561  18.555  0.00  0.00    +0.000 OA
ATOM     24  H   UNL     1       2.865   1.546  17.684  0.00  0.00    +0.000 HD
ENDBRANCH  21  23
ENDBRANCH  18  21
ENDBRANCH  13  14
ENDBRANCH   1  13
TORSDOF 6
ENDMDL
MODEL 2
REMARK VINA RESULT:      -7.9      3.391      7.468
REMARK  Name = 
REMARK  7 active torsions:
REMARK  status: ('A' for Active; 'I' for Inactive)
REMARK    1  A    between atoms: C_1  and  C_2
REMARK    2  A    between atoms: C_4  and  C_5
REMARK    3  A    between atoms: C_11  and  O_12
REMARK    4  A    between atoms: O_12  and  C_13
REMARK    5  A    between atoms: C_13  and  C_14
REMARK    6  A    between atoms: C_18  and  C_19
REMARK    7  A    between atoms: C_19  and  O_21
REMARK                            x       y       z     vdW  Elec       q    Type
REMARK                         _______ _______ _______ _____ _____    ______ ____
ROOT
ATOM      1  O   UNL     1       2.404   4.641  17.904  0.00  0.00    +0.000 OA
ENDROOT
BRANCH   1   8
ATOM      2  C   UNL     1       3.297   7.499  17.329  0.00  0.00    +0.000 C 
ATOM      3  C   UNL     1       2.516   7.032  18.524  0.00  0.00    +0.000 A 
ATOM      4  C   UNL     1       2.068   8.002  19.438  0.00  0.00    +0.000 A 
ATOM      5  C   UNL     1       1.434   7.643  20.637  0.00  0.00    +0.000 A 
ATOM      6  C   UNL     1       1.352   6.285  20.968  0.00  0.00    +0.000 A 
ATOM      7  C   UNL     1       1.742   5.312  20.045  0.00  0.00    +0.000 A 
ATOM      8  C   UNL     1       2.234   5.680  18.788  0.00  0.00    +0.000 A 
BRANCH   5   9
ATOM      9  C   UNL     1       0.815   8.685  21.535  0.00  0.00    +0.000 C 
ATOM     10  F   UNL     1       0.600   9.879  20.913  0.00  0.00    +0.000 F 
ATOM     11  F   UNL     1      -0.404   8.293  22.004  0.00  0.00    +0.000 F 
ATOM     12  F   UNL     1       1.568   8.962  22.633  0.00  0.00    +0.000 F 
ENDBRANCH   5   9
ENDBRANCH   1   8
BRANCH   1  13
ATOM     13  C   UNL     1       3.522   3.798  18.233  0.00  0.00    +0.000 C 
BRANCH  13  14
ATOM     14  C   UNL     1       4.846   4.249  17.656  0.00  0.00    +0.000 A 
ATOM     15  C   UNL     1       5.319   3.832  16.408  0.00  0.00    +0.000 A 
ATOM     16  C   UNL     1       6.627   4.128  16.019  0.00  0.00    +0.000 A 
ATOM     17  C   UNL     1       7.478   4.837  16.871  0.00  0.00    +0.000 A 
ATOM     18  C   UNL     1       7.016   5.302  18.107  0.00  0.00    +0.000 A 
ATOM     19  C   UNL     1       5.698   5.019  18.472  0.00  0.00    +0.000 A 
ATOM     20  F   UNL     1       5.227   5.459  19.653  0.00  0.00    +0.000 F 
BRANCH  18  21
ATOM     21  C   UNL     1       7.975   6.019  18.990  0.00  0.00    +0.000 C 
ATOM     22  O   UNL     1       8.345   7.162  18.752  0.00  0.00    +0.000 OA
BRANCH  21  23
ATOM     23  O   UNL     1       8.415   5.333  20.062  0.00  0.00    +0.000 OA
ATOM     24  H   UNL     1       9.222   5.678  20.491  0.00  0.00    +0.000 HD
ENDBRANCH  21  23
ENDBRANCH  18  21
ENDBRANCH  13  14
ENDBRANCH   1  13
TORSDOF 6
ENDMDL
MODEL 3
REMARK VINA RESULT:      -7.8      2.963      3.964
REMARK  Name = 
REMARK  7 active torsions:
REMARK  status: ('A' for Active; 'I' for Inactive)
REMARK    1  A    between atoms: C_1  and  C_2
REMARK    2  A    between atoms: C_4  and  C_5
REMARK    3  A    between atoms: C_11  and  O_12
REMARK    4  A    between atoms: O_12  and  C_13
REMARK    5  A    between atoms: C_13  and  C_14
REMARK    6  A    between atoms: C_18  and  C_19
REMARK    7  A    between atoms: C_19  and  O_21
REMARK                            x       y       z     vdW  Elec       q    Type
REMARK                         _______ _______ _______ _____ _____    ______ ____
ROOT
ATOM      1  O   UNL     1       4.453   3.189  16.952  0.00  0.00    +0.000 OA
ENDROOT
BRANCH   1   8
ATOM      2  C   UNL     1       5.817   4.401  14.509  0.00  0.00    +0.000 C 
ATOM      3  C   UNL     1       5.982   4.845  15.934  0.00  0.00    +0.000 A 
ATOM      4  C   UNL     1       6.770   5.983  16.183  0.00  0.00    +0.000 A 
ATOM      5  C   UNL     1       7.070   6.396  17.490  0.00  0.00    +0.000 A 
ATOM      6  C   UNL     1       6.661   5.587  18.557  0.00  0.00    +0.000 A 
ATOM      7  C   UNL     1       5.831   4.487  18.325  0.00  0.00    +0.000 A 
ATOM      8  C   UNL     1       5.413   4.171  17.029  0.00  0.00    +0.000 A 
BRANCH   5   9
ATOM      9  C   UNL     1       7.780   7.701  17.752  0.00  0.00    +0.000 C 
ATOM     10  F   UNL     1       6.932   8.738  18.004  0.00  0.00    +0.000 F 
ATOM     11  F   UNL     1       8.598   7.627  18.839  0.00  0.00    +0.000 F 
ATOM     12  F   UNL     1       8.566   8.100  16.716  0.00  0.00    +0.000 F 
ENDBRANCH   5   9
ENDBRANCH   1   8
BRANCH   1  13
ATOM     13  C   UNL     1       3.115   3.713  16.902  0.00  0.00    +0.000 C 
BRANCH  13  14
ATOM     14  C   UNL     1       2.581   4.213  18.226  0.00  0.00    +0.000 A 
ATOM     15  C   UNL     1       2.366   5.567  18.502  0.00  0.00    +0.000 A 
ATOM     16  C   UNL     1       2.056   5.978  19.800  0.00  0.00    +0.000 A 
ATOM     17  C   UNL     1       1.964   5.045  20.837  0.00  0.00    +0.000 A 
ATOM     18  C   UNL     1       2.134   3.680  20.579  0.00  0.00    +0.000 A 
ATOM     19  C   UNL     1       2.419   3.282  19.271  0.00  0.00    +0.000 A 
ATOM     20  F   UNL     1       2.581   1.976  18.995  0.00  0.00    +0.000 F 
BRANCH  18  21
ATOM     21  C   UNL     1       2.062   2.735  21.726  0.00  0.00    +0.000 C 
ATOM     22  O   UNL     1       3.047   2.130  22.128  0.00  0.00    +0.000 OA
BRANCH  21  23
ATOM     23  O   UNL     1       0.848   2.581  22.288  0.00  0.00    +0.000 OA
ATOM     24  H   UNL     1       0.145   3.178  21.963  0.00  0.00    +0.000 HD
ENDBRANCH  21  23
ENDBRANCH  18  21
ENDBRANCH  13  14
ENDBRANCH   1  13
TORSDOF 6
ENDMDL
MODEL 4
REMARK VINA RESULT:      -7.8      2.968      3.905
REMARK  Name = 
REMARK  7 active torsions:
REMARK  status: ('A' for Active; 'I' for Inactive)
REMARK    1  A    between atoms: C_1  and  C_2
REMARK    2  A    between atoms: C_4  and  C_5
REMARK    3  A    between atoms: C_11  and  O_12
REMARK    4  A    between atoms: O_12  and  C_13
REMARK    5  A    between atoms: C_13  and  C_14
REMARK    6  A    between atoms: C_18  and  C_19
REMARK    7  A    between atoms: C_19  and  O_21
REMARK                            x       y       z     vdW  Elec       q    Type
REMARK                         _______ _______ _______ _____ _____    ______ ____
ROOT
ATOM      1  O   UNL     1       4.483   3.162  16.997  0.00  0.00    +0.000 OA
ENDROOT
BRANCH   1   8
ATOM      2  C   UNL     1       5.912   4.305  14.558  0.00  0.00    +0.000 C 
ATOM      3  C   UNL     1       6.040   4.789  15.974  0.00  0.00    +0.000 A 
ATOM      4  C   UNL     1       6.821   5.934  16.212  0.00  0.00    +0.000 A 
ATOM      5  C   UNL     1       7.087   6.384  17.514  0.00  0.00    +0.000 A 
ATOM      6  C   UNL     1       6.649   5.605  18.591  0.00  0.00    +0.000 A 
ATOM      7  C   UNL     1       5.825   4.499  18.369  0.00  0.00    +0.000 A 
ATOM      8  C   UNL     1       5.442   4.146  17.072  0.00  0.00    +0.000 A 
BRANCH   5   9
ATOM      9  C   UNL     1       7.789   7.697  17.757  0.00  0.00    +0.000 C 
ATOM     10  F   UNL     1       8.623   7.674  18.836  0.00  0.00    +0.000 F 
ATOM     11  F   UNL     1       8.569   8.060  16.700  0.00  0.00    +0.000 F 
ATOM     12  F   UNL     1       6.932   8.732  17.965  0.00  0.00    +0.000 F 
ENDBRANCH   5   9
ENDBRANCH   1   8
BRANCH   1  13
ATOM     13  C   UNL     1       3.145   3.683  16.934  0.00  0.00    +0.000 C 
BRANCH  13  14
ATOM     14  C   UNL     1       2.600   4.191  18.251  0.00  0.00    +0.000 A 
ATOM     15  C   UNL     1       2.394   5.547  18.523  0.00  0.00    +0.000 A 
ATOM     16  C   UNL     1       2.074   5.963  19.817  0.00  0.00    +0.000 A 
ATOM     17  C   UNL     1       1.962   5.032  20.854  0.00  0.00    +0.000 A 
ATOM     18  C   UNL     1       2.121   3.666  20.600  0.00  0.00    +0.000 A 
ATOM     19  C   UNL     1       2.418   3.263  19.295  0.00  0.00    +0.000 A 
ATOM     20  F   UNL     1       2.571   1.955  19.023  0.00  0.00    +0.000 F 
BRANCH  18  21
ATOM     21  C   UNL     1       2.028   2.723  21.747  0.00  0.00    +0.000 C 
ATOM     22  O   UNL     1       0.981   2.547  22.357  0.00  0.00    +0.000 OA
BRANCH  21  23
ATOM     23  O   UNL     1       3.165   2.081  22.076  0.00  0.00    +0.000 OA
ATOM     24  H   UNL     1       3.567   2.330  22.931  0.00  0.00    +0.000 HD
ENDBRANCH  21  23
ENDBRANCH  18  21
ENDBRANCH  13  14
ENDBRANCH   1  13
TORSDOF 6
ENDMDL
MODEL 5
REMARK VINA RESULT:      -7.7      2.771      6.758
REMARK  Name = 
REMARK  7 active torsions:
REMARK  status: ('A' for Active; 'I' for Inactive)
REMARK    1  A    between atoms: C_1  and  C_2
REMARK    2  A    between atoms: C_4  and  C_5
REMARK    3  A    between atoms: C_11  and  O_12
REMARK    4  A    between atoms: O_12  and  C_13
REMARK    5  A    between atoms: C_13  and  C_14
REMARK    6  A    between atoms: C_18  and  C_19
REMARK    7  A    between atoms: C_19  and  O_21
REMARK                            x       y       z     vdW  Elec       q    Type
REMARK                         _______ _______ _______ _____ _____    ______ ____
ROOT
ATOM      1  O   UNL     1       2.876   6.742  17.480  0.00  0.00    +0.000 OA
ENDROOT
BRANCH   1   8
ATOM      2  C   UNL     1       2.598   3.789  16.772  0.00  0.00    +0.000 C 
ATOM      3  C   UNL     1       2.496   4.391  18.145  0.00  0.00    +0.000 A 
ATOM      4  C   UNL     1       2.344   3.518  19.237  0.00  0.00    +0.000 A 
ATOM      5  C   UNL     1       2.126   4.000  20.536  0.00  0.00    +0.000 A 
ATOM      6  C   UNL     1       1.950   5.377  20.717  0.00  0.00    +0.000 A 
ATOM      7  C   UNL     1       2.154   6.256  19.651  0.00  0.00    +0.000 A 
ATOM      8  C   UNL     1       2.520   5.774  18.390  0.00  0.00    +0.000 A 
BRANCH   5   9
ATOM      9  C   UNL     1       2.123   3.069  21.724  0.00  0.00    +0.000 C 
ATOM     10  F   UNL     1       2.297   3.708  22.915  0.00  0.00    +0.000 F 
ATOM     11  F   UNL     1       0.944   2.396  21.839  0.00  0.00    +0.000 F 
ATOM     12  F   UNL     1       3.094   2.118  21.661  0.00  0.00    +0.000 F 
ENDBRANCH   5   9
ENDBRANCH   1   8
BRANCH   1  13
ATOM     13  C   UNL     1       4.219   7.221  17.663  0.00  0.00    +0.000 C 
BRANCH  13  14
ATOM     14  C   UNL     1       5.299   6.188  17.423  0.00  0.00    +0.000 A 
ATOM     15  C   UNL     1       6.087   5.653  18.446  0.00  0.00    +0.000 A 
ATOM     16  C   UNL     1       7.189   4.853  18.138  0.00  0.00    +0.000 A 
ATOM     17  C   UNL     1       7.520   4.584  16.807  0.00  0.00    +0.000 A 
ATOM     18  C   UNL     1       6.723   5.072  15.766  0.00  0.00    +0.000 A 
ATOM     19  C   UNL     1       5.610   5.851  16.091  0.00  0.00    +0.000 A 
ATOM     20  F   UNL     1       4.824   6.329  15.110  0.00  0.00    +0.000 F 
BRANCH  18  21
ATOM     21  C   UNL     1       7.142   4.786  14.367  0.00  0.00    +0.000 C 
ATOM     22  O   UNL     1       7.918   5.515  13.762  0.00  0.00    +0.000 OA
BRANCH  21  23
ATOM     23  O   UNL     1       6.611   3.683  13.807  0.00  0.00    +0.000 OA
ATOM     24  H   UNL     1       6.803   3.548  12.858  0.00  0.00    +0.000 HD
ENDBRANCH  21  23
ENDBRANCH  18  21
ENDBRANCH  13  14
ENDBRANCH   1  13
TORSDOF 6
ENDMDL
MODEL 6
REMARK VINA RESULT:      -7.7      2.780      6.765
REMARK  Name = 
REMARK  7 active torsions:
REMARK  status: ('A' for Active; 'I' for Inactive)
REMARK    1  A    between atoms: C_1  and  C_2
REMARK    2  A    between atoms: C_4  and  C_5
REMARK    3  A    between atoms: C_11  and  O_12
REMARK    4  A    between atoms: O_12  and  C_13
REMARK    5  A    between atoms: C_13  and  C_14
REMARK    6  A    between atoms: C_18  and  C_19
REMARK    7  A    between atoms: C_19  and  O_21
REMARK                            x       y       z     vdW  Elec       q    Type
REMARK                         _______ _______ _______ _____ _____    ______ ____
ROOT
ATOM      1  O   UNL     1       2.935   6.750  17.459  0.00  0.00    +0.000 OA
ENDROOT
BRANCH   1   8
ATOM      2  C   UNL     1       2.687   3.793  16.756  0.00  0.00    +0.000 C 
ATOM      3  C   UNL     1       2.550   4.399  18.124  0.00  0.00    +0.000 A 
ATOM      4  C   UNL     1       2.376   3.529  19.215  0.00  0.00    +0.000 A 
ATOM      5  C   UNL     1       2.125   4.015  20.507  0.00  0.00    +0.000 A 
ATOM      6  C   UNL     1       1.938   5.392  20.679  0.00  0.00    +0.000 A 
ATOM      7  C   UNL     1       2.163   6.268  19.615  0.00  0.00    +0.000 A 
ATOM      8  C   UNL     1       2.562   5.783  18.365  0.00  0.00    +0.000 A 
BRANCH   5   9
ATOM      9  C   UNL     1       2.098   3.088  21.698  0.00  0.00    +0.000 C 
ATOM     10  F   UNL     1       3.025   2.091  21.630  0.00  0.00    +0.000 F 
ATOM     11  F   UNL     1       2.356   3.748  22.862  0.00  0.00    +0.000 F 
ATOM     12  F   UNL     1       0.896   2.475  21.871  0.00  0.00    +0.000 F 
ENDBRANCH   5   9
ENDBRANCH   1   8
BRANCH   1  13
ATOM     13  C   UNL     1       4.287   7.200  17.642  0.00  0.00    +0.000 C 
BRANCH  13  14
ATOM     14  C   UNL     1       5.347   6.160  17.350  0.00  0.00    +0.000 A 
ATOM     15  C   UNL     1       6.133   5.568  18.343  0.00  0.00    +0.000 A 
ATOM     16  C   UNL     1       7.218   4.762  17.991  0.00  0.00    +0.000 A 
ATOM     17  C   UNL     1       7.534   4.544  16.648  0.00  0.00    +0.000 A 
ATOM     18  C   UNL     1       6.739   5.090  15.635  0.00  0.00    +0.000 A 
ATOM     19  C   UNL     1       5.642   5.874  16.002  0.00  0.00    +0.000 A 
ATOM     20  F   UNL     1       4.858   6.407  15.048  0.00  0.00    +0.000 F 
BRANCH  18  21
ATOM     21  C   UNL     1       7.142   4.857  14.222  0.00  0.00    +0.000 C 
ATOM     22  O   UNL     1       6.600   4.009  13.525  0.00  0.00    +0.000 OA
BRANCH  21  23
ATOM     23  O   UNL     1       8.142   5.631  13.760  0.00  0.00    +0.000 OA
ATOM     24  H   UNL     1       8.473   6.317  14.372  0.00  0.00    +0.000 HD
ENDBRANCH  21  23
ENDBRANCH  18  21
ENDBRANCH  13  14
ENDBRANCH   1  13
TORSDOF 6
ENDMDL
MODEL 7
REMARK VINA RESULT:      -7.7      2.947      6.917
REMARK  Name = 
REMARK  7 active torsions:
REMARK  status: ('A' for Active; 'I' for Inactive)
REMARK    1  A    between atoms: C_1  and  C_2
REMARK    2  A    between atoms: C_4  and  C_5
REMARK    3  A    between atoms: C_11  and  O_12
REMARK    4  A    between atoms: O_12  and  C_13
REMARK    5  A    between atoms: C_13  and  C_14
REMARK    6  A    between atoms: C_18  and  C_19
REMARK    7  A    between atoms: C_19  and  O_21
REMARK                            x       y       z     vdW  Elec       q    Type
REMARK                         _______ _______ _______ _____ _____    ______ ____
ROOT
ATOM      1  O   UNL     1       4.998   5.873  16.065  0.00  0.00    +0.000 OA
ENDROOT
BRANCH   1   8
ATOM      2  C   UNL     1       3.207   7.641  17.787  0.00  0.00    +0.000 C 
ATOM      3  C   UNL     1       3.275   6.141  17.819  0.00  0.00    +0.000 A 
ATOM      4  C   UNL     1       2.373   5.458  18.654  0.00  0.00    +0.000 A 
ATOM      5  C   UNL     1       2.446   4.068  18.832  0.00  0.00    +0.000 A 
ATOM      6  C   UNL     1       3.511   3.375  18.244  0.00  0.00    +0.000 A 
ATOM      7  C   UNL     1       4.378   4.032  17.368  0.00  0.00    +0.000 A 
ATOM      8  C   UNL     1       4.205   5.390  17.080  0.00  0.00    +0.000 A 
BRANCH   5   9
ATOM      9  C   UNL     1       1.383   3.323  19.600  0.00  0.00    +0.000 C 
ATOM     10  F   UNL     1       0.716   2.402  18.849  0.00  0.00    +0.000 F 
ATOM     11  F   UNL     1       1.906   2.630  20.650  0.00  0.00    +0.000 F 
ATOM     12  F   UNL     1       0.431   4.141  20.126  0.00  0.00    +0.000 F 
ENDBRANCH   5   9
ENDBRANCH   1   8
BRANCH   1  13
ATOM     13  C   UNL     1       6.279   5.225  15.994  0.00  0.00    +0.000 C 
BRANCH  13  14
ATOM     14  C   UNL     1       6.720   4.844  14.597  0.00  0.00    +0.000 A 
ATOM     15  C   UNL     1       7.749   5.500  13.914  0.00  0.00    +0.000 A 
ATOM     16  C   UNL     1       7.977   5.230  12.563  0.00  0.00    +0.000 A 
ATOM     17  C   UNL     1       7.179   4.309  11.878  0.00  0.00    +0.000 A 
ATOM     18  C   UNL     1       6.171   3.608  12.549  0.00  0.00    +0.000 A 
ATOM     19  C   UNL     1       5.970   3.872  13.907  0.00  0.00    +0.000 A 
ATOM     20  F   UNL     1       5.011   3.208  14.576  0.00  0.00    +0.000 F 
BRANCH  18  21
ATOM     21  C   UNL     1       5.328   2.668  11.764  0.00  0.00    +0.000 C 
ATOM     22  O   UNL     1       4.218   2.982  11.352  0.00  0.00    +0.000 OA
BRANCH  21  23
ATOM     23  O   UNL     1       5.856   1.449  11.541  0.00  0.00    +0.000 OA
ATOM     24  H   UNL     1       5.236   0.763  11.223  0.00  0.00    +0.000 HD
ENDBRANCH  21  23
ENDBRANCH  18  21
ENDBRANCH  13  14
ENDBRANCH   1  13
TORSDOF 6
ENDMDL
MODEL 8
REMARK VINA RESULT:      -7.7      0.136      1.039
REMARK  Name = 
REMARK  7 active torsions:
REMARK  status: ('A' for Active; 'I' for Inactive)
REMARK    1  A    between atoms: C_1  and  C_2
REMARK    2  A    between atoms: C_4  and  C_5
REMARK    3  A    between atoms: C_11  and  O_12
REMARK    4  A    between atoms: O_12  and  C_13
REMARK    5  A    between atoms: C_13  and  C_14
REMARK    6  A    between atoms: C_18  and  C_19
REMARK    7  A    between atoms: C_19  and  O_21
REMARK                            x       y       z     vdW  Elec       q    Type
REMARK                         _______ _______ _______ _____ _____    ______ ____
ROOT
ATOM      1  O   UNL     1       5.225   6.278  17.990  0.00  0.00    +0.000 OA
ENDROOT
BRANCH   1   8
ATOM      2  C   UNL     1       7.674   4.477  17.750  0.00  0.00    +0.000 C 
ATOM      3  C   UNL     1       6.723   4.842  16.646  0.00  0.00    +0.000 A 
ATOM      4  C   UNL     1       6.910   4.238  15.389  0.00  0.00    +0.000 A 
ATOM      5  C   UNL     1       6.142   4.609  14.276  0.00  0.00    +0.000 A 
ATOM      6  C   UNL     1       5.249   5.680  14.407  0.00  0.00    +0.000 A 
ATOM      7  C   UNL     1       5.015   6.249  15.661  0.00  0.00    +0.000 A 
ATOM      8  C   UNL     1       5.677   5.769  16.795  0.00  0.00    +0.000 A 
BRANCH   5   9
ATOM      9  C   UNL     1       6.236   3.850  12.975  0.00  0.00    +0.000 C 
ATOM     10  F   UNL     1       6.525   2.528  13.138  0.00  0.00    +0.000 F 
ATOM     11  F   UNL     1       5.064   3.885  12.280  0.00  0.00    +0.000 F 
ATOM     12  F   UNL     1       7.186   4.344  12.135  0.00  0.00    +0.000 F 
ENDBRANCH   5   9
ENDBRANCH   1   8
BRANCH   1  13
ATOM     13  C   UNL     1       3.882   6.786  17.913  0.00  0.00    +0.000 C 
BRANCH  13  14
ATOM     14  C   UNL     1       2.869   6.027  18.743  0.00  0.00    +0.000 A 
ATOM     15  C   UNL     1       2.349   6.512  19.947  0.00  0.00    +0.000 A 
ATOM     16  C   UNL     1       1.568   5.685  20.758  0.00  0.00    +0.000 A 
ATOM     17  C   UNL     1       1.305   4.365  20.381  0.00  0.00    +0.000 A 
ATOM     18  C   UNL     1       1.779   3.869  19.161  0.00  0.00    +0.000 A 
ATOM     19  C   UNL     1       2.538   4.716  18.349  0.00  0.00    +0.000 A 
ATOM     20  F   UNL     1       3.001   4.265  17.170  0.00  0.00    +0.000 F 
BRANCH  18  21
ATOM     21  C   UNL     1       1.501   2.446  18.827  0.00  0.00    +0.000 C 
ATOM     22  O   UNL     1       2.361   1.579  18.919  0.00  0.00    +0.000 OA
BRANCH  21  23
ATOM     23  O   UNL     1       0.250   2.172  18.411  0.00  0.00    +0.000 OA
ATOM     24  H   UNL     1      -0.195   1.421  18.851  0.00  0.00    +0.000 HD
ENDBRANCH  21  23
ENDBRANCH  18  21
ENDBRANCH  13  14
ENDBRANCH   1  13
TORSDOF 6
ENDMDL
MODEL 9
REMARK VINA RESULT:      -7.7      1.783      2.436
REMARK  Name = 
REMARK  7 active torsions:
REMARK  status: ('A' for Active; 'I' for Inactive)
REMARK    1  A    between atoms: C_1  and  C_2
REMARK    2  A    between atoms: C_4  and  C_5
REMARK    3  A    between atoms: C_11  and  O_12
REMARK    4  A    between atoms: O_12  and  C_13
REMARK    5  A    between atoms: C_13  and  C_14
REMARK    6  A    between atoms: C_18  and  C_19
REMARK    7  A    between atoms: C_19  and  O_21
REMARK                            x       y       z     vdW  Elec       q    Type
REMARK                         _______ _______ _______ _____ _____    ______ ____
ROOT
ATOM      1  O   UNL     1       4.014   6.774  18.596  0.00  0.00    +0.000 OA
ENDROOT
BRANCH   1   8
ATOM      2  C   UNL     1       5.720   4.277  18.988  0.00  0.00    +0.000 C 
ATOM      3  C   UNL     1       5.407   4.947  17.681  0.00  0.00    +0.000 A 
ATOM      4  C   UNL     1       5.862   4.333  16.500  0.00  0.00    +0.000 A 
ATOM      5  C   UNL     1       5.715   4.950  15.248  0.00  0.00    +0.000 A 
ATOM      6  C   UNL     1       5.200   6.251  15.202  0.00  0.00    +0.000 A 
ATOM      7  C   UNL     1       4.694   6.848  16.359  0.00  0.00    +0.000 A 
ATOM      8  C   UNL     1       4.708   6.162  17.578  0.00  0.00    +0.000 A 
BRANCH   5   9
ATOM      9  C   UNL     1       6.059   4.220  13.974  0.00  0.00    +0.000 C 
ATOM     10  F   UNL     1       5.011   4.114  13.109  0.00  0.00    +0.000 F 
ATOM     11  F   UNL     1       7.045   4.852  13.276  0.00  0.00    +0.000 F 
ATOM     12  F   UNL     1       6.503   2.952  14.186  0.00  0.00    +0.000 F 
ENDBRANCH   5   9
ENDBRANCH   1   8
BRANCH   1  13
ATOM     13  C   UNL     1       2.600   6.520  18.545  0.00  0.00    +0.000 C 
BRANCH  13  14
ATOM     14  C   UNL     1       2.211   5.067  18.714  0.00  0.00    +0.000 A 
ATOM     15  C   UNL     1       1.556   4.330  17.722  0.00  0.00    +0.000 A 
ATOM     16  C   UNL     1       1.056   3.058  18.009  0.00  0.00    +0.000 A 
ATOM     17  C   UNL     1       1.198   2.511  19.287  0.00  0.00    +0.000 A 
ATOM     18  C   UNL     1       1.886   3.210  20.285  0.00  0.00    +0.000 A 
ATOM     19  C   UNL     1       2.403   4.471  19.976  0.00  0.00    +0.000 A 
ATOM     20  F   UNL     1       3.073   5.162  20.915  0.00  0.00    +0.000 F 
BRANCH  18  21
ATOM     21  C   UNL     1       1.976   2.597  21.637  0.00  0.00    +0.000 C 
ATOM     22  O   UNL     1       3.039   2.205  22.102  0.00  0.00    +0.000 OA
BRANCH  21  23
ATOM     23  O   UNL     1       0.817   2.495  22.316  0.00  0.00    +0.000 OA
ATOM     24  H   UNL     1       0.646   3.190  22.982  0.00  0.00    +0.000 HD
ENDBRANCH  21  23
ENDBRANCH  18  21
ENDBRANCH  13  14
ENDBRANCH   1  13
TORSDOF 6
ENDMDL
