MODEL 1
REMARK VINA RESULT:      -7.8      0.000      0.000
REMARK  Name = 
REMARK  6 active torsions:
REMARK  status: ('A' for Active; 'I' for Inactive)
REMARK    1  A    between atoms: C_1  and  C_2
REMARK    2  A    between atoms: C_10  and  S_11
REMARK    3  A    between atoms: S_11  and  C_12
REMARK    4  A    between atoms: C_12  and  C_13
REMARK    5  A    between atoms: N_15  and  C_16
REMARK    6  A    between atoms: C_18  and  C_19
REMARK                            x       y       z     vdW  Elec       q    Type
REMARK                         _______ _______ _______ _____ _____    ______ ____
ROOT
ATOM      1  C   UNL     1       2.206   5.298  19.960  0.00  0.00    +0.000 C 
ATOM      2  O   UNL     1       1.406   4.981  19.083  0.00  0.00    +0.000 OA
ATOM      3  N   UNL     1       2.570   6.597  20.269  0.00  0.00    +0.000 N 
ATOM      4  H   UNL     1       3.387   6.718  20.861  0.00  0.00    +0.000 HD
ENDROOT
BRANCH   3   5
ATOM      5  C   UNL     1       2.038   7.786  19.704  0.00  0.00    +0.000 A 
ATOM      6  C   UNL     1       1.138   8.613  20.391  0.00  0.00    +0.000 A 
ATOM      7  C   UNL     1       0.629   9.789  19.807  0.00  0.00    +0.000 A 
ATOM      8  C   UNL     1       1.045  10.144  18.516  0.00  0.00    +0.000 A 
ATOM      9  C   UNL     1       1.949   9.340  17.824  0.00  0.00    +0.000 A 
ATOM     10  C   UNL     1       2.444   8.173  18.415  0.00  0.00    +0.000 A 
ATOM     11 CL   UNL     1       3.544   7.199  17.500  0.00  0.00    +0.000 Cl
BRANCH   7  12
ATOM     12  C   UNL     1      -0.353  10.663  20.555  0.00  0.00    +0.000 C 
ATOM     13  F   UNL     1      -1.456  10.998  19.831  0.00  0.00    +0.000 F 
ATOM     14  F   UNL     1      -0.819  10.065  21.687  0.00  0.00    +0.000 F 
ATOM     15  F   UNL     1       0.204  11.839  20.957  0.00  0.00    +0.000 F 
ENDBRANCH   7  12
ENDBRANCH   3   5
BRANCH   1  16
ATOM     16  C   UNL     1       2.813   4.235  20.860  0.00  0.00    +0.000 C 
BRANCH  16  17
ATOM     17  S   UNL     1       3.676   2.915  19.935  0.00  0.00    +0.000 S 
BRANCH  17  27
ATOM     18  C   UNL     1       3.316   3.035  16.604  0.00  0.00    +0.000 C 
ATOM     19  C   UNL     1       4.559   3.868  16.688  0.00  0.00    +0.000 A 
ATOM     20  C   UNL     1       5.101   4.368  15.556  0.00  0.00    +0.000 A 
ATOM     21  C   UNL     1       6.338   5.202  15.586  0.00  0.00    +0.000 A 
ATOM     22  O   UNL     1       6.810   5.644  14.545  0.00  0.00    +0.000 OA
ATOM     23  N   UNL     1       6.897   5.437  16.809  0.00  0.00    +0.000 N 
ATOM     24  C   UNL     1       6.337   4.931  17.951  0.00  0.00    +0.000 A 
ATOM     25  N   UNL     1       6.766   5.092  19.177  0.00  0.00    +0.000 NA
ATOM     26  N   UNL     1       5.903   4.422  19.996  0.00  0.00    +0.000 NA
ATOM     27  C   UNL     1       4.969   3.862  19.254  0.00  0.00    +0.000 A 
ATOM     28  N   UNL     1       5.184   4.155  17.916  0.00  0.00    +0.000 N 
ATOM     29  H   UNL     1       7.735   5.998  16.877  0.00  0.00    +0.000 HD
ENDBRANCH  17  27
ENDBRANCH  16  17
ENDBRANCH   1  16
TORSDOF 5
ENDMDL
MODEL 2
REMARK VINA RESULT:      -7.8      5.265      9.056
REMARK  Name = 
REMARK  6 active torsions:
REMARK  status: ('A' for Active; 'I' for Inactive)
REMARK    1  A    between atoms: C_1  and  C_2
REMARK    2  A    between atoms: C_10  and  S_11
REMARK    3  A    between atoms: S_11  and  C_12
REMARK    4  A    between atoms: C_12  and  C_13
REMARK    5  A    between atoms: N_15  and  C_16
REMARK    6  A    between atoms: C_18  and  C_19
REMARK                            x       y       z     vdW  Elec       q    Type
REMARK                         _______ _______ _______ _____ _____    ______ ____
ROOT
ATOM      1  C   UNL     1       2.284   7.675  18.877  0.00  0.00    +0.000 C 
ATOM      2  O   UNL     1       2.310   8.205  17.767  0.00  0.00    +0.000 OA
ATOM      3  N   UNL     1       2.835   6.442  19.179  0.00  0.00    +0.000 N 
ATOM      4  H   UNL     1       2.567   6.024  20.066  0.00  0.00    +0.000 HD
ENDROOT
BRANCH   3   5
ATOM      5  C   UNL     1       3.590   5.612  18.310  0.00  0.00    +0.000 A 
ATOM      6  C   UNL     1       4.934   5.862  18.004  0.00  0.00    +0.000 A 
ATOM      7  C   UNL     1       5.661   5.019  17.141  0.00  0.00    +0.000 A 
ATOM      8  C   UNL     1       5.025   3.899  16.589  0.00  0.00    +0.000 A 
ATOM      9  C   UNL     1       3.691   3.627  16.892  0.00  0.00    +0.000 A 
ATOM     10  C   UNL     1       2.981   4.475  17.750  0.00  0.00    +0.000 A 
ATOM     11 CL   UNL     1       1.321   4.105  18.071  0.00  0.00    +0.000 Cl
BRANCH   7  12
ATOM     12  C   UNL     1       7.107   5.311  16.808  0.00  0.00    +0.000 C 
ATOM     13  F   UNL     1       7.565   6.486  17.320  0.00  0.00    +0.000 F 
ATOM     14  F   UNL     1       7.949   4.348  17.276  0.00  0.00    +0.000 F 
ATOM     15  F   UNL     1       7.324   5.376  15.465  0.00  0.00    +0.000 F 
ENDBRANCH   7  12
ENDBRANCH   3   5
BRANCH   1  16
ATOM     16  C   UNL     1       1.690   8.417  20.062  0.00  0.00    +0.000 C 
BRANCH  16  17
ATOM     17  S   UNL     1       0.894   9.997  19.598  0.00  0.00    +0.000 S 
BRANCH  17  27
ATOM     18  C   UNL     1      -1.717  12.032  19.074  0.00  0.00    +0.000 C 
ATOM     19  C   UNL     1      -1.833  11.959  20.566  0.00  0.00    +0.000 A 
ATOM     20  C   UNL     1      -2.825  12.633  21.189  0.00  0.00    +0.000 A 
ATOM     21  C   UNL     1      -2.984  12.593  22.672  0.00  0.00    +0.000 A 
ATOM     22  O   UNL     1      -3.891  13.214  23.213  0.00  0.00    +0.000 OA
ATOM     23  N   UNL     1      -2.082  11.844  23.371  0.00  0.00    +0.000 N 
ATOM     24  C   UNL     1      -1.084  11.160  22.731  0.00  0.00    +0.000 A 
ATOM     25  N   UNL     1      -0.169  10.403  23.281  0.00  0.00    +0.000 NA
ATOM     26  N   UNL     1       0.611   9.916  22.271  0.00  0.00    +0.000 NA
ATOM     27  C   UNL     1       0.161  10.391  21.127  0.00  0.00    +0.000 A 
ATOM     28  N   UNL     1      -0.942  11.201  21.349  0.00  0.00    +0.000 N 
ATOM     29  H   UNL     1      -2.151  11.788  24.378  0.00  0.00    +0.000 HD
ENDBRANCH  17  27
ENDBRANCH  16  17
ENDBRANCH   1  16
TORSDOF 5
ENDMDL
MODEL 3
REMARK VINA RESULT:      -7.7      5.058      8.046
REMARK  Name = 
REMARK  6 active torsions:
REMARK  status: ('A' for Active; 'I' for Inactive)
REMARK    1  A    between atoms: C_1  and  C_2
REMARK    2  A    between atoms: C_10  and  S_11
REMARK    3  A    between atoms: S_11  and  C_12
REMARK    4  A    between atoms: C_12  and  C_13
REMARK    5  A    between atoms: N_15  and  C_16
REMARK    6  A    between atoms: C_18  and  C_19
REMARK                            x       y       z     vdW  Elec       q    Type
REMARK                         _______ _______ _______ _____ _____    ______ ____
ROOT
ATOM      1  C   UNL     1       3.477   4.588  18.025  0.00  0.00    +0.000 C 
ATOM      2  O   UNL     1       3.924   3.490  18.349  0.00  0.00    +0.000 OA
ATOM      3  N   UNL     1       4.015   5.406  17.047  0.00  0.00    +0.000 N 
ATOM      4  H   UNL     1       3.687   6.368  17.019  0.00  0.00    +0.000 HD
ENDROOT
BRANCH   3   5
ATOM      5  C   UNL     1       5.108   5.104  16.193  0.00  0.00    +0.000 A 
ATOM      6  C   UNL     1       4.940   4.545  14.919  0.00  0.00    +0.000 A 
ATOM      7  C   UNL     1       6.042   4.259  14.091  0.00  0.00    +0.000 A 
ATOM      8  C   UNL     1       7.334   4.554  14.550  0.00  0.00    +0.000 A 
ATOM      9  C   UNL     1       7.519   5.122  15.810  0.00  0.00    +0.000 A 
ATOM     10  C   UNL     1       6.414   5.399  16.622  0.00  0.00    +0.000 A 
ATOM     11 CL   UNL     1       6.703   6.080  18.187  0.00  0.00    +0.000 Cl
BRANCH   7  12
ATOM     12  C   UNL     1       5.846   3.641  12.725  0.00  0.00    +0.000 C 
ATOM     13  F   UNL     1       6.627   4.188  11.753  0.00  0.00    +0.000 F 
ATOM     14  F   UNL     1       6.122   2.307  12.717  0.00  0.00    +0.000 F 
ATOM     15  F   UNL     1       4.562   3.758  12.285  0.00  0.00    +0.000 F 
ENDBRANCH   7  12
ENDBRANCH   3   5
BRANCH   1  16
ATOM     16  C   UNL     1       2.193   5.104  18.653  0.00  0.00    +0.000 C 
BRANCH  16  17
ATOM     17  S   UNL     1       2.479   6.365  19.946  0.00  0.00    +0.000 S 
BRANCH  17  27
ATOM     18  C   UNL     1       0.530   8.451  21.704  0.00  0.00    +0.000 C 
ATOM     19  C   UNL     1       0.667   9.307  20.482  0.00  0.00    +0.000 A 
ATOM     20  C   UNL     1       0.057  10.513  20.445  0.00  0.00    +0.000 A 
ATOM     21  C   UNL     1       0.162  11.403  19.252  0.00  0.00    +0.000 A 
ATOM     22  O   UNL     1      -0.400  12.492  19.243  0.00  0.00    +0.000 OA
ATOM     23  N   UNL     1       0.901  10.945  18.200  0.00  0.00    +0.000 N 
ATOM     24  C   UNL     1       1.520   9.724  18.250  0.00  0.00    +0.000 A 
ATOM     25  N   UNL     1       2.261   9.178  17.319  0.00  0.00    +0.000 NA
ATOM     26  N   UNL     1       2.676   7.967  17.795  0.00  0.00    +0.000 NA
ATOM     27  C   UNL     1       2.175   7.796  19.002  0.00  0.00    +0.000 A 
ATOM     28  N   UNL     1       1.419   8.899  19.364  0.00  0.00    +0.000 N 
ATOM     29  H   UNL     1       1.000  11.515  17.371  0.00  0.00    +0.000 HD
ENDBRANCH  17  27
ENDBRANCH  16  17
ENDBRANCH   1  16
TORSDOF 5
ENDMDL
MODEL 4
REMARK VINA RESULT:      -7.6      4.913      7.934
REMARK  Name = 
REMARK  6 active torsions:
REMARK  status: ('A' for Active; 'I' for Inactive)
REMARK    1  A    between atoms: C_1  and  C_2
REMARK    2  A    between atoms: C_10  and  S_11
REMARK    3  A    between atoms: S_11  and  C_12
REMARK    4  A    between atoms: C_12  and  C_13
REMARK    5  A    between atoms: N_15  and  C_16
REMARK    6  A    between atoms: C_18  and  C_19
REMARK                            x       y       z     vdW  Elec       q    Type
REMARK                         _______ _______ _______ _____ _____    ______ ____
ROOT
ATOM      1  C   UNL     1       3.103   4.648  18.665  0.00  0.00    +0.000 C 
ATOM      2  O   UNL     1       3.381   3.492  18.976  0.00  0.00    +0.000 OA
ATOM      3  N   UNL     1       3.846   5.439  17.807  0.00  0.00    +0.000 N 
ATOM      4  H   UNL     1       3.633   6.433  17.796  0.00  0.00    +0.000 HD
ENDROOT
BRANCH   3   5
ATOM      5  C   UNL     1       4.997   5.048  17.072  0.00  0.00    +0.000 A 
ATOM      6  C   UNL     1       4.948   4.711  15.713  0.00  0.00    +0.000 A 
ATOM      7  C   UNL     1       6.105   4.330  15.008  0.00  0.00    +0.000 A 
ATOM      8  C   UNL     1       7.334   4.303  15.682  0.00  0.00    +0.000 A 
ATOM      9  C   UNL     1       7.404   4.647  17.031  0.00  0.00    +0.000 A 
ATOM     10  C   UNL     1       6.245   5.021  17.719  0.00  0.00    +0.000 A 
ATOM     11 CL   UNL     1       6.385   5.414  19.399  0.00  0.00    +0.000 Cl
BRANCH   7  12
ATOM     12  C   UNL     1       6.034   3.954  13.545  0.00  0.00    +0.000 C 
ATOM     13  F   UNL     1       4.803   4.127  12.989  0.00  0.00    +0.000 F 
ATOM     14  F   UNL     1       6.894   4.684  12.781  0.00  0.00    +0.000 F 
ATOM     15  F   UNL     1       6.361   2.649  13.331  0.00  0.00    +0.000 F 
ENDBRANCH   7  12
ENDBRANCH   3   5
BRANCH   1  16
ATOM     16  C   UNL     1       1.816   5.284  19.164  0.00  0.00    +0.000 C 
BRANCH  16  17
ATOM     17  S   UNL     1       2.098   6.636  20.363  0.00  0.00    +0.000 S 
BRANCH  17  27
ATOM     18  C   UNL     1      -0.103   8.772  21.714  0.00  0.00    +0.000 C 
ATOM     19  C   UNL     1       0.171   9.552  20.465  0.00  0.00    +0.000 A 
ATOM     20  C   UNL     1      -0.453  10.734  20.269  0.00  0.00    +0.000 A 
ATOM     21  C   UNL     1      -0.214  11.549  19.042  0.00  0.00    +0.000 A 
ATOM     22  O   UNL     1      -0.793  12.618  18.888  0.00  0.00    +0.000 OA
ATOM     23  N   UNL     1       0.664  11.046  18.126  0.00  0.00    +0.000 N 
ATOM     24  C   UNL     1       1.296   9.850  18.336  0.00  0.00    +0.000 A 
ATOM     25  N   UNL     1       2.163   9.267  17.547  0.00  0.00    +0.000 NA
ATOM     26  N   UNL     1       2.538   8.102  18.151  0.00  0.00    +0.000 NA
ATOM     27  C   UNL     1       1.889   7.994  19.294  0.00  0.00    +0.000 A 
ATOM     28  N   UNL     1       1.069   9.096  19.482  0.00  0.00    +0.000 N 
ATOM     29  H   UNL     1       0.857  11.565  17.280  0.00  0.00    +0.000 HD
ENDBRANCH  17  27
ENDBRANCH  16  17
ENDBRANCH   1  16
TORSDOF 5
ENDMDL
MODEL 5
REMARK VINA RESULT:      -7.6      5.185      8.569
REMARK  Name = 
REMARK  6 active torsions:
REMARK  status: ('A' for Active; 'I' for Inactive)
REMARK    1  A    between atoms: C_1  and  C_2
REMARK    2  A    between atoms: C_10  and  S_11
REMARK    3  A    between atoms: S_11  and  C_12
REMARK    4  A    between atoms: C_12  and  C_13
REMARK    5  A    between atoms: N_15  and  C_16
REMARK    6  A    between atoms: C_18  and  C_19
REMARK                            x       y       z     vdW  Elec       q    Type
REMARK                         _______ _______ _______ _____ _____    ______ ____
ROOT
ATOM      1  C   UNL     1       0.295   8.786  21.493  0.00  0.00    +0.000 C 
ATOM      2  O   UNL     1      -0.642   8.004  21.633  0.00  0.00    +0.000 OA
ATOM      3  N   UNL     1       1.490   8.487  20.862  0.00  0.00    +0.000 N 
ATOM      4  H   UNL     1       2.257   9.140  20.994  0.00  0.00    +0.000 HD
ENDROOT
BRANCH   3   5
ATOM      5  C   UNL     1       1.820   7.276  20.197  0.00  0.00    +0.000 A 
ATOM      6  C   UNL     1       1.705   6.021  20.810  0.00  0.00    +0.000 A 
ATOM      7  C   UNL     1       2.035   4.836  20.126  0.00  0.00    +0.000 A 
ATOM      8  C   UNL     1       2.476   4.917  18.798  0.00  0.00    +0.000 A 
ATOM      9  C   UNL     1       2.585   6.156  18.168  0.00  0.00    +0.000 A 
ATOM     10  C   UNL     1       2.255   7.325  18.861  0.00  0.00    +0.000 A 
ATOM     11 CL   UNL     1       2.433   8.838  18.039  0.00  0.00    +0.000 Cl
BRANCH   7  12
ATOM     12  C   UNL     1       1.921   3.490  20.806  0.00  0.00    +0.000 C 
ATOM     13  F   UNL     1       0.665   2.965  20.785  0.00  0.00    +0.000 F 
ATOM     14  F   UNL     1       2.727   2.552  20.234  0.00  0.00    +0.000 F 
ATOM     15  F   UNL     1       2.284   3.543  22.118  0.00  0.00    +0.000 F 
ENDBRANCH   7  12
ENDBRANCH   3   5
BRANCH   1  16
ATOM     16  C   UNL     1       0.161  10.228  21.952  0.00  0.00    +0.000 C 
BRANCH  16  17
ATOM     17  S   UNL     1       0.489  11.442  20.623  0.00  0.00    +0.000 S 
BRANCH  17  27
ATOM     18  C   UNL     1      -0.857   9.956  17.937  0.00  0.00    +0.000 C 
ATOM     19  C   UNL     1      -2.039  10.804  18.294  0.00  0.00    +0.000 A 
ATOM     20  C   UNL     1      -3.159  10.732  17.541  0.00  0.00    +0.000 A 
ATOM     21  C   UNL     1      -4.364  11.555  17.855  0.00  0.00    +0.000 A 
ATOM     22  O   UNL     1      -5.368  11.472  17.157  0.00  0.00    +0.000 OA
ATOM     23  N   UNL     1      -4.283  12.383  18.936  0.00  0.00    +0.000 N 
ATOM     24  C   UNL     1      -3.146  12.445  19.696  0.00  0.00    +0.000 A 
ATOM     25  N   UNL     1      -2.947  13.185  20.757  0.00  0.00    +0.000 NA
ATOM     26  N   UNL     1      -1.681  12.924  21.197  0.00  0.00    +0.000 NA
ATOM     27  C   UNL     1      -1.131  12.036  20.393  0.00  0.00    +0.000 A 
ATOM     28  N   UNL     1      -2.027  11.675  19.399  0.00  0.00    +0.000 N 
ATOM     29  H   UNL     1      -5.076  12.959  19.186  0.00  0.00    +0.000 HD
ENDBRANCH  17  27
ENDBRANCH  16  17
ENDBRANCH   1  16
TORSDOF 5
ENDMDL
MODEL 6
REMARK VINA RESULT:      -7.6      4.999      8.610
REMARK  Name = 
REMARK  6 active torsions:
REMARK  status: ('A' for Active; 'I' for Inactive)
REMARK    1  A    between atoms: C_1  and  C_2
REMARK    2  A    between atoms: C_10  and  S_11
REMARK    3  A    between atoms: S_11  and  C_12
REMARK    4  A    between atoms: C_12  and  C_13
REMARK    5  A    between atoms: N_15  and  C_16
REMARK    6  A    between atoms: C_18  and  C_19
REMARK                            x       y       z     vdW  Elec       q    Type
REMARK                         _______ _______ _______ _____ _____    ______ ____
ROOT
ATOM      1  C   UNL     1       2.124   6.089  20.430  0.00  0.00    +0.000 C 
ATOM      2  O   UNL     1       2.332   5.049  21.053  0.00  0.00    +0.000 OA
ATOM      3  N   UNL     1       2.739   6.436  19.240  0.00  0.00    +0.000 N 
ATOM      4  H   UNL     1       2.643   7.401  18.936  0.00  0.00    +0.000 HD
ENDROOT
BRANCH   3   5
ATOM      5  C   UNL     1       3.642   5.640  18.486  0.00  0.00    +0.000 A 
ATOM      6  C   UNL     1       5.031   5.819  18.535  0.00  0.00    +0.000 A 
ATOM      7  C   UNL     1       5.903   5.012  17.780  0.00  0.00    +0.000 A 
ATOM      8  C   UNL     1       5.366   4.000  16.972  0.00  0.00    +0.000 A 
ATOM      9  C   UNL     1       3.987   3.800  16.920  0.00  0.00    +0.000 A 
ATOM     10  C   UNL     1       3.133   4.610  17.675  0.00  0.00    +0.000 A 
ATOM     11 CL   UNL     1       1.428   4.334  17.553  0.00  0.00    +0.000 Cl
BRANCH   7  12
ATOM     12  C   UNL     1       7.399   5.228  17.832  0.00  0.00    +0.000 C 
ATOM     13  F   UNL     1       8.125   4.176  17.363  0.00  0.00    +0.000 F 
ATOM     14  F   UNL     1       7.791   6.307  17.099  0.00  0.00    +0.000 F 
ATOM     15  F   UNL     1       7.844   5.456  19.099  0.00  0.00    +0.000 F 
ENDBRANCH   7  12
ENDBRANCH   3   5
BRANCH   1  16
ATOM     16  C   UNL     1       1.064   7.066  20.909  0.00  0.00    +0.000 C 
BRANCH  16  17
ATOM     17  S   UNL     1       1.356   8.780  20.341  0.00  0.00    +0.000 S 
BRANCH  17  27
ATOM     18  C   UNL     1      -0.716  10.998  18.919  0.00  0.00    +0.000 C 
ATOM     19  C   UNL     1      -1.069  11.300  20.343  0.00  0.00    +0.000 A 
ATOM     20  C   UNL     1      -1.999  12.242  20.612  0.00  0.00    +0.000 A 
ATOM     21  C   UNL     1      -2.386  12.580  22.013  0.00  0.00    +0.000 A 
ATOM     22  O   UNL     1      -3.232  13.439  22.230  0.00  0.00    +0.000 OA
ATOM     23  N   UNL     1      -1.758  11.892  23.011  0.00  0.00    +0.000 N 
ATOM     24  C   UNL     1      -0.821  10.934  22.729  0.00  0.00    +0.000 A 
ATOM     25  N   UNL     1      -0.160  10.202  23.588  0.00  0.00    +0.000 NA
ATOM     26  N   UNL     1       0.659   9.379  22.869  0.00  0.00    +0.000 NA
ATOM     27  C   UNL     1       0.486   9.630  21.587  0.00  0.00    +0.000 A 
ATOM     28  N   UNL     1      -0.465  10.625  21.421  0.00  0.00    +0.000 N 
ATOM     29  H   UNL     1      -1.989  12.087  23.976  0.00  0.00    +0.000 HD
ENDBRANCH  17  27
ENDBRANCH  16  17
ENDBRANCH   1  16
TORSDOF 5
ENDMDL
MODEL 7
REMARK VINA RESULT:      -7.6      5.303      9.190
REMARK  Name = 
REMARK  6 active torsions:
REMARK  status: ('A' for Active; 'I' for Inactive)
REMARK    1  A    between atoms: C_1  and  C_2
REMARK    2  A    between atoms: C_10  and  S_11
REMARK    3  A    between atoms: S_11  and  C_12
REMARK    4  A    between atoms: C_12  and  C_13
REMARK    5  A    between atoms: N_15  and  C_16
REMARK    6  A    between atoms: C_18  and  C_19
REMARK                            x       y       z     vdW  Elec       q    Type
REMARK                         _______ _______ _______ _____ _____    ______ ____
ROOT
ATOM      1  C   UNL     1       1.004   8.393  21.333  0.00  0.00    +0.000 C 
ATOM      2  O   UNL     1      -0.151   7.976  21.259  0.00  0.00    +0.000 OA
ATOM      3  N   UNL     1       2.118   7.732  20.846  0.00  0.00    +0.000 N 
ATOM      4  H   UNL     1       3.025   8.073  21.151  0.00  0.00    +0.000 HD
ENDROOT
BRANCH   3   5
ATOM      5  C   UNL     1       2.132   6.517  20.112  0.00  0.00    +0.000 A 
ATOM      6  C   UNL     1       1.962   5.265  20.717  0.00  0.00    +0.000 A 
ATOM      7  C   UNL     1       1.976   4.076  19.964  0.00  0.00    +0.000 A 
ATOM      8  C   UNL     1       2.150   4.152  18.575  0.00  0.00    +0.000 A 
ATOM      9  C   UNL     1       2.308   5.390  17.954  0.00  0.00    +0.000 A 
ATOM     10  C   UNL     1       2.294   6.563  18.716  0.00  0.00    +0.000 A 
ATOM     11 CL   UNL     1       2.520   8.071  17.896  0.00  0.00    +0.000 Cl
BRANCH   7  12
ATOM     12  C   UNL     1       1.807   2.731  20.634  0.00  0.00    +0.000 C 
ATOM     13  F   UNL     1       1.587   1.705  19.767  0.00  0.00    +0.000 F 
ATOM     14  F   UNL     1       2.903   2.375  21.361  0.00  0.00    +0.000 F 
ATOM     15  F   UNL     1       0.762   2.717  21.507  0.00  0.00    +0.000 F 
ENDBRANCH   7  12
ENDBRANCH   3   5
BRANCH   1  16
ATOM     16  C   UNL     1       1.282   9.768  21.917  0.00  0.00    +0.000 C 
BRANCH  16  17
ATOM     17  S   UNL     1       0.651  11.134  20.878  0.00  0.00    +0.000 S 
BRANCH  17  27
ATOM     18  C   UNL     1      -1.779  12.096  18.779  0.00  0.00    +0.000 C 
ATOM     19  C   UNL     1      -2.555  12.258  20.050  0.00  0.00    +0.000 A 
ATOM     20  C   UNL     1      -3.838  12.679  19.996  0.00  0.00    +0.000 A 
ATOM     21  C   UNL     1      -4.654  12.857  21.233  0.00  0.00    +0.000 A 
ATOM     22  O   UNL     1      -5.815  13.239  21.157  0.00  0.00    +0.000 OA
ATOM     23  N   UNL     1      -4.045  12.574  22.421  0.00  0.00    +0.000 N 
ATOM     24  C   UNL     1      -2.746  12.143  22.465  0.00  0.00    +0.000 A 
ATOM     25  N   UNL     1      -2.056  11.830  23.533  0.00  0.00    +0.000 NA
ATOM     26  N   UNL     1      -0.815  11.447  23.111  0.00  0.00    +0.000 NA
ATOM     27  C   UNL     1      -0.771  11.539  21.797  0.00  0.00    +0.000 A 
ATOM     28  N   UNL     1      -1.992  11.979  21.309  0.00  0.00    +0.000 N 
ATOM     29  H   UNL     1      -4.560  12.680  23.285  0.00  0.00    +0.000 HD
ENDBRANCH  17  27
ENDBRANCH  16  17
ENDBRANCH   1  16
TORSDOF 5
ENDMDL
MODEL 8
REMARK VINA RESULT:      -7.5      3.543      4.800
REMARK  Name = 
REMARK  6 active torsions:
REMARK  status: ('A' for Active; 'I' for Inactive)
REMARK    1  A    between atoms: C_1  and  C_2
REMARK    2  A    between atoms: C_10  and  S_11
REMARK    3  A    between atoms: S_11  and  C_12
REMARK    4  A    between atoms: C_12  and  C_13
REMARK    5  A    between atoms: N_15  and  C_16
REMARK    6  A    between atoms: C_18  and  C_19
REMARK                            x       y       z     vdW  Elec       q    Type
REMARK                         _______ _______ _______ _____ _____    ______ ____
ROOT
ATOM      1  C   UNL     1       1.849   9.583  18.014  0.00  0.00    +0.000 C 
ATOM      2  O   UNL     1       2.166  10.596  17.394  0.00  0.00    +0.000 OA
ATOM      3  N   UNL     1       0.598   9.344  18.556  0.00  0.00    +0.000 N 
ATOM      4  H   UNL     1       0.522   8.576  19.218  0.00  0.00    +0.000 HD
ENDROOT
BRANCH   3   5
ATOM      5  C   UNL     1      -0.554  10.164  18.430  0.00  0.00    +0.000 A 
ATOM      6  C   UNL     1      -1.473  10.021  17.383  0.00  0.00    +0.000 A 
ATOM      7  C   UNL     1      -2.610  10.846  17.284  0.00  0.00    +0.000 A 
ATOM      8  C   UNL     1      -2.830  11.822  18.266  0.00  0.00    +0.000 A 
ATOM      9  C   UNL     1      -1.932  11.970  19.323  0.00  0.00    +0.000 A 
ATOM     10  C   UNL     1      -0.806  11.144  19.406  0.00  0.00    +0.000 A 
ATOM     11 CL   UNL     1       0.289  11.389  20.724  0.00  0.00    +0.000 Cl
BRANCH   7  12
ATOM     12  C   UNL     1      -3.585  10.689  16.139  0.00  0.00    +0.000 C 
ATOM     13  F   UNL     1      -4.881  10.929  16.480  0.00  0.00    +0.000 F 
ATOM     14  F   UNL     1      -3.309  11.535  15.107  0.00  0.00    +0.000 F 
ATOM     15  F   UNL     1      -3.562   9.435  15.609  0.00  0.00    +0.000 F 
ENDBRANCH   7  12
ENDBRANCH   3   5
BRANCH   1  16
ATOM     16  C   UNL     1       2.836   8.437  18.158  0.00  0.00    +0.000 C 
BRANCH  16  17
ATOM     17  S   UNL     1       2.133   6.984  19.017  0.00  0.00    +0.000 S 
BRANCH  17  27
ATOM     18  C   UNL     1       1.550   4.227  20.833  0.00  0.00    +0.000 C 
ATOM     19  C   UNL     1       2.883   3.813  20.287  0.00  0.00    +0.000 A 
ATOM     20  C   UNL     1       3.396   2.611  20.628  0.00  0.00    +0.000 A 
ATOM     21  C   UNL     1       4.719   2.152  20.112  0.00  0.00    +0.000 A 
ATOM     22  O   UNL     1       5.162   1.057  20.436  0.00  0.00    +0.000 OA
ATOM     23  N   UNL     1       5.388   3.003  19.280  0.00  0.00    +0.000 N 
ATOM     24  C   UNL     1       4.857   4.218  18.936  0.00  0.00    +0.000 A 
ATOM     25  N   UNL     1       5.389   5.114  18.144  0.00  0.00    +0.000 NA
ATOM     26  N   UNL     1       4.516   6.162  18.080  0.00  0.00    +0.000 NA
ATOM     27  C   UNL     1       3.473   5.887  18.837  0.00  0.00    +0.000 A 
ATOM     28  N   UNL     1       3.624   4.638  19.420  0.00  0.00    +0.000 N 
ATOM     29  H   UNL     1       6.287   2.734  18.906  0.00  0.00    +0.000 HD
ENDBRANCH  17  27
ENDBRANCH  16  17
ENDBRANCH   1  16
TORSDOF 5
ENDMDL
MODEL 9
REMARK VINA RESULT:      -7.4      5.022      8.564
REMARK  Name = 
REMARK  6 active torsions:
REMARK  status: ('A' for Active; 'I' for Inactive)
REMARK    1  A    between atoms: C_1  and  C_2
REMARK    2  A    between atoms: C_10  and  S_11
REMARK    3  A    between atoms: S_11  and  C_12
REMARK    4  A    between atoms: C_12  and  C_13
REMARK    5  A    between atoms: N_15  and  C_16
REMARK    6  A    between atoms: C_18  and  C_19
REMARK                            x       y       z     vdW  Elec       q    Type
REMARK                         _______ _______ _______ _____ _____    ______ ____
ROOT
ATOM      1  C   UNL     1       0.357   8.767  21.376  0.00  0.00    +0.000 C 
ATOM      2  O   UNL     1      -0.561   7.979  21.595  0.00  0.00    +0.000 OA
ATOM      3  N   UNL     1       1.533   8.452  20.719  0.00  0.00    +0.000 N 
ATOM      4  H   UNL     1       2.293   9.123  20.786  0.00  0.00    +0.000 HD
ENDROOT
BRANCH   3   5
ATOM      5  C   UNL     1       1.859   7.211  20.109  0.00  0.00    +0.000 A 
ATOM      6  C   UNL     1       1.734   5.985  20.775  0.00  0.00    +0.000 A 
ATOM      7  C   UNL     1       2.061   4.769  20.145  0.00  0.00    +0.000 A 
ATOM      8  C   UNL     1       2.509   4.790  18.817  0.00  0.00    +0.000 A 
ATOM      9  C   UNL     1       2.629   6.000  18.135  0.00  0.00    +0.000 A 
ATOM     10  C   UNL     1       2.302   7.200  18.775  0.00  0.00    +0.000 A 
ATOM     11 CL   UNL     1       2.493   8.675  17.889  0.00  0.00    +0.000 Cl
BRANCH   7  12
ATOM     12  C   UNL     1       1.935   3.455  20.883  0.00  0.00    +0.000 C 
ATOM     13  F   UNL     1       2.242   3.533  22.207  0.00  0.00    +0.000 F 
ATOM     14  F   UNL     1       0.672   2.948  20.822  0.00  0.00    +0.000 F 
ATOM     15  F   UNL     1       2.748   2.493  20.365  0.00  0.00    +0.000 F 
ENDBRANCH   7  12
ENDBRANCH   3   5
BRANCH   1  16
ATOM     16  C   UNL     1       0.215  10.230  21.762  0.00  0.00    +0.000 C 
BRANCH  16  17
ATOM     17  S   UNL     1       0.656  11.378  20.408  0.00  0.00    +0.000 S 
BRANCH  17  27
ATOM     18  C   UNL     1      -2.134  13.046  21.225  0.00  0.00    +0.000 C 
ATOM     19  C   UNL     1      -2.689  12.326  20.034  0.00  0.00    +0.000 A 
ATOM     20  C   UNL     1      -3.975  12.531  19.673  0.00  0.00    +0.000 A 
ATOM     21  C   UNL     1      -4.575  11.838  18.496  0.00  0.00    +0.000 A 
ATOM     22  O   UNL     1      -5.744  12.042  18.189  0.00  0.00    +0.000 OA
ATOM     23  N   UNL     1      -3.766  10.987  17.800  0.00  0.00    +0.000 N 
ATOM     24  C   UNL     1      -2.463  10.790  18.170  0.00  0.00    +0.000 A 
ATOM     25  N   UNL     1      -1.586  10.015  17.584  0.00  0.00    +0.000 NA
ATOM     26  N   UNL     1      -0.418  10.129  18.281  0.00  0.00    +0.000 NA
ATOM     27  C   UNL     1      -0.607  10.967  19.282  0.00  0.00    +0.000 A 
ATOM     28  N   UNL     1      -1.910  11.439  19.268  0.00  0.00    +0.000 N 
ATOM     29  H   UNL     1      -4.131  10.497  16.995  0.00  0.00    +0.000 HD
ENDBRANCH  17  27
ENDBRANCH  16  17
ENDBRANCH   1  16
TORSDOF 5
ENDMDL
