MODEL 1
REMARK VINA RESULT:      -7.6      0.000      0.000
REMARK  Name = 
REMARK  3 active torsions:
REMARK  status: ('A' for Active; 'I' for Inactive)
REMARK    1  A    between atoms: C_4  and  C_5
REMARK    2  A    between atoms: C_14  and  O_15
REMARK    3  A    between atoms: C_16  and  O_17
REMARK                            x       y       z     vdW  Elec       q    Type
REMARK                         _______ _______ _______ _____ _____    ______ ____
ROOT
ATOM      1  O   UNL     1       7.273   5.907  18.675  0.00  0.00    +0.000 OA
ATOM      2  C   UNL     1       6.367   5.222  18.205  0.00  0.00    +0.000 A 
ATOM      3  C   UNL     1       5.253   4.811  19.086  0.00  0.00    +0.000 A 
ATOM      4  C   UNL     1       4.235   4.028  18.714  0.00  0.00    +0.000 A 
ATOM      5  S   UNL     1       4.017   3.324  17.163  0.00  0.00    +0.000 S 
ATOM      6  C   UNL     1       5.371   4.007  16.242  0.00  0.00    +0.000 A 
ATOM      7  C   UNL     1       5.398   3.688  14.874  0.00  0.00    +0.000 A 
ATOM      8  C   UNL     1       6.380   4.227  14.056  0.00  0.00    +0.000 A 
ATOM      9  C   UNL     1       7.361   5.051  14.592  0.00  0.00    +0.000 A 
ATOM     10  C   UNL     1       7.379   5.346  15.948  0.00  0.00    +0.000 A 
ATOM     11  C   UNL     1       6.366   4.835  16.779  0.00  0.00    +0.000 A 
ENDROOT
BRANCH   4  12
ATOM     12  C   UNL     1       3.190   3.667  19.687  0.00  0.00    +0.000 A 
ATOM     13  C   UNL     1       1.910   4.233  19.613  0.00  0.00    +0.000 A 
ATOM     14  C   UNL     1       0.924   3.867  20.533  0.00  0.00    +0.000 A 
ATOM     15  C   UNL     1       1.207   2.929  21.525  0.00  0.00    +0.000 A 
ATOM     16  C   UNL     1       2.473   2.352  21.599  0.00  0.00    +0.000 A 
ATOM     17  C   UNL     1       3.464   2.724  20.689  0.00  0.00    +0.000 A 
ENDBRANCH   4  12
BRANCH   8  18
ATOM     18  O   UNL     1       6.401   3.992  12.709  0.00  0.00    +0.000 OA
ATOM     19  H   UNL     1       6.175   3.059  12.555  0.00  0.00    +0.000 HD
ENDBRANCH   8  18
BRANCH   9  20
ATOM     20  O   UNL     1       8.302   5.606  13.772  0.00  0.00    +0.000 OA
ATOM     21  H   UNL     1       8.756   6.272  14.326  0.00  0.00    +0.000 HD
ENDBRANCH   9  20
TORSDOF 3
ENDMDL
MODEL 2
REMARK VINA RESULT:      -7.6      0.045      1.109
REMARK  Name = 
REMARK  3 active torsions:
REMARK  status: ('A' for Active; 'I' for Inactive)
REMARK    1  A    between atoms: C_4  and  C_5
REMARK    2  A    between atoms: C_14  and  O_15
REMARK    3  A    between atoms: C_16  and  O_17
REMARK                            x       y       z     vdW  Elec       q    Type
REMARK                         _______ _______ _______ _____ _____    ______ ____
ROOT
ATOM      1  O   UNL     1       7.272   5.839  18.682  0.00  0.00    +0.000 OA
ATOM      2  C   UNL     1       6.363   5.166  18.201  0.00  0.00    +0.000 A 
ATOM      3  C   UNL     1       5.247   4.748  19.077  0.00  0.00    +0.000 A 
ATOM      4  C   UNL     1       4.224   3.977  18.694  0.00  0.00    +0.000 A 
ATOM      5  S   UNL     1       4.002   3.297  17.132  0.00  0.00    +0.000 S 
ATOM      6  C   UNL     1       5.359   3.987  16.221  0.00  0.00    +0.000 A 
ATOM      7  C   UNL     1       5.384   3.688  14.848  0.00  0.00    +0.000 A 
ATOM      8  C   UNL     1       6.368   4.235  14.038  0.00  0.00    +0.000 A 
ATOM      9  C   UNL     1       7.354   5.045  14.585  0.00  0.00    +0.000 A 
ATOM     10  C   UNL     1       7.374   5.319  15.946  0.00  0.00    +0.000 A 
ATOM     11  C   UNL     1       6.359   4.802  16.769  0.00  0.00    +0.000 A 
ENDROOT
BRANCH   4  12
ATOM     12  C   UNL     1       3.178   3.607  19.662  0.00  0.00    +0.000 A 
ATOM     13  C   UNL     1       3.446   2.707  20.703  0.00  0.00    +0.000 A 
ATOM     14  C   UNL     1       2.448   2.380  21.624  0.00  0.00    +0.000 A 
ATOM     15  C   UNL     1       1.182   2.953  21.518  0.00  0.00    +0.000 A 
ATOM     16  C   UNL     1       0.910   3.857  20.492  0.00  0.00    +0.000 A 
ATOM     17  C   UNL     1       1.901   4.178  19.564  0.00  0.00    +0.000 A 
ENDBRANCH   4  12
BRANCH   8  18
ATOM     18  O   UNL     1       6.387   4.021  12.688  0.00  0.00    +0.000 OA
ATOM     19  H   UNL     1       6.339   3.062  12.526  0.00  0.00    +0.000 HD
ENDBRANCH   8  18
BRANCH   9  20
ATOM     20  O   UNL     1       8.298   5.607  13.774  0.00  0.00    +0.000 OA
ATOM     21  H   UNL     1       9.032   5.848  14.373  0.00  0.00    +0.000 HD
ENDBRANCH   9  20
TORSDOF 3
ENDMDL
MODEL 3
REMARK VINA RESULT:      -7.1      3.672      4.506
REMARK  Name = 
REMARK  3 active torsions:
REMARK  status: ('A' for Active; 'I' for Inactive)
REMARK    1  A    between atoms: C_4  and  C_5
REMARK    2  A    between atoms: C_14  and  O_15
REMARK    3  A    between atoms: C_16  and  O_17
REMARK                            x       y       z     vdW  Elec       q    Type
REMARK                         _______ _______ _______ _____ _____    ______ ____
ROOT
ATOM      1  O   UNL     1       2.871   3.589  19.221  0.00  0.00    +0.000 OA
ATOM      2  C   UNL     1       3.048   4.733  18.805  0.00  0.00    +0.000 A 
ATOM      3  C   UNL     1       2.357   5.851  19.482  0.00  0.00    +0.000 A 
ATOM      4  C   UNL     1       2.425   7.131  19.102  0.00  0.00    +0.000 A 
ATOM      5  S   UNL     1       3.295   7.739  17.752  0.00  0.00    +0.000 S 
ATOM      6  C   UNL     1       4.121   6.289  17.148  0.00  0.00    +0.000 A 
ATOM      7  C   UNL     1       5.014   6.497  16.084  0.00  0.00    +0.000 A 
ATOM      8  C   UNL     1       5.757   5.436  15.586  0.00  0.00    +0.000 A 
ATOM      9  C   UNL     1       5.592   4.161  16.109  0.00  0.00    +0.000 A 
ATOM     10  C   UNL     1       4.684   3.924  17.131  0.00  0.00    +0.000 A 
ATOM     11  C   UNL     1       3.955   4.999  17.670  0.00  0.00    +0.000 A 
ENDROOT
BRANCH   4  12
ATOM     12  C   UNL     1       1.675   8.160  19.842  0.00  0.00    +0.000 A 
ATOM     13  C   UNL     1       1.359   7.985  21.196  0.00  0.00    +0.000 A 
ATOM     14  C   UNL     1       0.662   8.978  21.891  0.00  0.00    +0.000 A 
ATOM     15  C   UNL     1       0.286  10.153  21.241  0.00  0.00    +0.000 A 
ATOM     16  C   UNL     1       0.607  10.340  19.898  0.00  0.00    +0.000 A 
ATOM     17  C   UNL     1       1.292   9.346  19.198  0.00  0.00    +0.000 A 
ENDBRANCH   4  12
BRANCH   8  18
ATOM     18  O   UNL     1       6.683   5.612  14.595  0.00  0.00    +0.000 OA
ATOM     19  H   UNL     1       7.466   6.044  14.977  0.00  0.00    +0.000 HD
ENDBRANCH   8  18
BRANCH   9  20
ATOM     20  O   UNL     1       6.353   3.130  15.635  0.00  0.00    +0.000 OA
ATOM     21  H   UNL     1       5.712   2.425  15.417  0.00  0.00    +0.000 HD
ENDBRANCH   9  20
TORSDOF 3
ENDMDL
MODEL 4
REMARK VINA RESULT:      -7.1      5.339      7.952
REMARK  Name = 
REMARK  3 active torsions:
REMARK  status: ('A' for Active; 'I' for Inactive)
REMARK    1  A    between atoms: C_4  and  C_5
REMARK    2  A    between atoms: C_14  and  O_15
REMARK    3  A    between atoms: C_16  and  O_17
REMARK                            x       y       z     vdW  Elec       q    Type
REMARK                         _______ _______ _______ _____ _____    ______ ____
ROOT
ATOM      1  O   UNL     1       1.654  10.417  17.516  0.00  0.00    +0.000 OA
ATOM      2  C   UNL     1       1.814   9.448  18.255  0.00  0.00    +0.000 A 
ATOM      3  C   UNL     1       2.506   8.254  17.725  0.00  0.00    +0.000 A 
ATOM      4  C   UNL     1       2.701   7.120  18.406  0.00  0.00    +0.000 A 
ATOM      5  S   UNL     1       2.177   6.803  20.011  0.00  0.00    +0.000 S 
ATOM      6  C   UNL     1       1.478   8.360  20.496  0.00  0.00    +0.000 A 
ATOM      7  C   UNL     1       1.049   8.443  21.831  0.00  0.00    +0.000 A 
ATOM      8  C   UNL     1       0.549   9.640  22.325  0.00  0.00    +0.000 A 
ATOM      9  C   UNL     1       0.432  10.745  21.493  0.00  0.00    +0.000 A 
ATOM     10  C   UNL     1       0.809  10.673  20.159  0.00  0.00    +0.000 A 
ATOM     11  C   UNL     1       1.354   9.477  19.659  0.00  0.00    +0.000 A 
ENDROOT
BRANCH   4  12
ATOM     12  C   UNL     1       3.387   5.985  17.765  0.00  0.00    +0.000 A 
ATOM     13  C   UNL     1       2.866   4.687  17.853  0.00  0.00    +0.000 A 
ATOM     14  C   UNL     1       3.519   3.623  17.224  0.00  0.00    +0.000 A 
ATOM     15  C   UNL     1       4.689   3.850  16.499  0.00  0.00    +0.000 A 
ATOM     16  C   UNL     1       5.207   5.140  16.398  0.00  0.00    +0.000 A 
ATOM     17  C   UNL     1       4.563   6.203  17.033  0.00  0.00    +0.000 A 
ENDBRANCH   4  12
BRANCH   8  18
ATOM     18  O   UNL     1       0.183   9.778  23.635  0.00  0.00    +0.000 OA
ATOM     19  H   UNL     1      -0.193   8.935  23.942  0.00  0.00    +0.000 HD
ENDBRANCH   8  18
BRANCH   9  20
ATOM     20  O   UNL     1      -0.029  11.927  21.996  0.00  0.00    +0.000 OA
ATOM     21  H   UNL     1       0.776  12.436  22.219  0.00  0.00    +0.000 HD
ENDBRANCH   9  20
TORSDOF 3
ENDMDL
MODEL 5
REMARK VINA RESULT:      -7.1      5.344      7.934
REMARK  Name = 
REMARK  3 active torsions:
REMARK  status: ('A' for Active; 'I' for Inactive)
REMARK    1  A    between atoms: C_4  and  C_5
REMARK    2  A    between atoms: C_14  and  O_15
REMARK    3  A    between atoms: C_16  and  O_17
REMARK                            x       y       z     vdW  Elec       q    Type
REMARK                         _______ _______ _______ _____ _____    ______ ____
ROOT
ATOM      1  O   UNL     1       1.666  10.438  17.492  0.00  0.00    +0.000 OA
ATOM      2  C   UNL     1       1.820   9.466  18.230  0.00  0.00    +0.000 A 
ATOM      3  C   UNL     1       2.503   8.268  17.696  0.00  0.00    +0.000 A 
ATOM      4  C   UNL     1       2.690   7.131  18.374  0.00  0.00    +0.000 A 
ATOM      5  S   UNL     1       2.165   6.814  19.979  0.00  0.00    +0.000 S 
ATOM      6  C   UNL     1       1.477   8.374  20.468  0.00  0.00    +0.000 A 
ATOM      7  C   UNL     1       1.050   8.458  21.804  0.00  0.00    +0.000 A 
ATOM      8  C   UNL     1       0.558   9.657  22.301  0.00  0.00    +0.000 A 
ATOM      9  C   UNL     1       0.449  10.765  21.471  0.00  0.00    +0.000 A 
ATOM     10  C   UNL     1       0.825  10.693  20.137  0.00  0.00    +0.000 A 
ATOM     11  C   UNL     1       1.361   9.494  19.634  0.00  0.00    +0.000 A 
ENDROOT
BRANCH   4  12
ATOM     12  C   UNL     1       3.368   5.993  17.731  0.00  0.00    +0.000 A 
ATOM     13  C   UNL     1       4.561   6.174  17.018  0.00  0.00    +0.000 A 
ATOM     14  C   UNL     1       5.201   5.081  16.428  0.00  0.00    +0.000 A 
ATOM     15  C   UNL     1       4.661   3.802  16.553  0.00  0.00    +0.000 A 
ATOM     16  C   UNL     1       3.481   3.611  17.270  0.00  0.00    +0.000 A 
ATOM     17  C   UNL     1       2.833   4.702  17.851  0.00  0.00    +0.000 A 
ENDBRANCH   4  12
BRANCH   8  18
ATOM     18  O   UNL     1       0.194   9.795  23.611  0.00  0.00    +0.000 OA
ATOM     19  H   UNL     1      -0.776   9.748  23.669  0.00  0.00    +0.000 HD
ENDBRANCH   8  18
BRANCH   9  20
ATOM     20  O   UNL     1      -0.002  11.949  21.978  0.00  0.00    +0.000 OA
ATOM     21  H   UNL     1       0.804  12.429  22.253  0.00  0.00    +0.000 HD
ENDBRANCH   9  20
TORSDOF 3
ENDMDL
MODEL 6
REMARK VINA RESULT:      -7.0      3.937      4.749
REMARK  Name = 
REMARK  3 active torsions:
REMARK  status: ('A' for Active; 'I' for Inactive)
REMARK    1  A    between atoms: C_4  and  C_5
REMARK    2  A    between atoms: C_14  and  O_15
REMARK    3  A    between atoms: C_16  and  O_17
REMARK                            x       y       z     vdW  Elec       q    Type
REMARK                         _______ _______ _______ _____ _____    ______ ____
ROOT
ATOM      1  O   UNL     1       2.667   3.895  19.820  0.00  0.00    +0.000 OA
ATOM      2  C   UNL     1       2.804   5.014  19.329  0.00  0.00    +0.000 A 
ATOM      3  C   UNL     1       2.118   6.159  19.964  0.00  0.00    +0.000 A 
ATOM      4  C   UNL     1       2.145   7.415  19.505  0.00  0.00    +0.000 A 
ATOM      5  S   UNL     1       2.951   7.954  18.087  0.00  0.00    +0.000 S 
ATOM      6  C   UNL     1       3.781   6.485  17.540  0.00  0.00    +0.000 A 
ATOM      7  C   UNL     1       4.628   6.643  16.430  0.00  0.00    +0.000 A 
ATOM      8  C   UNL     1       5.373   5.568  15.968  0.00  0.00    +0.000 A 
ATOM      9  C   UNL     1       5.253   4.323  16.573  0.00  0.00    +0.000 A 
ATOM     10  C   UNL     1       4.391   4.134  17.643  0.00  0.00    +0.000 A 
ATOM     11  C   UNL     1       3.661   5.227  18.145  0.00  0.00    +0.000 A 
ENDROOT
BRANCH   4  12
ATOM     12  C   UNL     1       1.405   8.473  20.212  0.00  0.00    +0.000 A 
ATOM     13  C   UNL     1       0.955   9.614  19.532  0.00  0.00    +0.000 A 
ATOM     14  C   UNL     1       0.237  10.601  20.213  0.00  0.00    +0.000 A 
ATOM     15  C   UNL     1      -0.042  10.452  21.571  0.00  0.00    +0.000 A 
ATOM     16  C   UNL     1       0.391   9.316  22.251  0.00  0.00    +0.000 A 
ATOM     17  C   UNL     1       1.118   8.333  21.578  0.00  0.00    +0.000 A 
ENDBRANCH   4  12
BRANCH   8  18
ATOM     18  O   UNL     1       6.256   5.698  14.933  0.00  0.00    +0.000 OA
ATOM     19  H   UNL     1       6.326   6.641  14.703  0.00  0.00    +0.000 HD
ENDBRANCH   8  18
BRANCH   9  20
ATOM     20  O   UNL     1       6.016   3.280  16.133  0.00  0.00    +0.000 OA
ATOM     21  H   UNL     1       6.832   3.693  15.787  0.00  0.00    +0.000 HD
ENDBRANCH   9  20
TORSDOF 3
ENDMDL
MODEL 7
REMARK VINA RESULT:      -7.0      3.053      6.921
REMARK  Name = 
REMARK  3 active torsions:
REMARK  status: ('A' for Active; 'I' for Inactive)
REMARK    1  A    between atoms: C_4  and  C_5
REMARK    2  A    between atoms: C_14  and  O_15
REMARK    3  A    between atoms: C_16  and  O_17
REMARK                            x       y       z     vdW  Elec       q    Type
REMARK                         _______ _______ _______ _____ _____    ______ ____
ROOT
ATOM      1  O   UNL     1       4.262   2.752  18.468  0.00  0.00    +0.000 OA
ATOM      2  C   UNL     1       4.365   3.769  17.785  0.00  0.00    +0.000 A 
ATOM      3  C   UNL     1       5.069   3.688  16.488  0.00  0.00    +0.000 A 
ATOM      4  C   UNL     1       5.292   4.726  15.674  0.00  0.00    +0.000 A 
ATOM      5  S   UNL     1       4.835   6.355  15.968  0.00  0.00    +0.000 S 
ATOM      6  C   UNL     1       3.931   6.228  17.489  0.00  0.00    +0.000 A 
ATOM      7  C   UNL     1       3.328   7.414  17.939  0.00  0.00    +0.000 A 
ATOM      8  C   UNL     1       2.545   7.403  19.084  0.00  0.00    +0.000 A 
ATOM      9  C   UNL     1       2.387   6.230  19.811  0.00  0.00    +0.000 A 
ATOM     10  C   UNL     1       3.009   5.056  19.410  0.00  0.00    +0.000 A 
ATOM     11  C   UNL     1       3.773   5.048  18.229  0.00  0.00    +0.000 A 
ENDROOT
BRANCH   4  12
ATOM     12  C   UNL     1       6.025   4.528  14.413  0.00  0.00    +0.000 A 
ATOM     13  C   UNL     1       5.562   3.628  13.444  0.00  0.00    +0.000 A 
ATOM     14  C   UNL     1       6.259   3.465  12.244  0.00  0.00    +0.000 A 
ATOM     15  C   UNL     1       7.416   4.204  12.001  0.00  0.00    +0.000 A 
ATOM     16  C   UNL     1       7.877   5.110  12.954  0.00  0.00    +0.000 A 
ATOM     17  C   UNL     1       7.190   5.267  14.158  0.00  0.00    +0.000 A 
ENDBRANCH   4  12
BRANCH   8  18
ATOM     18  O   UNL     1       1.889   8.521  19.516  0.00  0.00    +0.000 OA
ATOM     19  H   UNL     1       1.161   8.247  20.101  0.00  0.00    +0.000 HD
ENDBRANCH   8  18
BRANCH   9  20
ATOM     20  O   UNL     1       1.586   6.220  20.917  0.00  0.00    +0.000 OA
ATOM     21  H   UNL     1       0.982   6.980  20.796  0.00  0.00    +0.000 HD
ENDBRANCH   9  20
TORSDOF 3
ENDMDL
MODEL 8
REMARK VINA RESULT:      -7.0      2.623      6.813
REMARK  Name = 
REMARK  3 active torsions:
REMARK  status: ('A' for Active; 'I' for Inactive)
REMARK    1  A    between atoms: C_4  and  C_5
REMARK    2  A    between atoms: C_14  and  O_15
REMARK    3  A    between atoms: C_16  and  O_17
REMARK                            x       y       z     vdW  Elec       q    Type
REMARK                         _______ _______ _______ _____ _____    ______ ____
ROOT
ATOM      1  O   UNL     1       4.040   7.634  17.448  0.00  0.00    +0.000 OA
ATOM      2  C   UNL     1       4.280   6.449  17.226  0.00  0.00    +0.000 A 
ATOM      3  C   UNL     1       5.028   6.091  16.002  0.00  0.00    +0.000 A 
ATOM      4  C   UNL     1       5.311   4.841  15.620  0.00  0.00    +0.000 A 
ATOM      5  S   UNL     1       4.854   3.404  16.443  0.00  0.00    +0.000 S 
ATOM      6  C   UNL     1       4.075   4.037  17.906  0.00  0.00    +0.000 A 
ATOM      7  C   UNL     1       3.680   3.074  18.850  0.00  0.00    +0.000 A 
ATOM      8  C   UNL     1       3.122   3.473  20.056  0.00  0.00    +0.000 A 
ATOM      9  C   UNL     1       2.915   4.821  20.318  0.00  0.00    +0.000 A 
ATOM     10  C   UNL     1       3.258   5.788  19.383  0.00  0.00    +0.000 A 
ATOM     11  C   UNL     1       3.860   5.396  18.174  0.00  0.00    +0.000 A 
ENDROOT
BRANCH   4  12
ATOM     12  C   UNL     1       6.047   4.603  14.366  0.00  0.00    +0.000 A 
ATOM     13  C   UNL     1       5.571   3.691  13.414  0.00  0.00    +0.000 A 
ATOM     14  C   UNL     1       6.270   3.490  12.221  0.00  0.00    +0.000 A 
ATOM     15  C   UNL     1       7.442   4.203  11.968  0.00  0.00    +0.000 A 
ATOM     16  C   UNL     1       7.916   5.120  12.904  0.00  0.00    +0.000 A 
ATOM     17  C   UNL     1       7.226   5.315  14.102  0.00  0.00    +0.000 A 
ENDBRANCH   4  12
BRANCH   8  18
ATOM     18  O   UNL     1       2.786   2.570  21.025  0.00  0.00    +0.000 OA
ATOM     19  H   UNL     1       2.361   1.804  20.600  0.00  0.00    +0.000 HD
ENDBRANCH   8  18
BRANCH   9  20
ATOM     20  O   UNL     1       2.398   5.206  21.521  0.00  0.00    +0.000 OA
ATOM     21  H   UNL     1       1.507   4.805  21.551  0.00  0.00    +0.000 HD
ENDBRANCH   9  20
TORSDOF 3
ENDMDL
MODEL 9
REMARK VINA RESULT:      -6.9      2.623      6.818
REMARK  Name = 
REMARK  3 active torsions:
REMARK  status: ('A' for Active; 'I' for Inactive)
REMARK    1  A    between atoms: C_4  and  C_5
REMARK    2  A    between atoms: C_14  and  O_15
REMARK    3  A    between atoms: C_16  and  O_17
REMARK                            x       y       z     vdW  Elec       q    Type
REMARK                         _______ _______ _______ _____ _____    ______ ____
ROOT
ATOM      1  O   UNL     1       4.107   7.649  17.499  0.00  0.00    +0.000 OA
ATOM      2  C   UNL     1       4.323   6.464  17.253  0.00  0.00    +0.000 A 
ATOM      3  C   UNL     1       5.062   6.116  16.020  0.00  0.00    +0.000 A 
ATOM      4  C   UNL     1       5.319   4.869  15.611  0.00  0.00    +0.000 A 
ATOM      5  S   UNL     1       4.833   3.425  16.405  0.00  0.00    +0.000 S 
ATOM      6  C   UNL     1       4.069   4.043  17.882  0.00  0.00    +0.000 A 
ATOM      7  C   UNL     1       3.656   3.069  18.806  0.00  0.00    +0.000 A 
ATOM      8  C   UNL     1       3.107   3.453  20.021  0.00  0.00    +0.000 A 
ATOM      9  C   UNL     1       2.928   4.800  20.311  0.00  0.00    +0.000 A 
ATOM     10  C   UNL     1       3.289   5.778  19.396  0.00  0.00    +0.000 A 
ATOM     11  C   UNL     1       3.882   5.400  18.178  0.00  0.00    +0.000 A 
ENDROOT
BRANCH   4  12
ATOM     12  C   UNL     1       6.048   4.643  14.352  0.00  0.00    +0.000 A 
ATOM     13  C   UNL     1       7.235   5.335  14.073  0.00  0.00    +0.000 A 
ATOM     14  C   UNL     1       7.925   5.097  12.881  0.00  0.00    +0.000 A 
ATOM     15  C   UNL     1       7.441   4.161  11.967  0.00  0.00    +0.000 A 
ATOM     16  C   UNL     1       6.268   3.460  12.243  0.00  0.00    +0.000 A 
ATOM     17  C   UNL     1       5.570   3.704  13.426  0.00  0.00    +0.000 A 
ENDBRANCH   4  12
BRANCH   8  18
ATOM     18  O   UNL     1       2.753   2.537  20.971  0.00  0.00    +0.000 OA
ATOM     19  H   UNL     1       2.651   2.997  21.822  0.00  0.00    +0.000 HD
ENDBRANCH   8  18
BRANCH   9  20
ATOM     20  O   UNL     1       2.420   5.169  21.523  0.00  0.00    +0.000 OA
ATOM     21  H   UNL     1       1.450   5.173  21.398  0.00  0.00    +0.000 HD
ENDBRANCH   9  20
TORSDOF 3
ENDMDL
