MODEL 1
REMARK VINA RESULT:      -8.6      0.000      0.000
REMARK  Name = 
REMARK  6 active torsions:
REMARK  status: ('A' for Active; 'I' for Inactive)
REMARK    1  A    between atoms: C_1  and  C_2
REMARK    2  A    between atoms: C_2  and  O_3
REMARK    3  A    between atoms: O_3  and  C_4
REMARK    4  A    between atoms: C_8  and  C_9
REMARK    5  A    between atoms: N_14  and  C_15
REMARK    6  A    between atoms: C_19  and  C_20
REMARK                            x       y       z     vdW  Elec       q    Type
REMARK                         _______ _______ _______ _____ _____    ______ ____
ROOT
ATOM      1  C   UNL     1       2.570   6.169  18.910  0.00  0.00    +0.000 A 
ATOM      2  C   UNL     1       2.166   6.042  20.222  0.00  0.00    +0.000 A 
ATOM      3  C   UNL     1       1.603   7.159  20.778  0.00  0.00    +0.000 A 
ATOM      4  N   UNL     1       1.410   8.295  20.101  0.00  0.00    +0.000 NA
ATOM      5  C   UNL     1       1.793   8.327  18.810  0.00  0.00    +0.000 A 
ATOM      6  N   UNL     1       1.544   9.484  18.063  0.00  0.00    +0.000 N 
ATOM      7  N   UNL     1       2.385   7.298  18.189  0.00  0.00    +0.000 NA
ATOM      8  H   UNL     1       1.750   9.276  17.093  0.00  0.00    +0.000 HD
ENDROOT
BRANCH   1  13
ATOM      9  C   UNL     1       6.273   4.601  15.640  0.00  0.00    +0.000 A 
ATOM     10  C   UNL     1       5.861   6.015  15.739  0.00  0.00    +0.000 A 
ATOM     11  C   UNL     1       4.870   6.280  16.594  0.00  0.00    +0.000 A 
ATOM     12  C   UNL     1       4.259   5.211  17.291  0.00  0.00    +0.000 A 
ATOM     13  C   UNL     1       3.275   5.080  18.254  0.00  0.00    +0.000 A 
ATOM     14  C   UNL     1       3.207   3.681  18.472  0.00  0.00    +0.000 A 
ATOM     15  N   UNL     1       4.080   2.991  17.735  0.00  0.00    +0.000 NA
ATOM     16  N   UNL     1       4.727   3.935  17.032  0.00  0.00    +0.000 N 
ATOM     17  N   UNL     1       5.757   3.580  16.229  0.00  0.00    +0.000 NA
BRANCH   9  18
ATOM     18  O   UNL     1       7.352   4.536  14.823  0.00  0.00    +0.000 OA
BRANCH  18  20
ATOM     19  C   UNL     1       6.385   3.689  12.817  0.00  0.00    +0.000 C 
ATOM     20  C   UNL     1       7.134   4.855  13.438  0.00  0.00    +0.000 C 
ENDBRANCH  18  20
ENDBRANCH   9  18
ENDBRANCH   1  13
BRANCH   6  21
ATOM     21  C   UNL     1       0.399  10.295  18.214  0.00  0.00    +0.000 A 
ATOM     22  C   UNL     1       0.511  11.527  18.864  0.00  0.00    +0.000 A 
ATOM     23  C   UNL     1      -0.594  12.372  18.978  0.00  0.00    +0.000 A 
ATOM     24  C   UNL     1      -1.825  11.997  18.439  0.00  0.00    +0.000 A 
ATOM     25  C   UNL     1      -1.967  10.765  17.790  0.00  0.00    +0.000 A 
ATOM     26  C   UNL     1      -0.842   9.937  17.664  0.00  0.00    +0.000 A 
BRANCH  25  27
ATOM     27  C   UNL     1      -3.296  10.306  17.245  0.00  0.00    +0.000 C 
ATOM     28  F   UNL     1      -4.221  11.304  17.155  0.00  0.00    +0.000 F 
ATOM     29  F   UNL     1      -3.195   9.778  15.994  0.00  0.00    +0.000 F 
ATOM     30  F   UNL     1      -3.870   9.338  18.013  0.00  0.00    +0.000 F 
ENDBRANCH  25  27
ENDBRANCH   6  21
TORSDOF 5
ENDMDL
MODEL 2
REMARK VINA RESULT:      -8.5      4.917      9.394
REMARK  Name = 
REMARK  6 active torsions:
REMARK  status: ('A' for Active; 'I' for Inactive)
REMARK    1  A    between atoms: C_1  and  C_2
REMARK    2  A    between atoms: C_2  and  O_3
REMARK    3  A    between atoms: O_3  and  C_4
REMARK    4  A    between atoms: C_8  and  C_9
REMARK    5  A    between atoms: N_14  and  C_15
REMARK    6  A    between atoms: C_19  and  C_20
REMARK                            x       y       z     vdW  Elec       q    Type
REMARK                         _______ _______ _______ _____ _____    ______ ____
ROOT
ATOM      1  C   UNL     1       1.010   9.381  19.128  0.00  0.00    +0.000 A 
ATOM      2  C   UNL     1       1.677   9.325  17.923  0.00  0.00    +0.000 A 
ATOM      3  C   UNL     1       2.561   8.290  17.783  0.00  0.00    +0.000 A 
ATOM      4  N   UNL     1       2.751   7.359  18.723  0.00  0.00    +0.000 NA
ATOM      5  C   UNL     1       2.030   7.458  19.857  0.00  0.00    +0.000 A 
ATOM      6  N   UNL     1       2.166   6.461  20.829  0.00  0.00    +0.000 N 
ATOM      7  N   UNL     1       1.169   8.455  20.100  0.00  0.00    +0.000 NA
ATOM      8  H   UNL     1       1.448   6.610  21.527  0.00  0.00    +0.000 HD
ENDROOT
BRANCH   1  13
ATOM      9  C   UNL     1      -3.594  11.687  18.530  0.00  0.00    +0.000 A 
ATOM     10  C   UNL     1      -3.182  10.531  17.709  0.00  0.00    +0.000 A 
ATOM     11  C   UNL     1      -1.956  10.054  17.938  0.00  0.00    +0.000 A 
ATOM     12  C   UNL     1      -1.132  10.701  18.890  0.00  0.00    +0.000 A 
ATOM     13  C   UNL     1       0.127  10.498  19.424  0.00  0.00    +0.000 A 
ATOM     14  C   UNL     1       0.276  11.566  20.341  0.00  0.00    +0.000 A 
ATOM     15  N   UNL     1      -0.795  12.360  20.403  0.00  0.00    +0.000 NA
ATOM     16  N   UNL     1      -1.654  11.814  19.527  0.00  0.00    +0.000 N 
ATOM     17  N   UNL     1      -2.897  12.333  19.399  0.00  0.00    +0.000 NA
BRANCH   9  18
ATOM     18  O   UNL     1      -4.890  11.961  18.246  0.00  0.00    +0.000 OA
BRANCH  18  20
ATOM     19  C   UNL     1      -6.596  11.226  19.737  0.00  0.00    +0.000 C 
ATOM     20  C   UNL     1      -5.836  10.901  18.464  0.00  0.00    +0.000 C 
ENDBRANCH  18  20
ENDBRANCH   9  18
ENDBRANCH   1  13
BRANCH   6  21
ATOM     21  C   UNL     1       2.368   5.094  20.541  0.00  0.00    +0.000 A 
ATOM     22  C   UNL     1       2.103   4.138  21.525  0.00  0.00    +0.000 A 
ATOM     23  C   UNL     1       2.242   2.777  21.249  0.00  0.00    +0.000 A 
ATOM     24  C   UNL     1       2.646   2.355  19.982  0.00  0.00    +0.000 A 
ATOM     25  C   UNL     1       2.927   3.291  18.980  0.00  0.00    +0.000 A 
ATOM     26  C   UNL     1       2.761   4.654  19.267  0.00  0.00    +0.000 A 
BRANCH  25  27
ATOM     27  C   UNL     1       3.419   2.870  17.619  0.00  0.00    +0.000 C 
ATOM     28  F   UNL     1       2.549   3.169  16.611  0.00  0.00    +0.000 F 
ATOM     29  F   UNL     1       4.597   3.463  17.281  0.00  0.00    +0.000 F 
ATOM     30  F   UNL     1       3.637   1.529  17.532  0.00  0.00    +0.000 F 
ENDBRANCH  25  27
ENDBRANCH   6  21
TORSDOF 5
ENDMDL
MODEL 3
REMARK VINA RESULT:      -8.5      5.284      9.900
REMARK  Name = 
REMARK  6 active torsions:
REMARK  status: ('A' for Active; 'I' for Inactive)
REMARK    1  A    between atoms: C_1  and  C_2
REMARK    2  A    between atoms: C_2  and  O_3
REMARK    3  A    between atoms: O_3  and  C_4
REMARK    4  A    between atoms: C_8  and  C_9
REMARK    5  A    between atoms: N_14  and  C_15
REMARK    6  A    between atoms: C_19  and  C_20
REMARK                            x       y       z     vdW  Elec       q    Type
REMARK                         _______ _______ _______ _____ _____    ______ ____
ROOT
ATOM      1  C   UNL     1       0.876   9.273  20.250  0.00  0.00    +0.000 A 
ATOM      2  C   UNL     1       0.823   9.855  19.001  0.00  0.00    +0.000 A 
ATOM      3  C   UNL     1       1.593   9.262  18.038  0.00  0.00    +0.000 A 
ATOM      4  N   UNL     1       2.324   8.164  18.259  0.00  0.00    +0.000 NA
ATOM      5  C   UNL     1       2.290   7.629  19.495  0.00  0.00    +0.000 A 
ATOM      6  N   UNL     1       2.997   6.445  19.734  0.00  0.00    +0.000 N 
ATOM      7  N   UNL     1       1.597   8.159  20.511  0.00  0.00    +0.000 NA
ATOM      8  H   UNL     1       2.735   6.110  20.654  0.00  0.00    +0.000 HD
ENDROOT
BRANCH   1  13
ATOM      9  C   UNL     1      -2.684  12.618  21.983  0.00  0.00    +0.000 A 
ATOM     10  C   UNL     1      -2.243  12.600  20.574  0.00  0.00    +0.000 A 
ATOM     11  C   UNL     1      -1.293  11.714  20.265  0.00  0.00    +0.000 A 
ATOM     12  C   UNL     1      -0.746  10.907  21.292  0.00  0.00    +0.000 A 
ATOM     13  C   UNL     1       0.181   9.884  21.370  0.00  0.00    +0.000 A 
ATOM     14  C   UNL     1       0.203   9.561  22.750  0.00  0.00    +0.000 A 
ATOM     15  N   UNL     1      -0.645  10.292  23.475  0.00  0.00    +0.000 NA
ATOM     16  N   UNL     1      -1.231  11.097  22.574  0.00  0.00    +0.000 N 
ATOM     17  N   UNL     1      -2.224  11.928  22.967  0.00  0.00    +0.000 NA
BRANCH   9  18
ATOM     18  O   UNL     1      -3.719  13.486  22.086  0.00  0.00    +0.000 OA
BRANCH  18  20
ATOM     19  C   UNL     1      -5.863  12.659  21.460  0.00  0.00    +0.000 C 
ATOM     20  C   UNL     1      -4.945  12.968  22.628  0.00  0.00    +0.000 C 
ENDBRANCH  18  20
ENDBRANCH   9  18
ENDBRANCH   1  13
BRANCH   6  21
ATOM     21  C   UNL     1       3.139   5.402  18.795  0.00  0.00    +0.000 A 
ATOM     22  C   UNL     1       2.117   4.460  18.655  0.00  0.00    +0.000 A 
ATOM     23  C   UNL     1       2.209   3.450  17.695  0.00  0.00    +0.000 A 
ATOM     24  C   UNL     1       3.324   3.373  16.860  0.00  0.00    +0.000 A 
ATOM     25  C   UNL     1       4.366   4.299  16.984  0.00  0.00    +0.000 A 
ATOM     26  C   UNL     1       4.248   5.320  17.938  0.00  0.00    +0.000 A 
BRANCH  25  27
ATOM     27  C   UNL     1       5.609   4.211  16.135  0.00  0.00    +0.000 C 
ATOM     28  F   UNL     1       5.794   2.984  15.569  0.00  0.00    +0.000 F 
ATOM     29  F   UNL     1       5.603   5.100  15.104  0.00  0.00    +0.000 F 
ATOM     30  F   UNL     1       6.745   4.466  16.841  0.00  0.00    +0.000 F 
ENDBRANCH  25  27
ENDBRANCH   6  21
TORSDOF 5
ENDMDL
MODEL 4
REMARK VINA RESULT:      -8.3      4.790      9.222
REMARK  Name = 
REMARK  6 active torsions:
REMARK  status: ('A' for Active; 'I' for Inactive)
REMARK    1  A    between atoms: C_1  and  C_2
REMARK    2  A    between atoms: C_2  and  O_3
REMARK    3  A    between atoms: O_3  and  C_4
REMARK    4  A    between atoms: C_8  and  C_9
REMARK    5  A    between atoms: N_14  and  C_15
REMARK    6  A    between atoms: C_19  and  C_20
REMARK                            x       y       z     vdW  Elec       q    Type
REMARK                         _______ _______ _______ _____ _____    ______ ____
ROOT
ATOM      1  C   UNL     1       1.773   7.628  20.214  0.00  0.00    +0.000 A 
ATOM      2  C   UNL     1       1.543   6.342  20.654  0.00  0.00    +0.000 A 
ATOM      3  C   UNL     1       2.065   5.346  19.874  0.00  0.00    +0.000 A 
ATOM      4  N   UNL     1       2.790   5.583  18.776  0.00  0.00    +0.000 NA
ATOM      5  C   UNL     1       3.008   6.868  18.435  0.00  0.00    +0.000 A 
ATOM      6  N   UNL     1       3.816   7.141  17.325  0.00  0.00    +0.000 N 
ATOM      7  N   UNL     1       2.507   7.908  19.114  0.00  0.00    +0.000 NA
ATOM      8  H   UNL     1       3.996   8.138  17.312  0.00  0.00    +0.000 HD
ENDROOT
BRANCH   1  13
ATOM      9  C   UNL     1      -1.326  11.781  20.102  0.00  0.00    +0.000 A 
ATOM     10  C   UNL     1      -0.912  11.077  18.873  0.00  0.00    +0.000 A 
ATOM     11  C   UNL     1      -0.081  10.044  19.037  0.00  0.00    +0.000 A 
ATOM     12  C   UNL     1       0.378   9.732  20.339  0.00  0.00    +0.000 A 
ATOM     13  C   UNL     1       1.174   8.755  20.909  0.00  0.00    +0.000 A 
ATOM     14  C   UNL     1       1.177   9.091  22.286  0.00  0.00    +0.000 A 
ATOM     15  N   UNL     1       0.434  10.163  22.567  0.00  0.00    +0.000 NA
ATOM     16  N   UNL     1      -0.061  10.536  21.376  0.00  0.00    +0.000 N 
ATOM     17  N   UNL     1      -0.940  11.563  21.311  0.00  0.00    +0.000 NA
BRANCH   9  18
ATOM     18  O   UNL     1      -2.245  12.715  19.760  0.00  0.00    +0.000 OA
BRANCH  18  20
ATOM     19  C   UNL     1      -4.599  12.382  19.601  0.00  0.00    +0.000 C 
ATOM     20  C   UNL     1      -3.456  12.743  20.533  0.00  0.00    +0.000 C 
ENDBRANCH  18  20
ENDBRANCH   9  18
ENDBRANCH   1  13
BRANCH   6  21
ATOM     21  C   UNL     1       4.946   6.379  16.960  0.00  0.00    +0.000 A 
ATOM     22  C   UNL     1       5.998   6.232  17.868  0.00  0.00    +0.000 A 
ATOM     23  C   UNL     1       7.103   5.439  17.552  0.00  0.00    +0.000 A 
ATOM     24  C   UNL     1       7.167   4.780  16.324  0.00  0.00    +0.000 A 
ATOM     25  C   UNL     1       6.132   4.917  15.392  0.00  0.00    +0.000 A 
ATOM     26  C   UNL     1       5.019   5.699  15.734  0.00  0.00    +0.000 A 
BRANCH  25  27
ATOM     27  C   UNL     1       6.196   4.264  14.036  0.00  0.00    +0.000 C 
ATOM     28  F   UNL     1       7.135   4.811  13.212  0.00  0.00    +0.000 F 
ATOM     29  F   UNL     1       6.492   2.936  14.107  0.00  0.00    +0.000 F 
ATOM     30  F   UNL     1       5.018   4.346  13.358  0.00  0.00    +0.000 F 
ENDBRANCH  25  27
ENDBRANCH   6  21
TORSDOF 5
ENDMDL
MODEL 5
REMARK VINA RESULT:      -8.2      5.679      9.833
REMARK  Name = 
REMARK  6 active torsions:
REMARK  status: ('A' for Active; 'I' for Inactive)
REMARK    1  A    between atoms: C_1  and  C_2
REMARK    2  A    between atoms: C_2  and  O_3
REMARK    3  A    between atoms: O_3  and  C_4
REMARK    4  A    between atoms: C_8  and  C_9
REMARK    5  A    between atoms: N_14  and  C_15
REMARK    6  A    between atoms: C_19  and  C_20
REMARK                            x       y       z     vdW  Elec       q    Type
REMARK                         _______ _______ _______ _____ _____    ______ ____
ROOT
ATOM      1  C   UNL     1       1.136   9.518  19.356  0.00  0.00    +0.000 A 
ATOM      2  C   UNL     1       1.682   9.408  18.095  0.00  0.00    +0.000 A 
ATOM      3  C   UNL     1       2.390   8.262  17.855  0.00  0.00    +0.000 A 
ATOM      4  N   UNL     1       2.522   7.282  18.754  0.00  0.00    +0.000 NA
ATOM      5  C   UNL     1       1.923   7.445  19.950  0.00  0.00    +0.000 A 
ATOM      6  N   UNL     1       1.995   6.407  20.885  0.00  0.00    +0.000 N 
ATOM      7  N   UNL     1       1.241   8.547  20.290  0.00  0.00    +0.000 NA
ATOM      8  H   UNL     1       1.368   6.635  21.648  0.00  0.00    +0.000 HD
ENDROOT
BRANCH   1  13
ATOM      9  C   UNL     1      -3.201  12.355  19.460  0.00  0.00    +0.000 A 
ATOM     10  C   UNL     1      -3.076  11.142  18.628  0.00  0.00    +0.000 A 
ATOM     11  C   UNL     1      -1.893  10.523  18.663  0.00  0.00    +0.000 A 
ATOM     12  C   UNL     1      -0.847  11.085  19.434  0.00  0.00    +0.000 A 
ATOM     13  C   UNL     1       0.454  10.740  19.752  0.00  0.00    +0.000 A 
ATOM     14  C   UNL     1       0.884  11.800  20.588  0.00  0.00    +0.000 A 
ATOM     15  N   UNL     1      -0.060  12.719  20.799  0.00  0.00    +0.000 NA
ATOM     16  N   UNL     1      -1.116  12.265  20.105  0.00  0.00    +0.000 N 
ATOM     17  N   UNL     1      -2.293  12.928  20.170  0.00  0.00    +0.000 NA
BRANCH   9  18
ATOM     18  O   UNL     1      -4.486  12.779  19.391  0.00  0.00    +0.000 OA
BRANCH  18  20
ATOM     19  C   UNL     1      -6.418  11.781  20.364  0.00  0.00    +0.000 C 
ATOM     20  C   UNL     1      -5.251  12.722  20.606  0.00  0.00    +0.000 C 
ENDBRANCH  18  20
ENDBRANCH   9  18
ENDBRANCH   1  13
BRANCH   6  21
ATOM     21  C   UNL     1       1.970   5.036  20.552  0.00  0.00    +0.000 A 
ATOM     22  C   UNL     1       0.742   4.387  20.405  0.00  0.00    +0.000 A 
ATOM     23  C   UNL     1       0.689   3.046  20.022  0.00  0.00    +0.000 A 
ATOM     24  C   UNL     1       1.866   2.337  19.778  0.00  0.00    +0.000 A 
ATOM     25  C   UNL     1       3.110   2.960  19.927  0.00  0.00    +0.000 A 
ATOM     26  C   UNL     1       3.146   4.314  20.290  0.00  0.00    +0.000 A 
BRANCH  25  27
ATOM     27  C   UNL     1       4.401   2.208  19.726  0.00  0.00    +0.000 C 
ATOM     28  F   UNL     1       5.373   2.949  19.121  0.00  0.00    +0.000 F 
ATOM     29  F   UNL     1       4.941   1.771  20.897  0.00  0.00    +0.000 F 
ATOM     30  F   UNL     1       4.247   1.100  18.950  0.00  0.00    +0.000 F 
ENDBRANCH  25  27
ENDBRANCH   6  21
TORSDOF 5
ENDMDL
MODEL 6
REMARK VINA RESULT:      -8.1      5.077      9.733
REMARK  Name = 
REMARK  6 active torsions:
REMARK  status: ('A' for Active; 'I' for Inactive)
REMARK    1  A    between atoms: C_1  and  C_2
REMARK    2  A    between atoms: C_2  and  O_3
REMARK    3  A    between atoms: O_3  and  C_4
REMARK    4  A    between atoms: C_8  and  C_9
REMARK    5  A    between atoms: N_14  and  C_15
REMARK    6  A    between atoms: C_19  and  C_20
REMARK                            x       y       z     vdW  Elec       q    Type
REMARK                         _______ _______ _______ _____ _____    ______ ____
ROOT
ATOM      1  C   UNL     1       0.906   9.750  19.525  0.00  0.00    +0.000 A 
ATOM      2  C   UNL     1       1.432   9.812  18.252  0.00  0.00    +0.000 A 
ATOM      3  C   UNL     1       2.215   8.751  17.883  0.00  0.00    +0.000 A 
ATOM      4  N   UNL     1       2.434   7.695  18.672  0.00  0.00    +0.000 NA
ATOM      5  C   UNL     1       1.850   7.689  19.887  0.00  0.00    +0.000 A 
ATOM      6  N   UNL     1       2.014   6.567  20.706  0.00  0.00    +0.000 N 
ATOM      7  N   UNL     1       1.098   8.697  20.350  0.00  0.00    +0.000 NA
ATOM      8  H   UNL     1       1.389   6.668  21.497  0.00  0.00    +0.000 HD
ENDROOT
BRANCH   1  13
ATOM      9  C   UNL     1      -3.485  12.504  19.615  0.00  0.00    +0.000 A 
ATOM     10  C   UNL     1      -3.225  11.474  18.590  0.00  0.00    +0.000 A 
ATOM     11  C   UNL     1      -2.039  10.863  18.657  0.00  0.00    +0.000 A 
ATOM     12  C   UNL     1      -1.112  11.268  19.646  0.00  0.00    +0.000 A 
ATOM     13  C   UNL     1       0.148  10.871  20.057  0.00  0.00    +0.000 A 
ATOM     14  C   UNL     1       0.442  11.752  21.126  0.00  0.00    +0.000 A 
ATOM     15  N   UNL     1      -0.546  12.611  21.387  0.00  0.00    +0.000 NA
ATOM     16  N   UNL     1      -1.494  12.296  20.491  0.00  0.00    +0.000 N 
ATOM     17  N   UNL     1      -2.688  12.932  20.531  0.00  0.00    +0.000 NA
BRANCH   9  18
ATOM     18  O   UNL     1      -4.762  12.931  19.465  0.00  0.00    +0.000 OA
BRANCH  18  20
ATOM     19  C   UNL     1      -6.454  11.914  20.798  0.00  0.00    +0.000 C 
ATOM     20  C   UNL     1      -5.528  13.110  20.668  0.00  0.00    +0.000 C 
ENDBRANCH  18  20
ENDBRANCH   9  18
ENDBRANCH   1  13
BRANCH   6  21
ATOM     21  C   UNL     1       2.079   5.240  20.231  0.00  0.00    +0.000 A 
ATOM     22  C   UNL     1       1.192   4.285  20.735  0.00  0.00    +0.000 A 
ATOM     23  C   UNL     1       1.200   2.979  20.242  0.00  0.00    +0.000 A 
ATOM     24  C   UNL     1       2.093   2.613  19.235  0.00  0.00    +0.000 A 
ATOM     25  C   UNL     1       2.998   3.547  18.718  0.00  0.00    +0.000 A 
ATOM     26  C   UNL     1       2.963   4.860  19.208  0.00  0.00    +0.000 A 
BRANCH  25  27
ATOM     27  C   UNL     1       4.013   3.169  17.669  0.00  0.00    +0.000 C 
ATOM     28  F   UNL     1       3.742   3.689  16.438  0.00  0.00    +0.000 F 
ATOM     29  F   UNL     1       5.270   3.589  17.981  0.00  0.00    +0.000 F 
ATOM     30  F   UNL     1       4.104   1.822  17.488  0.00  0.00    +0.000 F 
ENDBRANCH  25  27
ENDBRANCH   6  21
TORSDOF 5
ENDMDL
MODEL 7
REMARK VINA RESULT:      -8.1      5.291      9.899
REMARK  Name = 
REMARK  6 active torsions:
REMARK  status: ('A' for Active; 'I' for Inactive)
REMARK    1  A    between atoms: C_1  and  C_2
REMARK    2  A    between atoms: C_2  and  O_3
REMARK    3  A    between atoms: O_3  and  C_4
REMARK    4  A    between atoms: C_8  and  C_9
REMARK    5  A    between atoms: N_14  and  C_15
REMARK    6  A    between atoms: C_19  and  C_20
REMARK                            x       y       z     vdW  Elec       q    Type
REMARK                         _______ _______ _______ _____ _____    ______ ____
ROOT
ATOM      1  C   UNL     1       0.815   9.365  20.278  0.00  0.00    +0.000 A 
ATOM      2  C   UNL     1       0.667   9.908  19.019  0.00  0.00    +0.000 A 
ATOM      3  C   UNL     1       1.376   9.294  18.022  0.00  0.00    +0.000 A 
ATOM      4  N   UNL     1       2.135   8.213  18.225  0.00  0.00    +0.000 NA
ATOM      5  C   UNL     1       2.195   7.715  19.475  0.00  0.00    +0.000 A 
ATOM      6  N   UNL     1       2.933   6.548  19.700  0.00  0.00    +0.000 N 
ATOM      7  N   UNL     1       1.567   8.269  20.522  0.00  0.00    +0.000 NA
ATOM      8  H   UNL     1       2.741   6.238  20.645  0.00  0.00    +0.000 HD
ENDROOT
BRANCH   1  13
ATOM      9  C   UNL     1      -0.778  13.698  22.635  0.00  0.00    +0.000 A 
ATOM     10  C   UNL     1       0.070  13.728  21.428  0.00  0.00    +0.000 A 
ATOM     11  C   UNL     1       0.442  12.541  20.940  0.00  0.00    +0.000 A 
ATOM     12  C   UNL     1       0.053  11.365  21.624  0.00  0.00    +0.000 A 
ATOM     13  C   UNL     1       0.192  10.003  21.426  0.00  0.00    +0.000 A 
ATOM     14  C   UNL     1      -0.473   9.436  22.541  0.00  0.00    +0.000 A 
ATOM     15  N   UNL     1      -1.004  10.348  23.357  0.00  0.00    +0.000 NA
ATOM     16  N   UNL     1      -0.692  11.520  22.780  0.00  0.00    +0.000 N 
ATOM     17  N   UNL     1      -1.157  12.672  23.314  0.00  0.00    +0.000 NA
BRANCH   9  18
ATOM     18  O   UNL     1      -1.149  14.970  22.917  0.00  0.00    +0.000 OA
BRANCH  18  20
ATOM     19  C   UNL     1      -3.355  15.568  23.587  0.00  0.00    +0.000 C 
ATOM     20  C   UNL     1      -1.977  15.159  24.076  0.00  0.00    +0.000 C 
ENDBRANCH  18  20
ENDBRANCH   9  18
ENDBRANCH   1  13
BRANCH   6  21
ATOM     21  C   UNL     1       3.024   5.478  18.785  0.00  0.00    +0.000 A 
ATOM     22  C   UNL     1       2.031   4.495  18.777  0.00  0.00    +0.000 A 
ATOM     23  C   UNL     1       2.067   3.456  17.845  0.00  0.00    +0.000 A 
ATOM     24  C   UNL     1       3.098   3.390  16.906  0.00  0.00    +0.000 A 
ATOM     25  C   UNL     1       4.110   4.356  16.897  0.00  0.00    +0.000 A 
ATOM     26  C   UNL     1       4.046   5.406  17.825  0.00  0.00    +0.000 A 
BRANCH  25  27
ATOM     27  C   UNL     1       5.266   4.283  15.933  0.00  0.00    +0.000 C 
ATOM     28  F   UNL     1       6.164   5.298  16.082  0.00  0.00    +0.000 F 
ATOM     29  F   UNL     1       5.982   3.131  16.059  0.00  0.00    +0.000 F 
ATOM     30  F   UNL     1       4.867   4.332  14.632  0.00  0.00    +0.000 F 
ENDBRANCH  25  27
ENDBRANCH   6  21
TORSDOF 5
ENDMDL
MODEL 8
REMARK VINA RESULT:      -8.0      1.985      2.486
REMARK  Name = 
REMARK  6 active torsions:
REMARK  status: ('A' for Active; 'I' for Inactive)
REMARK    1  A    between atoms: C_1  and  C_2
REMARK    2  A    between atoms: C_2  and  O_3
REMARK    3  A    between atoms: O_3  and  C_4
REMARK    4  A    between atoms: C_8  and  C_9
REMARK    5  A    between atoms: N_14  and  C_15
REMARK    6  A    between atoms: C_19  and  C_20
REMARK                            x       y       z     vdW  Elec       q    Type
REMARK                         _______ _______ _______ _____ _____    ______ ____
ROOT
ATOM      1  C   UNL     1       2.392   6.565  18.868  0.00  0.00    +0.000 A 
ATOM      2  C   UNL     1       2.168   6.519  20.227  0.00  0.00    +0.000 A 
ATOM      3  C   UNL     1       1.683   7.670  20.787  0.00  0.00    +0.000 A 
ATOM      4  N   UNL     1       1.399   8.765  20.075  0.00  0.00    +0.000 NA
ATOM      5  C   UNL     1       1.605   8.719  18.745  0.00  0.00    +0.000 A 
ATOM      6  N   UNL     1       1.257   9.831  17.970  0.00  0.00    +0.000 N 
ATOM      7  N   UNL     1       2.111   7.651  18.113  0.00  0.00    +0.000 NA
ATOM      8  H   UNL     1       1.331   9.564  16.996  0.00  0.00    +0.000 HD
ENDROOT
BRANCH   1  13
ATOM      9  C   UNL     1       6.166   4.714  15.834  0.00  0.00    +0.000 A 
ATOM     10  C   UNL     1       5.944   6.161  16.016  0.00  0.00    +0.000 A 
ATOM     11  C   UNL     1       4.915   6.507  16.794  0.00  0.00    +0.000 A 
ATOM     12  C   UNL     1       4.093   5.490  17.337  0.00  0.00    +0.000 A 
ATOM     13  C   UNL     1       3.005   5.435  18.190  0.00  0.00    +0.000 A 
ATOM     14  C   UNL     1       2.723   4.049  18.279  0.00  0.00    +0.000 A 
ATOM     15  N   UNL     1       3.565   3.294  17.571  0.00  0.00    +0.000 NA
ATOM     16  N   UNL     1       4.406   4.181  17.014  0.00  0.00    +0.000 N 
ATOM     17  N   UNL     1       5.455   3.739  16.283  0.00  0.00    +0.000 NA
BRANCH   9  18
ATOM     18  O   UNL     1       7.305   4.551  15.119  0.00  0.00    +0.000 OA
BRANCH  18  20
ATOM     19  C   UNL     1       6.448   3.851  13.009  0.00  0.00    +0.000 C 
ATOM     20  C   UNL     1       7.253   4.918  13.730  0.00  0.00    +0.000 C 
ENDBRANCH  18  20
ENDBRANCH   9  18
ENDBRANCH   1  13
BRANCH   6  21
ATOM     21  C   UNL     1       0.141  10.657  18.225  0.00  0.00    +0.000 A 
ATOM     22  C   UNL     1      -1.146  10.154  18.021  0.00  0.00    +0.000 A 
ATOM     23  C   UNL     1      -2.267  10.931  18.317  0.00  0.00    +0.000 A 
ATOM     24  C   UNL     1      -2.114  12.222  18.825  0.00  0.00    +0.000 A 
ATOM     25  C   UNL     1      -0.836  12.754  19.030  0.00  0.00    +0.000 A 
ATOM     26  C   UNL     1       0.280  11.952  18.749  0.00  0.00    +0.000 A 
BRANCH  25  27
ATOM     27  C   UNL     1      -0.636  14.163  19.525  0.00  0.00    +0.000 C 
ATOM     28  F   UNL     1      -1.691  14.643  20.243  0.00  0.00    +0.000 F 
ATOM     29  F   UNL     1       0.452  14.284  20.336  0.00  0.00    +0.000 F 
ATOM     30  F   UNL     1      -0.445  15.052  18.512  0.00  0.00    +0.000 F 
ENDBRANCH  25  27
ENDBRANCH   6  21
TORSDOF 5
ENDMDL
MODEL 9
REMARK VINA RESULT:      -8.0      5.748      9.967
REMARK  Name = 
REMARK  6 active torsions:
REMARK  status: ('A' for Active; 'I' for Inactive)
REMARK    1  A    between atoms: C_1  and  C_2
REMARK    2  A    between atoms: C_2  and  O_3
REMARK    3  A    between atoms: O_3  and  C_4
REMARK    4  A    between atoms: C_8  and  C_9
REMARK    5  A    between atoms: N_14  and  C_15
REMARK    6  A    between atoms: C_19  and  C_20
REMARK                            x       y       z     vdW  Elec       q    Type
REMARK                         _______ _______ _______ _____ _____    ______ ____
ROOT
ATOM      1  C   UNL     1       1.302   9.529  19.170  0.00  0.00    +0.000 A 
ATOM      2  C   UNL     1       1.843   9.355  17.914  0.00  0.00    +0.000 A 
ATOM      3  C   UNL     1       2.508   8.175  17.714  0.00  0.00    +0.000 A 
ATOM      4  N   UNL     1       2.602   7.222  18.646  0.00  0.00    +0.000 NA
ATOM      5  C   UNL     1       2.010   7.449  19.835  0.00  0.00    +0.000 A 
ATOM      6  N   UNL     1       2.041   6.441  20.805  0.00  0.00    +0.000 N 
ATOM      7  N   UNL     1       1.369   8.586  20.136  0.00  0.00    +0.000 NA
ATOM      8  H   UNL     1       1.424   6.718  21.559  0.00  0.00    +0.000 HD
ENDROOT
BRANCH   1  13
ATOM      9  C   UNL     1      -1.179  12.425  22.680  0.00  0.00    +0.000 A 
ATOM     10  C   UNL     1      -0.950  10.980  22.875  0.00  0.00    +0.000 A 
ATOM     11  C   UNL     1      -0.332  10.342  21.878  0.00  0.00    +0.000 A 
ATOM     12  C   UNL     1       0.008  11.062  20.708  0.00  0.00    +0.000 A 
ATOM     13  C   UNL     1       0.667  10.788  19.523  0.00  0.00    +0.000 A 
ATOM     14  C   UNL     1       0.626  12.021  18.828  0.00  0.00    +0.000 A 
ATOM     15  N   UNL     1       0.021  12.993  19.514  0.00  0.00    +0.000 NA
ATOM     16  N   UNL     1      -0.337  12.401  20.665  0.00  0.00    +0.000 N 
ATOM     17  N   UNL     1      -0.912  13.138  21.643  0.00  0.00    +0.000 NA
BRANCH   9  18
ATOM     18  O   UNL     1      -1.707  12.923  23.825  0.00  0.00    +0.000 OA
BRANCH  18  20
ATOM     19  C   UNL     1      -3.203  14.545  24.723  0.00  0.00    +0.000 C 
ATOM     20  C   UNL     1      -1.979  14.334  23.850  0.00  0.00    +0.000 C 
ENDBRANCH  18  20
ENDBRANCH   9  18
ENDBRANCH   1  13
BRANCH   6  21
ATOM     21  C   UNL     1       1.964   5.061  20.519  0.00  0.00    +0.000 A 
ATOM     22  C   UNL     1       0.714   4.443  20.448  0.00  0.00    +0.000 A 
ATOM     23  C   UNL     1       0.607   3.092  20.113  0.00  0.00    +0.000 A 
ATOM     24  C   UNL     1       1.752   2.343  19.840  0.00  0.00    +0.000 A 
ATOM     25  C   UNL     1       3.019   2.934  19.912  0.00  0.00    +0.000 A 
ATOM     26  C   UNL     1       3.107   4.298  20.228  0.00  0.00    +0.000 A 
BRANCH  25  27
ATOM     27  C   UNL     1       4.278   2.141  19.677  0.00  0.00    +0.000 C 
ATOM     28  F   UNL     1       4.083   1.023  18.919  0.00  0.00    +0.000 F 
ATOM     29  F   UNL     1       5.240   2.861  19.037  0.00  0.00    +0.000 F 
ATOM     30  F   UNL     1       4.847   1.706  20.835  0.00  0.00    +0.000 F 
ENDBRANCH  25  27
ENDBRANCH   6  21
TORSDOF 5
ENDMDL
