MODEL 1
REMARK VINA RESULT:      -8.6      0.000      0.000
REMARK  Name = 
REMARK  9 active torsions:
REMARK  status: ('A' for Active; 'I' for Inactive)
REMARK    1  A    between atoms: C_1  and  C_2
REMARK    2  A    between atoms: C_7  and  C_8
REMARK    3  A    between atoms: C_8  and  N_9
REMARK    4  A    between atoms: N_9  and  C_10
REMARK    5  A    between atoms: N_9  and  S_26
REMARK    6  A    between atoms: C_13  and  C_14
REMARK    7  A    between atoms: N_16  and  C_17
REMARK    8  A    between atoms: C_17  and  C_18
REMARK    9  A    between atoms: S_26  and  C_27
REMARK                            x       y       z     vdW  Elec       q    Type
REMARK                         _______ _______ _______ _____ _____    ______ ____
ROOT
ATOM      1  C   UNL     1       2.556   6.358  19.049  0.00  0.00    +0.000 A 
ATOM      2  C   UNL     1       2.072   6.542  20.348  0.00  0.00    +0.000 A 
ATOM      3  C   UNL     1       1.451   7.760  20.709  0.00  0.00    +0.000 A 
ATOM      4  C   UNL     1       1.305   8.794  19.772  0.00  0.00    +0.000 A 
ATOM      5  C   UNL     1       1.877   8.641  18.505  0.00  0.00    +0.000 A 
ATOM      6  C   UNL     1       2.485   7.431  18.149  0.00  0.00    +0.000 A 
ENDROOT
BRANCH   4   7
ATOM      7  C   UNL     1       0.527  10.046  20.030  0.00  0.00    +0.000 C 
ATOM      8  O   UNL     1       0.979  10.907  20.778  0.00  0.00    +0.000 OA
ATOM      9  N   UNL     1      -0.658  10.193  19.338  0.00  0.00    +0.000 N 
ATOM     10  H   UNL     1      -0.873   9.562  18.579  0.00  0.00    +0.000 HD
BRANCH   9  11
ATOM     11  C   UNL     1      -1.435  11.422  19.402  0.00  0.00    +0.000 C 
BRANCH  11  12
ATOM     12  C   UNL     1      -2.656  11.429  18.502  0.00  0.00    +0.000 A 
ATOM     13  C   UNL     1      -2.558  10.998  17.179  0.00  0.00    +0.000 A 
ATOM     14  C   UNL     1      -3.676  11.081  16.351  0.00  0.00    +0.000 A 
ATOM     15  C   UNL     1      -4.869  11.570  16.867  0.00  0.00    +0.000 A 
ATOM     16  C   UNL     1      -4.889  11.971  18.192  0.00  0.00    +0.000 A 
ATOM     17  N   UNL     1      -3.820  11.905  19.019  0.00  0.00    +0.000 NA
ENDBRANCH  11  12
ENDBRANCH   9  11
ENDBRANCH   4   7
BRANCH   1  18
ATOM     18  N   UNL     1       2.756   5.053  18.457  0.00  0.00    +0.000 N 
BRANCH  18  19
ATOM     19  S   UNL     1       2.146   3.786  19.498  0.00  0.00    +0.000 S 
ATOM     20  C   UNL     1       2.114   2.456  18.324  0.00  0.00    +0.000 C 
ATOM     21  O   UNL     1       3.150   3.478  20.496  0.00  0.00    +0.000 OA
ATOM     22  O   UNL     1       0.773   4.046  19.877  0.00  0.00    +0.000 OA
ENDBRANCH  18  19
BRANCH  18  23
ATOM     23  C   UNL     1       4.001   4.617  17.755  0.00  0.00    +0.000 C 
BRANCH  23  30
ATOM     24  C   UNL     1       5.125   6.609  15.843  0.00  0.00    +0.000 C 
ATOM     25  C   UNL     1       5.896   6.162  17.060  0.00  0.00    +0.000 A 
ATOM     26  C   UNL     1       7.186   6.686  17.245  0.00  0.00    +0.000 A 
ATOM     27  C   UNL     1       7.884   6.445  18.422  0.00  0.00    +0.000 A 
ATOM     28  C   UNL     1       7.286   5.701  19.435  0.00  0.00    +0.000 A 
ATOM     29  C   UNL     1       6.028   5.118  19.238  0.00  0.00    +0.000 A 
ATOM     30  C   UNL     1       5.344   5.277  18.027  0.00  0.00    +0.000 A 
ENDBRANCH  23  30
ENDBRANCH  18  23
ENDBRANCH   1  18
TORSDOF 7
ENDMDL
MODEL 2
REMARK VINA RESULT:      -8.5      1.218      1.932
REMARK  Name = 
REMARK  9 active torsions:
REMARK  status: ('A' for Active; 'I' for Inactive)
REMARK    1  A    between atoms: C_1  and  C_2
REMARK    2  A    between atoms: C_7  and  C_8
REMARK    3  A    between atoms: C_8  and  N_9
REMARK    4  A    between atoms: N_9  and  C_10
REMARK    5  A    between atoms: N_9  and  S_26
REMARK    6  A    between atoms: C_13  and  C_14
REMARK    7  A    between atoms: N_16  and  C_17
REMARK    8  A    between atoms: C_17  and  C_18
REMARK    9  A    between atoms: S_26  and  C_27
REMARK                            x       y       z     vdW  Elec       q    Type
REMARK                         _______ _______ _______ _____ _____    ______ ____
ROOT
ATOM      1  C   UNL     1       2.770   6.005  19.249  0.00  0.00    +0.000 A 
ATOM      2  C   UNL     1       2.261   6.557  20.429  0.00  0.00    +0.000 A 
ATOM      3  C   UNL     1       1.693   7.852  20.420  0.00  0.00    +0.000 A 
ATOM      4  C   UNL     1       1.625   8.595  19.231  0.00  0.00    +0.000 A 
ATOM      5  C   UNL     1       2.222   8.077  18.078  0.00  0.00    +0.000 A 
ATOM      6  C   UNL     1       2.778   6.792  18.089  0.00  0.00    +0.000 A 
ENDROOT
BRANCH   4   7
ATOM      7  C   UNL     1       0.904   9.901  19.107  0.00  0.00    +0.000 C 
ATOM      8  O   UNL     1       1.503  10.898  18.715  0.00  0.00    +0.000 OA
ATOM      9  N   UNL     1      -0.447   9.891  19.383  0.00  0.00    +0.000 N 
ATOM     10  H   UNL     1      -0.928   9.009  19.488  0.00  0.00    +0.000 HD
BRANCH   9  11
ATOM     11  C   UNL     1      -1.281  11.065  19.170  0.00  0.00    +0.000 C 
BRANCH  11  12
ATOM     12  C   UNL     1      -2.217  10.950  17.981  0.00  0.00    +0.000 A 
ATOM     13  C   UNL     1      -3.453  11.595  17.994  0.00  0.00    +0.000 A 
ATOM     14  C   UNL     1      -4.326  11.417  16.921  0.00  0.00    +0.000 A 
ATOM     15  C   UNL     1      -3.936  10.619  15.853  0.00  0.00    +0.000 A 
ATOM     16  C   UNL     1      -2.690  10.018  15.912  0.00  0.00    +0.000 A 
ATOM     17  N   UNL     1      -1.823  10.169  16.939  0.00  0.00    +0.000 NA
ENDBRANCH  11  12
ENDBRANCH   9  11
ENDBRANCH   4   7
BRANCH   1  18
ATOM     18  N   UNL     1       2.919   4.580  19.043  0.00  0.00    +0.000 N 
BRANCH  18  19
ATOM     19  S   UNL     1       1.909   3.672  20.147  0.00  0.00    +0.000 S 
ATOM     20  C   UNL     1       1.839   2.139  19.257  0.00  0.00    +0.000 C 
ATOM     21  O   UNL     1       2.644   3.445  21.374  0.00  0.00    +0.000 OA
ATOM     22  O   UNL     1       0.563   4.206  20.171  0.00  0.00    +0.000 OA
ENDBRANCH  18  19
BRANCH  18  23
ATOM     23  C   UNL     1       4.221   3.884  18.813  0.00  0.00    +0.000 C 
BRANCH  23  30
ATOM     24  C   UNL     1       6.683   5.490  19.313  0.00  0.00    +0.000 C 
ATOM     25  C   UNL     1       6.263   5.104  17.916  0.00  0.00    +0.000 A 
ATOM     26  C   UNL     1       7.051   5.562  16.847  0.00  0.00    +0.000 A 
ATOM     27  C   UNL     1       6.817   5.111  15.554  0.00  0.00    +0.000 A 
ATOM     28  C   UNL     1       5.811   4.177  15.324  0.00  0.00    +0.000 A 
ATOM     29  C   UNL     1       4.976   3.762  16.369  0.00  0.00    +0.000 A 
ATOM     30  C   UNL     1       5.140   4.268  17.664  0.00  0.00    +0.000 A 
ENDBRANCH  23  30
ENDBRANCH  18  23
ENDBRANCH   1  18
TORSDOF 7
ENDMDL
MODEL 3
REMARK VINA RESULT:      -8.5      2.447      9.413
REMARK  Name = 
REMARK  9 active torsions:
REMARK  status: ('A' for Active; 'I' for Inactive)
REMARK    1  A    between atoms: C_1  and  C_2
REMARK    2  A    between atoms: C_7  and  C_8
REMARK    3  A    between atoms: C_8  and  N_9
REMARK    4  A    between atoms: N_9  and  C_10
REMARK    5  A    between atoms: N_9  and  S_26
REMARK    6  A    between atoms: C_13  and  C_14
REMARK    7  A    between atoms: N_16  and  C_17
REMARK    8  A    between atoms: C_17  and  C_18
REMARK    9  A    between atoms: S_26  and  C_27
REMARK                            x       y       z     vdW  Elec       q    Type
REMARK                         _______ _______ _______ _____ _____    ______ ____
ROOT
ATOM      1  C   UNL     1       1.026  10.208  19.227  0.00  0.00    +0.000 A 
ATOM      2  C   UNL     1       1.754   9.875  18.080  0.00  0.00    +0.000 A 
ATOM      3  C   UNL     1       2.360   8.603  17.969  0.00  0.00    +0.000 A 
ATOM      4  C   UNL     1       2.234   7.657  18.999  0.00  0.00    +0.000 A 
ATOM      5  C   UNL     1       1.589   8.031  20.181  0.00  0.00    +0.000 A 
ATOM      6  C   UNL     1       0.983   9.289  20.285  0.00  0.00    +0.000 A 
ENDROOT
BRANCH   4   7
ATOM      7  C   UNL     1       2.712   6.243  18.891  0.00  0.00    +0.000 C 
ATOM      8  O   UNL     1       2.086   5.434  18.213  0.00  0.00    +0.000 OA
ATOM      9  N   UNL     1       3.899   5.940  19.524  0.00  0.00    +0.000 N 
ATOM     10  H   UNL     1       4.479   6.686  19.881  0.00  0.00    +0.000 HD
BRANCH   9  11
ATOM     11  C   UNL     1       4.533   4.638  19.381  0.00  0.00    +0.000 C 
BRANCH  11  12
ATOM     12  C   UNL     1       5.448   4.524  18.176  0.00  0.00    +0.000 A 
ATOM     13  C   UNL     1       4.931   4.166  16.932  0.00  0.00    +0.000 A 
ATOM     14  C   UNL     1       5.801   3.998  15.856  0.00  0.00    +0.000 A 
ATOM     15  C   UNL     1       7.161   4.213  16.040  0.00  0.00    +0.000 A 
ATOM     16  C   UNL     1       7.596   4.574  17.305  0.00  0.00    +0.000 A 
ATOM     17  N   UNL     1       6.777   4.741  18.369  0.00  0.00    +0.000 NA
ENDBRANCH  11  12
ENDBRANCH   9  11
ENDBRANCH   4   7
BRANCH   1  18
ATOM     18  N   UNL     1       0.007  11.236  19.246  0.00  0.00    +0.000 N 
BRANCH  18  19
ATOM     19  S   UNL     1       0.475  12.571  20.276  0.00  0.00    +0.000 S 
ATOM     20  C   UNL     1       0.013  13.914  19.213  0.00  0.00    +0.000 C 
ATOM     21  O   UNL     1      -0.396  12.596  21.434  0.00  0.00    +0.000 OA
ATOM     22  O   UNL     1       1.915  12.629  20.424  0.00  0.00    +0.000 OA
ENDBRANCH  18  19
BRANCH  18  23
ATOM     23  C   UNL     1      -1.462  10.978  19.338  0.00  0.00    +0.000 C 
BRANCH  23  30
ATOM     24  C   UNL     1      -4.127  12.311  19.246  0.00  0.00    +0.000 C 
ATOM     25  C   UNL     1      -3.634  11.453  18.106  0.00  0.00    +0.000 A 
ATOM     26  C   UNL     1      -4.492  11.268  17.010  0.00  0.00    +0.000 A 
ATOM     27  C   UNL     1      -4.042  10.628  15.862  0.00  0.00    +0.000 A 
ATOM     28  C   UNL     1      -2.722  10.195  15.790  0.00  0.00    +0.000 A 
ATOM     29  C   UNL     1      -1.875  10.315  16.899  0.00  0.00    +0.000 A 
ATOM     30  C   UNL     1      -2.333  10.879  18.095  0.00  0.00    +0.000 A 
ENDBRANCH  23  30
ENDBRANCH  18  23
ENDBRANCH   1  18
TORSDOF 7
ENDMDL
MODEL 4
REMARK VINA RESULT:      -8.4      2.334      9.315
REMARK  Name = 
REMARK  9 active torsions:
REMARK  status: ('A' for Active; 'I' for Inactive)
REMARK    1  A    between atoms: C_1  and  C_2
REMARK    2  A    between atoms: C_7  and  C_8
REMARK    3  A    between atoms: C_8  and  N_9
REMARK    4  A    between atoms: N_9  and  C_10
REMARK    5  A    between atoms: N_9  and  S_26
REMARK    6  A    between atoms: C_13  and  C_14
REMARK    7  A    between atoms: N_16  and  C_17
REMARK    8  A    between atoms: C_17  and  C_18
REMARK    9  A    between atoms: S_26  and  C_27
REMARK                            x       y       z     vdW  Elec       q    Type
REMARK                         _______ _______ _______ _____ _____    ______ ____
ROOT
ATOM      1  C   UNL     1       0.949   9.919  19.440  0.00  0.00    +0.000 A 
ATOM      2  C   UNL     1       1.690   9.570  18.307  0.00  0.00    +0.000 A 
ATOM      3  C   UNL     1       2.342   8.317  18.243  0.00  0.00    +0.000 A 
ATOM      4  C   UNL     1       2.249   7.406  19.307  0.00  0.00    +0.000 A 
ATOM      5  C   UNL     1       1.588   7.800  20.474  0.00  0.00    +0.000 A 
ATOM      6  C   UNL     1       0.937   9.039  20.532  0.00  0.00    +0.000 A 
ENDROOT
BRANCH   4   7
ATOM      7  C   UNL     1       2.777   6.007  19.253  0.00  0.00    +0.000 C 
ATOM      8  O   UNL     1       2.040   5.086  18.916  0.00  0.00    +0.000 OA
ATOM      9  N   UNL     1       4.119   5.840  19.526  0.00  0.00    +0.000 N 
ATOM     10  H   UNL     1       4.720   6.650  19.583  0.00  0.00    +0.000 HD
BRANCH   9  11
ATOM     11  C   UNL     1       4.777   4.551  19.375  0.00  0.00    +0.000 C 
BRANCH  11  12
ATOM     12  C   UNL     1       5.529   4.391  18.068  0.00  0.00    +0.000 A 
ATOM     13  C   UNL     1       6.888   4.696  17.995  0.00  0.00    +0.000 A 
ATOM     14  C   UNL     1       7.541   4.609  16.766  0.00  0.00    +0.000 A 
ATOM     15  C   UNL     1       6.830   4.199  15.646  0.00  0.00    +0.000 A 
ATOM     16  C   UNL     1       5.485   3.906  15.801  0.00  0.00    +0.000 A 
ATOM     17  N   UNL     1       4.823   3.984  16.978  0.00  0.00    +0.000 NA
ENDBRANCH  11  12
ENDBRANCH   9  11
ENDBRANCH   4   7
BRANCH   1  18
ATOM     18  N   UNL     1      -0.106  10.909  19.421  0.00  0.00    +0.000 N 
BRANCH  18  19
ATOM     19  S   UNL     1       0.234  12.218  20.531  0.00  0.00    +0.000 S 
ATOM     20  C   UNL     1      -0.977  11.847  21.773  0.00  0.00    +0.000 C 
ATOM     21  O   UNL     1       1.547  12.013  21.108  0.00  0.00    +0.000 OA
ATOM     22  O   UNL     1      -0.136  13.494  19.952  0.00  0.00    +0.000 OA
ENDBRANCH  18  19
BRANCH  18  23
ATOM     23  C   UNL     1      -1.568  10.597  19.392  0.00  0.00    +0.000 C 
BRANCH  23  30
ATOM     24  C   UNL     1      -4.032  12.266  19.225  0.00  0.00    +0.000 C 
ATOM     25  C   UNL     1      -3.588  11.398  18.074  0.00  0.00    +0.000 A 
ATOM     26  C   UNL     1      -4.399  11.369  16.927  0.00  0.00    +0.000 A 
ATOM     27  C   UNL     1      -3.968  10.723  15.775  0.00  0.00    +0.000 A 
ATOM     28  C   UNL     1      -2.712  10.126  15.751  0.00  0.00    +0.000 A 
ATOM     29  C   UNL     1      -1.921  10.091  16.906  0.00  0.00    +0.000 A 
ATOM     30  C   UNL     1      -2.372  10.661  18.103  0.00  0.00    +0.000 A 
ENDBRANCH  23  30
ENDBRANCH  18  23
ENDBRANCH   1  18
TORSDOF 7
ENDMDL
MODEL 5
REMARK VINA RESULT:      -8.3      0.701      1.051
REMARK  Name = 
REMARK  9 active torsions:
REMARK  status: ('A' for Active; 'I' for Inactive)
REMARK    1  A    between atoms: C_1  and  C_2
REMARK    2  A    between atoms: C_7  and  C_8
REMARK    3  A    between atoms: C_8  and  N_9
REMARK    4  A    between atoms: N_9  and  C_10
REMARK    5  A    between atoms: N_9  and  S_26
REMARK    6  A    between atoms: C_13  and  C_14
REMARK    7  A    between atoms: N_16  and  C_17
REMARK    8  A    between atoms: C_17  and  C_18
REMARK    9  A    between atoms: S_26  and  C_27
REMARK                            x       y       z     vdW  Elec       q    Type
REMARK                         _______ _______ _______ _____ _____    ______ ____
ROOT
ATOM      1  C   UNL     1       2.595   6.458  18.912  0.00  0.00    +0.000 A 
ATOM      2  C   UNL     1       2.138   6.745  20.202  0.00  0.00    +0.000 A 
ATOM      3  C   UNL     1       1.514   7.985  20.475  0.00  0.00    +0.000 A 
ATOM      4  C   UNL     1       1.339   8.937  19.458  0.00  0.00    +0.000 A 
ATOM      5  C   UNL     1       1.884   8.683  18.196  0.00  0.00    +0.000 A 
ATOM      6  C   UNL     1       2.495   7.452  17.928  0.00  0.00    +0.000 A 
ENDROOT
BRANCH   4   7
ATOM      7  C   UNL     1       0.554  10.200  19.629  0.00  0.00    +0.000 C 
ATOM      8  O   UNL     1       0.464  10.721  20.736  0.00  0.00    +0.000 OA
ATOM      9  N   UNL     1       0.020  10.757  18.486  0.00  0.00    +0.000 N 
ATOM     10  H   UNL     1       0.306  10.410  17.581  0.00  0.00    +0.000 HD
BRANCH   9  11
ATOM     11  C   UNL     1      -0.646  12.051  18.503  0.00  0.00    +0.000 C 
BRANCH  11  12
ATOM     12  C   UNL     1      -2.158  11.969  18.419  0.00  0.00    +0.000 A 
ATOM     13  C   UNL     1      -2.946  12.344  19.507  0.00  0.00    +0.000 A 
ATOM     14  C   UNL     1      -4.329  12.192  19.432  0.00  0.00    +0.000 A 
ATOM     15  C   UNL     1      -4.896  11.691  18.267  0.00  0.00    +0.000 A 
ATOM     16  C   UNL     1      -4.048  11.348  17.227  0.00  0.00    +0.000 A 
ATOM     17  N   UNL     1      -2.702  11.481  17.271  0.00  0.00    +0.000 NA
ENDBRANCH  11  12
ENDBRANCH   9  11
ENDBRANCH   4   7
BRANCH   1  18
ATOM     18  N   UNL     1       2.794   5.110  18.426  0.00  0.00    +0.000 N 
BRANCH  18  19
ATOM     19  S   UNL     1       2.133   3.932  19.538  0.00  0.00    +0.000 S 
ATOM     20  C   UNL     1       2.063   2.533  18.450  0.00  0.00    +0.000 C 
ATOM     21  O   UNL     1       3.118   3.654  20.564  0.00  0.00    +0.000 OA
ATOM     22  O   UNL     1       0.766   4.262  19.887  0.00  0.00    +0.000 OA
ENDBRANCH  18  19
BRANCH  18  23
ATOM     23  C   UNL     1       4.054   4.607  17.799  0.00  0.00    +0.000 C 
BRANCH  23  30
ATOM     24  C   UNL     1       5.178   6.536  15.823  0.00  0.00    +0.000 C 
ATOM     25  C   UNL     1       5.947   6.131  17.056  0.00  0.00    +0.000 A 
ATOM     26  C   UNL     1       7.236   6.664  17.226  0.00  0.00    +0.000 A 
ATOM     27  C   UNL     1       7.931   6.464  18.412  0.00  0.00    +0.000 A 
ATOM     28  C   UNL     1       7.333   5.754  19.448  0.00  0.00    +0.000 A 
ATOM     29  C   UNL     1       6.077   5.162  19.269  0.00  0.00    +0.000 A 
ATOM     30  C   UNL     1       5.395   5.279  18.052  0.00  0.00    +0.000 A 
ENDBRANCH  23  30
ENDBRANCH  18  23
ENDBRANCH   1  18
TORSDOF 7
ENDMDL
MODEL 6
REMARK VINA RESULT:      -8.3      1.040      1.637
REMARK  Name = 
REMARK  9 active torsions:
REMARK  status: ('A' for Active; 'I' for Inactive)
REMARK    1  A    between atoms: C_1  and  C_2
REMARK    2  A    between atoms: C_7  and  C_8
REMARK    3  A    between atoms: C_8  and  N_9
REMARK    4  A    between atoms: N_9  and  C_10
REMARK    5  A    between atoms: N_9  and  S_26
REMARK    6  A    between atoms: C_13  and  C_14
REMARK    7  A    between atoms: N_16  and  C_17
REMARK    8  A    between atoms: C_17  and  C_18
REMARK    9  A    between atoms: S_26  and  C_27
REMARK                            x       y       z     vdW  Elec       q    Type
REMARK                         _______ _______ _______ _____ _____    ______ ____
ROOT
ATOM      1  C   UNL     1       2.762   6.095  19.409  0.00  0.00    +0.000 A 
ATOM      2  C   UNL     1       2.168   6.498  20.610  0.00  0.00    +0.000 A 
ATOM      3  C   UNL     1       1.512   7.748  20.693  0.00  0.00    +0.000 A 
ATOM      4  C   UNL     1       1.440   8.594  19.575  0.00  0.00    +0.000 A 
ATOM      5  C   UNL     1       2.118   8.228  18.408  0.00  0.00    +0.000 A 
ATOM      6  C   UNL     1       2.761   6.986  18.327  0.00  0.00    +0.000 A 
ENDROOT
BRANCH   4   7
ATOM      7  C   UNL     1       0.635   9.855  19.538  0.00  0.00    +0.000 C 
ATOM      8  O   UNL     1       0.517  10.538  20.550  0.00  0.00    +0.000 OA
ATOM      9  N   UNL     1       0.113  10.221  18.315  0.00  0.00    +0.000 N 
ATOM     10  H   UNL     1       0.420   9.744  17.479  0.00  0.00    +0.000 HD
BRANCH   9  11
ATOM     11  C   UNL     1      -0.572  11.491  18.123  0.00  0.00    +0.000 C 
BRANCH  11  12
ATOM     12  C   UNL     1      -2.048  11.355  17.801  0.00  0.00    +0.000 A 
ATOM     13  C   UNL     1      -2.456  10.877  16.556  0.00  0.00    +0.000 A 
ATOM     14  C   UNL     1      -3.817  10.828  16.258  0.00  0.00    +0.000 A 
ATOM     15  C   UNL     1      -4.738  11.236  17.214  0.00  0.00    +0.000 A 
ATOM     16  C   UNL     1      -4.254  11.691  18.429  0.00  0.00    +0.000 A 
ATOM     17  N   UNL     1      -2.941  11.753  18.747  0.00  0.00    +0.000 NA
ENDBRANCH  11  12
ENDBRANCH   9  11
ENDBRANCH   4   7
BRANCH   1  18
ATOM     18  N   UNL     1       3.019   4.709  19.081  0.00  0.00    +0.000 N 
BRANCH  18  19
ATOM     19  S   UNL     1       1.977   3.639  19.993  0.00  0.00    +0.000 S 
ATOM     20  C   UNL     1       2.037   2.222  18.928  0.00  0.00    +0.000 C 
ATOM     21  O   UNL     1       2.636   3.294  21.237  0.00  0.00    +0.000 OA
ATOM     22  O   UNL     1       0.610   4.116  19.980  0.00  0.00    +0.000 OA
ENDBRANCH  18  19
BRANCH  18  23
ATOM     23  C   UNL     1       4.378   4.112  18.905  0.00  0.00    +0.000 C 
BRANCH  23  30
ATOM     24  C   UNL     1       6.953   5.598  19.117  0.00  0.00    +0.000 C 
ATOM     25  C   UNL     1       6.398   5.169  17.782  0.00  0.00    +0.000 A 
ATOM     26  C   UNL     1       7.117   5.528  16.630  0.00  0.00    +0.000 A 
ATOM     27  C   UNL     1       6.752   5.028  15.386  0.00  0.00    +0.000 A 
ATOM     28  C   UNL     1       5.683   4.143  15.288  0.00  0.00    +0.000 A 
ATOM     29  C   UNL     1       4.918   3.828  16.418  0.00  0.00    +0.000 A 
ATOM     30  C   UNL     1       5.216   4.387  17.666  0.00  0.00    +0.000 A 
ENDBRANCH  23  30
ENDBRANCH  18  23
ENDBRANCH   1  18
TORSDOF 7
ENDMDL
MODEL 7
REMARK VINA RESULT:      -8.1      3.026      9.114
REMARK  Name = 
REMARK  9 active torsions:
REMARK  status: ('A' for Active; 'I' for Inactive)
REMARK    1  A    between atoms: C_1  and  C_2
REMARK    2  A    between atoms: C_7  and  C_8
REMARK    3  A    between atoms: C_8  and  N_9
REMARK    4  A    between atoms: N_9  and  C_10
REMARK    5  A    between atoms: N_9  and  S_26
REMARK    6  A    between atoms: C_13  and  C_14
REMARK    7  A    between atoms: N_16  and  C_17
REMARK    8  A    between atoms: C_17  and  C_18
REMARK    9  A    between atoms: S_26  and  C_27
REMARK                            x       y       z     vdW  Elec       q    Type
REMARK                         _______ _______ _______ _____ _____    ______ ____
ROOT
ATOM      1  C   UNL     1       1.059  10.432  19.171  0.00  0.00    +0.000 A 
ATOM      2  C   UNL     1       1.680  10.188  17.942  0.00  0.00    +0.000 A 
ATOM      3  C   UNL     1       2.277   8.932  17.685  0.00  0.00    +0.000 A 
ATOM      4  C   UNL     1       2.246   7.914  18.650  0.00  0.00    +0.000 A 
ATOM      5  C   UNL     1       1.709   8.196  19.910  0.00  0.00    +0.000 A 
ATOM      6  C   UNL     1       1.113   9.438  20.159  0.00  0.00    +0.000 A 
ENDROOT
BRANCH   4   7
ATOM      7  C   UNL     1       2.714   6.515  18.398  0.00  0.00    +0.000 C 
ATOM      8  O   UNL     1       3.890   6.218  18.587  0.00  0.00    +0.000 OA
ATOM      9  N   UNL     1       1.755   5.598  18.022  0.00  0.00    +0.000 N 
ATOM     10  H   UNL     1       0.777   5.842  18.093  0.00  0.00    +0.000 HD
BRANCH   9  11
ATOM     11  C   UNL     1       2.061   4.182  17.879  0.00  0.00    +0.000 C 
BRANCH  11  12
ATOM     12  C   UNL     1       2.228   3.449  19.196  0.00  0.00    +0.000 A 
ATOM     13  C   UNL     1       1.176   3.394  20.109  0.00  0.00    +0.000 A 
ATOM     14  C   UNL     1       1.376   2.777  21.343  0.00  0.00    +0.000 A 
ATOM     15  C   UNL     1       2.612   2.210  21.627  0.00  0.00    +0.000 A 
ATOM     16  C   UNL     1       3.604   2.300  20.666  0.00  0.00    +0.000 A 
ATOM     17  N   UNL     1       3.442   2.895  19.462  0.00  0.00    +0.000 NA
ENDBRANCH  11  12
ENDBRANCH   9  11
ENDBRANCH   4   7
BRANCH   1  18
ATOM     18  N   UNL     1       0.044  11.447  19.356  0.00  0.00    +0.000 N 
BRANCH  18  19
ATOM     19  S   UNL     1       0.568  12.665  20.498  0.00  0.00    +0.000 S 
ATOM     20  C   UNL     1      -0.383  14.035  19.896  0.00  0.00    +0.000 C 
ATOM     21  O   UNL     1       0.070  12.317  21.814  0.00  0.00    +0.000 OA
ATOM     22  O   UNL     1       1.963  12.998  20.293  0.00  0.00    +0.000 OA
ENDBRANCH  18  19
BRANCH  18  23
ATOM     23  C   UNL     1      -1.418  11.174  19.497  0.00  0.00    +0.000 C 
BRANCH  23  30
ATOM     24  C   UNL     1      -4.135  12.399  19.575  0.00  0.00    +0.000 C 
ATOM     25  C   UNL     1      -3.657  11.616  18.377  0.00  0.00    +0.000 A 
ATOM     26  C   UNL     1      -4.552  11.446  17.308  0.00  0.00    +0.000 A 
ATOM     27  C   UNL     1      -4.125  10.880  16.114  0.00  0.00    +0.000 A 
ATOM     28  C   UNL     1      -2.793  10.504  15.969  0.00  0.00    +0.000 A 
ATOM     29  C   UNL     1      -1.906  10.608  17.048  0.00  0.00    +0.000 A 
ATOM     30  C   UNL     1      -2.336  11.096  18.287  0.00  0.00    +0.000 A 
ENDBRANCH  23  30
ENDBRANCH  18  23
ENDBRANCH   1  18
TORSDOF 7
ENDMDL
MODEL 8
REMARK VINA RESULT:      -8.1      2.122      3.029
REMARK  Name = 
REMARK  9 active torsions:
REMARK  status: ('A' for Active; 'I' for Inactive)
REMARK    1  A    between atoms: C_1  and  C_2
REMARK    2  A    between atoms: C_7  and  C_8
REMARK    3  A    between atoms: C_8  and  N_9
REMARK    4  A    between atoms: N_9  and  C_10
REMARK    5  A    between atoms: N_9  and  S_26
REMARK    6  A    between atoms: C_13  and  C_14
REMARK    7  A    between atoms: N_16  and  C_17
REMARK    8  A    between atoms: C_17  and  C_18
REMARK    9  A    between atoms: S_26  and  C_27
REMARK                            x       y       z     vdW  Elec       q    Type
REMARK                         _______ _______ _______ _____ _____    ______ ____
ROOT
ATOM      1  C   UNL     1       2.524   6.548  18.940  0.00  0.00    +0.000 A 
ATOM      2  C   UNL     1       2.104   6.855  20.238  0.00  0.00    +0.000 A 
ATOM      3  C   UNL     1       1.501   8.104  20.513  0.00  0.00    +0.000 A 
ATOM      4  C   UNL     1       1.308   9.046  19.490  0.00  0.00    +0.000 A 
ATOM      5  C   UNL     1       1.816   8.771  18.217  0.00  0.00    +0.000 A 
ATOM      6  C   UNL     1       2.407   7.531  17.947  0.00  0.00    +0.000 A 
ENDROOT
BRANCH   4   7
ATOM      7  C   UNL     1       0.541  10.319  19.667  0.00  0.00    +0.000 C 
ATOM      8  O   UNL     1       0.286  10.729  20.795  0.00  0.00    +0.000 OA
ATOM      9  N   UNL     1       0.217  11.012  18.520  0.00  0.00    +0.000 N 
ATOM     10  H   UNL     1       0.637  10.744  17.640  0.00  0.00    +0.000 HD
BRANCH   9  11
ATOM     11  C   UNL     1      -0.408  12.325  18.568  0.00  0.00    +0.000 C 
BRANCH  11  12
ATOM     12  C   UNL     1       0.578  13.478  18.591  0.00  0.00    +0.000 A 
ATOM     13  C   UNL     1       0.164  14.751  18.979  0.00  0.00    +0.000 A 
ATOM     14  C   UNL     1       1.070  15.809  18.923  0.00  0.00    +0.000 A 
ATOM     15  C   UNL     1       2.371  15.568  18.504  0.00  0.00    +0.000 A 
ATOM     16  C   UNL     1       2.708  14.275  18.142  0.00  0.00    +0.000 A 
ATOM     17  N   UNL     1       1.852  13.229  18.182  0.00  0.00    +0.000 NA
ENDBRANCH  11  12
ENDBRANCH   9  11
ENDBRANCH   4   7
BRANCH   1  18
ATOM     18  N   UNL     1       2.695   5.192  18.464  0.00  0.00    +0.000 N 
BRANCH  18  19
ATOM     19  S   UNL     1       2.066   4.033  19.615  0.00  0.00    +0.000 S 
ATOM     20  C   UNL     1       1.954   2.620  18.549  0.00  0.00    +0.000 C 
ATOM     21  O   UNL     1       3.084   3.765  20.611  0.00  0.00    +0.000 OA
ATOM     22  O   UNL     1       0.713   4.375  20.003  0.00  0.00    +0.000 OA
ENDBRANCH  18  19
BRANCH  18  23
ATOM     23  C   UNL     1       3.929   4.671  17.800  0.00  0.00    +0.000 C 
BRANCH  23  30
ATOM     24  C   UNL     1       5.121   6.556  15.821  0.00  0.00    +0.000 C 
ATOM     25  C   UNL     1       5.876   6.124  17.054  0.00  0.00    +0.000 A 
ATOM     26  C   UNL     1       7.184   6.609  17.222  0.00  0.00    +0.000 A 
ATOM     27  C   UNL     1       7.873   6.384  18.407  0.00  0.00    +0.000 A 
ATOM     28  C   UNL     1       7.249   5.697  19.444  0.00  0.00    +0.000 A 
ATOM     29  C   UNL     1       5.972   5.152  19.267  0.00  0.00    +0.000 A 
ATOM     30  C   UNL     1       5.294   5.293  18.051  0.00  0.00    +0.000 A 
ENDBRANCH  23  30
ENDBRANCH  18  23
ENDBRANCH   1  18
TORSDOF 7
ENDMDL
MODEL 9
REMARK VINA RESULT:      -8.1      1.276      1.845
REMARK  Name = 
REMARK  9 active torsions:
REMARK  status: ('A' for Active; 'I' for Inactive)
REMARK    1  A    between atoms: C_1  and  C_2
REMARK    2  A    between atoms: C_7  and  C_8
REMARK    3  A    between atoms: C_8  and  N_9
REMARK    4  A    between atoms: N_9  and  C_10
REMARK    5  A    between atoms: N_9  and  S_26
REMARK    6  A    between atoms: C_13  and  C_14
REMARK    7  A    between atoms: N_16  and  C_17
REMARK    8  A    between atoms: C_17  and  C_18
REMARK    9  A    between atoms: S_26  and  C_27
REMARK                            x       y       z     vdW  Elec       q    Type
REMARK                         _______ _______ _______ _____ _____    ______ ____
ROOT
ATOM      1  C   UNL     1       2.734   5.887  19.039  0.00  0.00    +0.000 A 
ATOM      2  C   UNL     1       2.211   6.363  20.246  0.00  0.00    +0.000 A 
ATOM      3  C   UNL     1       1.686   7.673  20.325  0.00  0.00    +0.000 A 
ATOM      4  C   UNL     1       1.674   8.509  19.197  0.00  0.00    +0.000 A 
ATOM      5  C   UNL     1       2.286   8.063  18.022  0.00  0.00    +0.000 A 
ATOM      6  C   UNL     1       2.799   6.762  17.945  0.00  0.00    +0.000 A 
ENDROOT
BRANCH   4   7
ATOM      7  C   UNL     1       0.999   9.844  19.159  0.00  0.00    +0.000 C 
ATOM      8  O   UNL     1       1.571  10.807  18.657  0.00  0.00    +0.000 OA
ATOM      9  N   UNL     1      -0.291   9.900  19.643  0.00  0.00    +0.000 N 
ATOM     10  H   UNL     1      -0.787   9.043  19.841  0.00  0.00    +0.000 HD
BRANCH   9  11
ATOM     11  C   UNL     1      -1.098  11.107  19.537  0.00  0.00    +0.000 C 
BRANCH  11  12
ATOM     12  C   UNL     1      -2.202  11.024  18.501  0.00  0.00    +0.000 A 
ATOM     13  C   UNL     1      -2.033  10.253  17.352  0.00  0.00    +0.000 A 
ATOM     14  C   UNL     1      -3.032  10.249  16.380  0.00  0.00    +0.000 A 
ATOM     15  C   UNL     1      -4.184  10.996  16.587  0.00  0.00    +0.000 A 
ATOM     16  C   UNL     1      -4.281  11.730  17.757  0.00  0.00    +0.000 A 
ATOM     17  N   UNL     1      -3.328  11.757  18.717  0.00  0.00    +0.000 NA
ENDBRANCH  11  12
ENDBRANCH   9  11
ENDBRANCH   4   7
BRANCH   1  18
ATOM     18  N   UNL     1       2.843   4.479  18.725  0.00  0.00    +0.000 N 
BRANCH  18  19
ATOM     19  S   UNL     1       1.713   3.531  19.667  0.00  0.00    +0.000 S 
ATOM     20  C   UNL     1       2.806   3.007  20.962  0.00  0.00    +0.000 C 
ATOM     21  O   UNL     1       0.727   4.421  20.246  0.00  0.00    +0.000 OA
ATOM     22  O   UNL     1       1.313   2.340  18.946  0.00  0.00    +0.000 OA
ENDBRANCH  18  19
BRANCH  18  23
ATOM     23  C   UNL     1       4.131   3.745  18.537  0.00  0.00    +0.000 C 
BRANCH  23  30
ATOM     24  C   UNL     1       6.473   5.432  19.285  0.00  0.00    +0.000 C 
ATOM     25  C   UNL     1       6.208   5.042  17.852  0.00  0.00    +0.000 A 
ATOM     26  C   UNL     1       7.082   5.534  16.869  0.00  0.00    +0.000 A 
ATOM     27  C   UNL     1       6.993   5.085  15.557  0.00  0.00    +0.000 A 
ATOM     28  C   UNL     1       6.049   4.119  15.225  0.00  0.00    +0.000 A 
ATOM     29  C   UNL     1       5.130   3.667  16.179  0.00  0.00    +0.000 A 
ATOM     30  C   UNL     1       5.146   4.170  17.486  0.00  0.00    +0.000 A 
ENDBRANCH  23  30
ENDBRANCH  18  23
ENDBRANCH   1  18
TORSDOF 7
ENDMDL
