MODEL 1
REMARK VINA RESULT:      -7.6      0.000      0.000
REMARK  Name = 
REMARK  7 active torsions:
REMARK  status: ('A' for Active; 'I' for Inactive)
REMARK    1  A    between atoms: C_1  and  C_2
REMARK    2  A    between atoms: C_2  and  C_3
REMARK    3  A    between atoms: C_2  and  C_4
REMARK    4  A    between atoms: N_15  and  C_16
REMARK    5  A    between atoms: C_16  and  C_17
REMARK    6  A    between atoms: C_16  and  C_18
REMARK    7  A    between atoms: C_21  and  N_22
REMARK                            x       y       z     vdW  Elec       q    Type
REMARK                         _______ _______ _______ _____ _____    ______ ____
ROOT
ATOM      1  C   UNL     1       3.975   5.610  17.327  0.00  0.00    +0.000 C 
ATOM      2  C   UNL     1       4.127   4.229  16.697  0.00  0.00    +0.000 C 
ATOM      3  O   UNL     1       2.905   3.541  16.976  0.00  0.00    +0.000 OA
ATOM      4  C   UNL     1       2.267   4.197  17.994  0.00  0.00    +0.000 C 
ATOM      5  O   UNL     1       1.259   3.760  18.527  0.00  0.00    +0.000 OA
ATOM      6  N   UNL     1       2.917   5.383  18.264  0.00  0.00    +0.000 N 
ATOM      7  C   UNL     1       2.343   6.383  19.066  0.00  0.00    +0.000 A 
ATOM      8  C   UNL     1       2.012   6.045  20.360  0.00  0.00    +0.000 A 
ATOM      9  C   UNL     1       1.542   7.065  21.140  0.00  0.00    +0.000 A 
ATOM     10  N   UNL     1       1.334   8.305  20.677  0.00  0.00    +0.000 NA
ATOM     11  C   UNL     1       1.628   8.542  19.392  0.00  0.00    +0.000 A 
ATOM     12  N   UNL     1       1.357   9.788  18.848  0.00  0.00    +0.000 N 
ATOM     13  N   UNL     1       2.200   7.635  18.580  0.00  0.00    +0.000 NA
ATOM     14  H   UNL     1       1.317   9.679  17.843  0.00  0.00    +0.000 HD
ENDROOT
BRANCH   1  16
ATOM     15  C   UNL     1       5.900   5.195  19.008  0.00  0.00    +0.000 C 
ATOM     16  C   UNL     1       5.278   6.150  17.975  0.00  0.00    +0.000 C 
ATOM     17  C   UNL     1       6.326   6.512  16.920  0.00  0.00    +0.000 C 
ENDBRANCH   1  16
BRANCH  12  18
ATOM     18  C   UNL     1       0.275  10.567  19.450  0.00  0.00    +0.000 C 
ATOM     19  C   UNL     1       0.805  11.972  19.764  0.00  0.00    +0.000 C 
BRANCH  18  20
ATOM     20  C   UNL     1      -0.948  10.637  18.546  0.00  0.00    +0.000 A 
ATOM     21  C   UNL     1      -1.988  11.534  18.834  0.00  0.00    +0.000 A 
ATOM     22  C   UNL     1      -3.122  11.618  18.014  0.00  0.00    +0.000 A 
ATOM     23  C   UNL     1      -3.232  10.840  16.862  0.00  0.00    +0.000 A 
ATOM     24  C   UNL     1      -2.221   9.912  16.596  0.00  0.00    +0.000 A 
ATOM     25  C   UNL     1      -1.085   9.824  17.411  0.00  0.00    +0.000 A 
BRANCH  23  26
ATOM     26  N   UNL     1      -4.425  10.820  16.131  0.00  0.00    +0.000 N 
ATOM     27  H   UNL     1      -4.796   9.888  15.973  0.00  0.00    +0.000 HD
ATOM     28  H   UNL     1      -5.128  11.466  16.471  0.00  0.00    +0.000 HD
ENDBRANCH  23  26
ENDBRANCH  18  20
ENDBRANCH  12  18
TORSDOF 4
ENDMDL
MODEL 2
REMARK VINA RESULT:      -7.6      3.213      7.920
REMARK  Name = 
REMARK  7 active torsions:
REMARK  status: ('A' for Active; 'I' for Inactive)
REMARK    1  A    between atoms: C_1  and  C_2
REMARK    2  A    between atoms: C_2  and  C_3
REMARK    3  A    between atoms: C_2  and  C_4
REMARK    4  A    between atoms: N_15  and  C_16
REMARK    5  A    between atoms: C_16  and  C_17
REMARK    6  A    between atoms: C_16  and  C_18
REMARK    7  A    between atoms: C_21  and  N_22
REMARK                            x       y       z     vdW  Elec       q    Type
REMARK                         _______ _______ _______ _____ _____    ______ ____
ROOT
ATOM      1  C   UNL     1      -0.381  11.591  18.528  0.00  0.00    +0.000 C 
ATOM      2  C   UNL     1      -0.531  13.109  18.512  0.00  0.00    +0.000 C 
ATOM      3  O   UNL     1       0.486  13.607  19.384  0.00  0.00    +0.000 OA
ATOM      4  C   UNL     1       0.916  12.574  20.173  0.00  0.00    +0.000 C 
ATOM      5  O   UNL     1       1.694  12.736  21.101  0.00  0.00    +0.000 OA
ATOM      6  N   UNL     1       0.367  11.389  19.732  0.00  0.00    +0.000 N 
ATOM      7  C   UNL     1       0.833  10.139  20.173  0.00  0.00    +0.000 A 
ATOM      8  C   UNL     1       0.779   9.885  21.526  0.00  0.00    +0.000 A 
ATOM      9  C   UNL     1       1.152   8.628  21.911  0.00  0.00    +0.000 A 
ATOM     10  N   UNL     1       1.620   7.708  21.055  0.00  0.00    +0.000 NA
ATOM     11  C   UNL     1       1.695   8.050  19.762  0.00  0.00    +0.000 A 
ATOM     12  N   UNL     1       2.244   7.161  18.851  0.00  0.00    +0.000 N 
ATOM     13  N   UNL     1       1.244   9.220  19.274  0.00  0.00    +0.000 NA
ATOM     14  H   UNL     1       2.526   7.693  18.038  0.00  0.00    +0.000 HD
ENDROOT
BRANCH   1  16
ATOM     15  C   UNL     1      -2.964  11.736  18.644  0.00  0.00    +0.000 C 
ATOM     16  C   UNL     1      -1.732  10.827  18.496  0.00  0.00    +0.000 C 
ATOM     17  C   UNL     1      -1.872   9.981  17.228  0.00  0.00    +0.000 C 
ENDBRANCH   1  16
BRANCH  12  18
ATOM     18  C   UNL     1       3.221   6.196  19.355  0.00  0.00    +0.000 C 
ATOM     19  C   UNL     1       2.496   4.875  19.641  0.00  0.00    +0.000 C 
BRANCH  18  20
ATOM     20  C   UNL     1       4.370   5.985  18.378  0.00  0.00    +0.000 A 
ATOM     21  C   UNL     1       4.353   6.611  17.122  0.00  0.00    +0.000 A 
ATOM     22  C   UNL     1       5.401   6.433  16.208  0.00  0.00    +0.000 A 
ATOM     23  C   UNL     1       6.514   5.661  16.538  0.00  0.00    +0.000 A 
ATOM     24  C   UNL     1       6.515   4.998  17.768  0.00  0.00    +0.000 A 
ATOM     25  C   UNL     1       5.471   5.173  18.686  0.00  0.00    +0.000 A 
BRANCH  23  26
ATOM     26  N   UNL     1       7.484   5.367  15.572  0.00  0.00    +0.000 N 
ATOM     27  H   UNL     1       7.347   4.475  15.108  0.00  0.00    +0.000 HD
ATOM     28  H   UNL     1       7.659   6.123  14.919  0.00  0.00    +0.000 HD
ENDBRANCH  23  26
ENDBRANCH  18  20
ENDBRANCH  12  18
TORSDOF 4
ENDMDL
MODEL 3
REMARK VINA RESULT:      -7.6      0.703      1.188
REMARK  Name = 
REMARK  7 active torsions:
REMARK  status: ('A' for Active; 'I' for Inactive)
REMARK    1  A    between atoms: C_1  and  C_2
REMARK    2  A    between atoms: C_2  and  C_3
REMARK    3  A    between atoms: C_2  and  C_4
REMARK    4  A    between atoms: N_15  and  C_16
REMARK    5  A    between atoms: C_16  and  C_17
REMARK    6  A    between atoms: C_16  and  C_18
REMARK    7  A    between atoms: C_21  and  N_22
REMARK                            x       y       z     vdW  Elec       q    Type
REMARK                         _______ _______ _______ _____ _____    ______ ____
ROOT
ATOM      1  C   UNL     1       4.550   5.802  17.256  0.00  0.00    +0.000 C 
ATOM      2  C   UNL     1       4.883   4.585  16.399  0.00  0.00    +0.000 C 
ATOM      3  O   UNL     1       3.718   3.757  16.434  0.00  0.00    +0.000 OA
ATOM      4  C   UNL     1       2.944   4.152  17.492  0.00  0.00    +0.000 C 
ATOM      5  O   UNL     1       1.947   3.539  17.841  0.00  0.00    +0.000 OA
ATOM      6  N   UNL     1       3.452   5.314  18.033  0.00  0.00    +0.000 N 
ATOM      7  C   UNL     1       2.723   6.092  18.949  0.00  0.00    +0.000 A 
ATOM      8  C   UNL     1       2.331   5.487  20.123  0.00  0.00    +0.000 A 
ATOM      9  C   UNL     1       1.706   6.297  21.030  0.00  0.00    +0.000 A 
ATOM     10  N   UNL     1       1.411   7.581  20.785  0.00  0.00    +0.000 NA
ATOM     11  C   UNL     1       1.776   8.083  19.597  0.00  0.00    +0.000 A 
ATOM     12  N   UNL     1       1.425   9.382  19.267  0.00  0.00    +0.000 N 
ATOM     13  N   UNL     1       2.494   7.398  18.689  0.00  0.00    +0.000 NA
ATOM     14  H   UNL     1       1.472   9.464  18.260  0.00  0.00    +0.000 HD
ENDROOT
BRANCH   1  16
ATOM     15  C   UNL     1       6.329   5.255  19.055  0.00  0.00    +0.000 C 
ATOM     16  C   UNL     1       5.740   6.315  18.109  0.00  0.00    +0.000 C 
ATOM     17  C   UNL     1       6.856   6.892  17.233  0.00  0.00    +0.000 C 
ENDBRANCH   1  16
BRANCH  12  18
ATOM     18  C   UNL     1       0.230   9.939  19.900  0.00  0.00    +0.000 C 
ATOM     19  C   UNL     1       0.650  11.138  20.760  0.00  0.00    +0.000 C 
BRANCH  18  20
ATOM     20  C   UNL     1      -0.820  10.348  18.875  0.00  0.00    +0.000 A 
ATOM     21  C   UNL     1      -0.950   9.633  17.675  0.00  0.00    +0.000 A 
ATOM     22  C   UNL     1      -1.912   9.989  16.719  0.00  0.00    +0.000 A 
ATOM     23  C   UNL     1      -2.796  11.041  16.951  0.00  0.00    +0.000 A 
ATOM     24  C   UNL     1      -2.640  11.786  18.123  0.00  0.00    +0.000 A 
ATOM     25  C   UNL     1      -1.682  11.434  19.083  0.00  0.00    +0.000 A 
BRANCH  23  26
ATOM     26  N   UNL     1      -3.652  11.485  15.937  0.00  0.00    +0.000 N 
ATOM     27  H   UNL     1      -3.789  10.813  15.189  0.00  0.00    +0.000 HD
ATOM     28  H   UNL     1      -4.525  11.875  16.274  0.00  0.00    +0.000 HD
ENDBRANCH  23  26
ENDBRANCH  18  20
ENDBRANCH  12  18
TORSDOF 4
ENDMDL
MODEL 4
REMARK VINA RESULT:      -7.4      1.084      1.225
REMARK  Name = 
REMARK  7 active torsions:
REMARK  status: ('A' for Active; 'I' for Inactive)
REMARK    1  A    between atoms: C_1  and  C_2
REMARK    2  A    between atoms: C_2  and  C_3
REMARK    3  A    between atoms: C_2  and  C_4
REMARK    4  A    between atoms: N_15  and  C_16
REMARK    5  A    between atoms: C_16  and  C_17
REMARK    6  A    between atoms: C_16  and  C_18
REMARK    7  A    between atoms: C_21  and  N_22
REMARK                            x       y       z     vdW  Elec       q    Type
REMARK                         _______ _______ _______ _____ _____    ______ ____
ROOT
ATOM      1  C   UNL     1       5.039   6.078  17.106  0.00  0.00    +0.000 C 
ATOM      2  C   UNL     1       5.502   5.010  16.120  0.00  0.00    +0.000 C 
ATOM      3  O   UNL     1       4.405   4.103  15.989  0.00  0.00    +0.000 OA
ATOM      4  C   UNL     1       3.558   4.300  17.047  0.00  0.00    +0.000 C 
ATOM      5  O   UNL     1       2.598   3.577  17.263  0.00  0.00    +0.000 OA
ATOM      6  N   UNL     1       3.951   5.415  17.757  0.00  0.00    +0.000 N 
ATOM      7  C   UNL     1       3.125   6.012  18.725  0.00  0.00    +0.000 A 
ATOM      8  C   UNL     1       2.732   5.233  19.790  0.00  0.00    +0.000 A 
ATOM      9  C   UNL     1       2.009   5.870  20.759  0.00  0.00    +0.000 A 
ATOM     10  N   UNL     1       1.626   7.151  20.665  0.00  0.00    +0.000 NA
ATOM     11  C   UNL     1       2.000   7.828  19.571  0.00  0.00    +0.000 A 
ATOM     12  N   UNL     1       1.564   9.131  19.391  0.00  0.00    +0.000 N 
ATOM     13  N   UNL     1       2.807   7.321  18.622  0.00  0.00    +0.000 NA
ATOM     14  H   UNL     1       1.646   9.347  18.406  0.00  0.00    +0.000 HD
ENDROOT
BRANCH   1  16
ATOM     15  C   UNL     1       6.916   5.414  18.760  0.00  0.00    +0.000 C 
ATOM     16  C   UNL     1       6.149   6.559  18.078  0.00  0.00    +0.000 C 
ATOM     17  C   UNL     1       7.142   7.495  17.383  0.00  0.00    +0.000 C 
ENDBRANCH   1  16
BRANCH  12  18
ATOM     18  C   UNL     1       0.303   9.514  20.026  0.00  0.00    +0.000 C 
ATOM     19  C   UNL     1       0.610  10.507  21.155  0.00  0.00    +0.000 C 
BRANCH  18  20
ATOM     20  C   UNL     1      -0.680  10.112  19.029  0.00  0.00    +0.000 A 
ATOM     21  C   UNL     1      -1.361  11.300  19.334  0.00  0.00    +0.000 A 
ATOM     22  C   UNL     1      -2.268  11.870  18.430  0.00  0.00    +0.000 A 
ATOM     23  C   UNL     1      -2.488  11.295  17.179  0.00  0.00    +0.000 A 
ATOM     24  C   UNL     1      -1.848  10.088  16.888  0.00  0.00    +0.000 A 
ATOM     25  C   UNL     1      -0.940   9.513  17.787  0.00  0.00    +0.000 A 
BRANCH  23  26
ATOM     26  N   UNL     1      -3.498  11.783  16.342  0.00  0.00    +0.000 N 
ATOM     27  H   UNL     1      -4.271  12.215  16.838  0.00  0.00    +0.000 HD
ATOM     28  H   UNL     1      -3.160  12.355  15.576  0.00  0.00    +0.000 HD
ENDBRANCH  23  26
ENDBRANCH  18  20
ENDBRANCH  12  18
TORSDOF 4
ENDMDL
MODEL 5
REMARK VINA RESULT:      -7.1      2.756      4.140
REMARK  Name = 
REMARK  7 active torsions:
REMARK  status: ('A' for Active; 'I' for Inactive)
REMARK    1  A    between atoms: C_1  and  C_2
REMARK    2  A    between atoms: C_2  and  C_3
REMARK    3  A    between atoms: C_2  and  C_4
REMARK    4  A    between atoms: N_15  and  C_16
REMARK    5  A    between atoms: C_16  and  C_17
REMARK    6  A    between atoms: C_16  and  C_18
REMARK    7  A    between atoms: C_21  and  N_22
REMARK                            x       y       z     vdW  Elec       q    Type
REMARK                         _______ _______ _______ _____ _____    ______ ____
ROOT
ATOM      1  C   UNL     1       2.990   3.534  19.575  0.00  0.00    +0.000 C 
ATOM      2  C   UNL     1       3.960   2.395  19.873  0.00  0.00    +0.000 C 
ATOM      3  O   UNL     1       5.242   3.009  20.026  0.00  0.00    +0.000 OA
ATOM      4  C   UNL     1       5.185   4.261  19.473  0.00  0.00    +0.000 C 
ATOM      5  O   UNL     1       6.173   4.968  19.347  0.00  0.00    +0.000 OA
ATOM      6  N   UNL     1       3.883   4.564  19.138  0.00  0.00    +0.000 N 
ATOM      7  C   UNL     1       3.482   5.869  18.804  0.00  0.00    +0.000 A 
ATOM      8  C   UNL     1       4.103   6.466  17.729  0.00  0.00    +0.000 A 
ATOM      9  C   UNL     1       3.625   7.696  17.374  0.00  0.00    +0.000 A 
ATOM     10  N   UNL     1       2.668   8.337  18.060  0.00  0.00    +0.000 NA
ATOM     11  C   UNL     1       2.152   7.714  19.128  0.00  0.00    +0.000 A 
ATOM     12  N   UNL     1       1.216   8.367  19.914  0.00  0.00    +0.000 N 
ATOM     13  N   UNL     1       2.476   6.458  19.485  0.00  0.00    +0.000 NA
ATOM     14  H   UNL     1       1.205   7.911  20.817  0.00  0.00    +0.000 HD
ENDROOT
BRANCH   1  16
ATOM     15  C   UNL     1       2.394   2.249  17.407  0.00  0.00    +0.000 C 
ATOM     16  C   UNL     1       1.897   3.171  18.534  0.00  0.00    +0.000 C 
ATOM     17  C   UNL     1       0.669   2.546  19.199  0.00  0.00    +0.000 C 
ENDBRANCH   1  16
BRANCH  12  18
ATOM     18  C   UNL     1       1.257   9.829  19.937  0.00  0.00    +0.000 C 
ATOM     19  C   UNL     1       1.002  10.344  18.514  0.00  0.00    +0.000 C 
BRANCH  18  20
ATOM     20  C   UNL     1       0.246  10.413  20.915  0.00  0.00    +0.000 A 
ATOM     21  C   UNL     1       0.051   9.815  22.169  0.00  0.00    +0.000 A 
ATOM     22  C   UNL     1      -0.872  10.337  23.086  0.00  0.00    +0.000 A 
ATOM     23  C   UNL     1      -1.594  11.493  22.795  0.00  0.00    +0.000 A 
ATOM     24  C   UNL     1      -1.438  12.066  21.530  0.00  0.00    +0.000 A 
ATOM     25  C   UNL     1      -0.517  11.549  20.609  0.00  0.00    +0.000 A 
BRANCH  23  26
ATOM     26  N   UNL     1      -2.616  11.924  23.648  0.00  0.00    +0.000 N 
ATOM     27  H   UNL     1      -3.001  11.191  24.235  0.00  0.00    +0.000 HD
ATOM     28  H   UNL     1      -2.391  12.762  24.172  0.00  0.00    +0.000 HD
ENDBRANCH  23  26
ENDBRANCH  18  20
ENDBRANCH  12  18
TORSDOF 4
ENDMDL
MODEL 6
REMARK VINA RESULT:      -6.9      2.705      4.070
REMARK  Name = 
REMARK  7 active torsions:
REMARK  status: ('A' for Active; 'I' for Inactive)
REMARK    1  A    between atoms: C_1  and  C_2
REMARK    2  A    between atoms: C_2  and  C_3
REMARK    3  A    between atoms: C_2  and  C_4
REMARK    4  A    between atoms: N_15  and  C_16
REMARK    5  A    between atoms: C_16  and  C_17
REMARK    6  A    between atoms: C_16  and  C_18
REMARK    7  A    between atoms: C_21  and  N_22
REMARK                            x       y       z     vdW  Elec       q    Type
REMARK                         _______ _______ _______ _____ _____    ______ ____
ROOT
ATOM      1  C   UNL     1       3.133   3.909  19.672  0.00  0.00    +0.000 C 
ATOM      2  C   UNL     1       4.200   2.845  19.907  0.00  0.00    +0.000 C 
ATOM      3  O   UNL     1       5.447   3.544  19.911  0.00  0.00    +0.000 OA
ATOM      4  C   UNL     1       5.254   4.768  19.329  0.00  0.00    +0.000 C 
ATOM      5  O   UNL     1       6.175   5.531  19.083  0.00  0.00    +0.000 OA
ATOM      6  N   UNL     1       3.908   4.976  19.117  0.00  0.00    +0.000 N 
ATOM      7  C   UNL     1       3.391   6.240  18.785  0.00  0.00    +0.000 A 
ATOM      8  C   UNL     1       3.862   6.835  17.636  0.00  0.00    +0.000 A 
ATOM      9  C   UNL     1       3.271   8.019  17.293  0.00  0.00    +0.000 A 
ATOM     10  N   UNL     1       2.345   8.623  18.052  0.00  0.00    +0.000 NA
ATOM     11  C   UNL     1       1.979   8.008  19.184  0.00  0.00    +0.000 A 
ATOM     12  N   UNL     1       1.083   8.630  20.040  0.00  0.00    +0.000 N 
ATOM     13  N   UNL     1       2.419   6.790  19.545  0.00  0.00    +0.000 NA
ATOM     14  H   UNL     1       1.191   8.208  20.953  0.00  0.00    +0.000 HD
ENDROOT
BRANCH   1  16
ATOM     15  C   UNL     1       2.401   2.450  17.662  0.00  0.00    +0.000 C 
ATOM     16  C   UNL     1       1.970   3.440  18.757  0.00  0.00    +0.000 C 
ATOM     17  C   UNL     1       0.822   2.833  19.568  0.00  0.00    +0.000 C 
ENDBRANCH   1  16
BRANCH  12  18
ATOM     18  C   UNL     1       1.029  10.091  20.014  0.00  0.00    +0.000 C 
ATOM     19  C   UNL     1       0.697  10.539  18.584  0.00  0.00    +0.000 C 
BRANCH  18  20
ATOM     20  C   UNL     1       0.012  10.642  21.005  0.00  0.00    +0.000 A 
ATOM     21  C   UNL     1      -0.817  11.715  20.644  0.00  0.00    +0.000 A 
ATOM     22  C   UNL     1      -1.761  12.235  21.540  0.00  0.00    +0.000 A 
ATOM     23  C   UNL     1      -1.934  11.674  22.804  0.00  0.00    +0.000 A 
ATOM     24  C   UNL     1      -1.080  10.636  23.186  0.00  0.00    +0.000 A 
ATOM     25  C   UNL     1      -0.134  10.110  22.295  0.00  0.00    +0.000 A 
BRANCH  23  26
ATOM     26  N   UNL     1      -2.771  12.287  23.744  0.00  0.00    +0.000 N 
ATOM     27  H   UNL     1      -3.528  11.694  24.070  0.00  0.00    +0.000 HD
ATOM     28  H   UNL     1      -2.276  12.740  24.504  0.00  0.00    +0.000 HD
ENDBRANCH  23  26
ENDBRANCH  18  20
ENDBRANCH  12  18
TORSDOF 4
ENDMDL
MODEL 7
REMARK VINA RESULT:      -6.7      1.553      2.127
REMARK  Name = 
REMARK  7 active torsions:
REMARK  status: ('A' for Active; 'I' for Inactive)
REMARK    1  A    between atoms: C_1  and  C_2
REMARK    2  A    between atoms: C_2  and  C_3
REMARK    3  A    between atoms: C_2  and  C_4
REMARK    4  A    between atoms: N_15  and  C_16
REMARK    5  A    between atoms: C_16  and  C_17
REMARK    6  A    between atoms: C_16  and  C_18
REMARK    7  A    between atoms: C_21  and  N_22
REMARK                            x       y       z     vdW  Elec       q    Type
REMARK                         _______ _______ _______ _____ _____    ______ ____
ROOT
ATOM      1  C   UNL     1       5.121   5.398  16.975  0.00  0.00    +0.000 C 
ATOM      2  C   UNL     1       5.432   4.483  15.795  0.00  0.00    +0.000 C 
ATOM      3  O   UNL     1       4.261   3.686  15.605  0.00  0.00    +0.000 OA
ATOM      4  C   UNL     1       3.505   3.757  16.745  0.00  0.00    +0.000 C 
ATOM      5  O   UNL     1       2.508   3.072  16.915  0.00  0.00    +0.000 OA
ATOM      6  N   UNL     1       4.030   4.708  17.594  0.00  0.00    +0.000 N 
ATOM      7  C   UNL     1       3.321   5.187  18.708  0.00  0.00    +0.000 A 
ATOM      8  C   UNL     1       2.941   4.267  19.660  0.00  0.00    +0.000 A 
ATOM      9  C   UNL     1       2.336   4.778  20.774  0.00  0.00    +0.000 A 
ATOM     10  N   UNL     1       2.049   6.079  20.920  0.00  0.00    +0.000 NA
ATOM     11  C   UNL     1       2.401   6.904  19.925  0.00  0.00    +0.000 A 
ATOM     12  N   UNL     1       2.056   8.245  19.995  0.00  0.00    +0.000 N 
ATOM     13  N   UNL     1       3.100   6.512  18.845  0.00  0.00    +0.000 NA
ATOM     14  H   UNL     1       2.088   8.618  19.056  0.00  0.00    +0.000 HD
ENDROOT
BRANCH   1  16
ATOM     15  C   UNL     1       7.421   4.558  17.814  0.00  0.00    +0.000 C 
ATOM     16  C   UNL     1       6.328   5.635  17.921  0.00  0.00    +0.000 C 
ATOM     17  C   UNL     1       6.951   7.017  17.707  0.00  0.00    +0.000 C 
ENDBRANCH   1  16
BRANCH  12  18
ATOM     18  C   UNL     1       0.874   8.597  20.782  0.00  0.00    +0.000 C 
ATOM     19  C   UNL     1       1.340   9.156  22.133  0.00  0.00    +0.000 C 
BRANCH  18  20
ATOM     20  C   UNL     1      -0.016   9.598  20.058  0.00  0.00    +0.000 A 
ATOM     21  C   UNL     1      -0.636  10.636  20.770  0.00  0.00    +0.000 A 
ATOM     22  C   UNL     1      -1.457  11.570  20.123  0.00  0.00    +0.000 A 
ATOM     23  C   UNL     1      -1.649  11.520  18.743  0.00  0.00    +0.000 A 
ATOM     24  C   UNL     1      -1.072  10.462  18.036  0.00  0.00    +0.000 A 
ATOM     25  C   UNL     1      -0.249   9.525  18.677  0.00  0.00    +0.000 A 
BRANCH  23  26
ATOM     26  N   UNL     1      -2.581  12.361  18.125  0.00  0.00    +0.000 N 
ATOM     27  H   UNL     1      -2.177  12.998  17.447  0.00  0.00    +0.000 HD
ATOM     28  H   UNL     1      -3.399  11.879  17.767  0.00  0.00    +0.000 HD
ENDBRANCH  23  26
ENDBRANCH  18  20
ENDBRANCH  12  18
TORSDOF 4
ENDMDL
MODEL 8
REMARK VINA RESULT:      -6.6      3.352      7.859
REMARK  Name = 
REMARK  7 active torsions:
REMARK  status: ('A' for Active; 'I' for Inactive)
REMARK    1  A    between atoms: C_1  and  C_2
REMARK    2  A    between atoms: C_2  and  C_3
REMARK    3  A    between atoms: C_2  and  C_4
REMARK    4  A    between atoms: N_15  and  C_16
REMARK    5  A    between atoms: C_16  and  C_17
REMARK    6  A    between atoms: C_16  and  C_18
REMARK    7  A    between atoms: C_21  and  N_22
REMARK                            x       y       z     vdW  Elec       q    Type
REMARK                         _______ _______ _______ _____ _____    ______ ____
ROOT
ATOM      1  C   UNL     1      -0.007  12.320  18.534  0.00  0.00    +0.000 C 
ATOM      2  C   UNL     1       0.025  13.842  18.637  0.00  0.00    +0.000 C 
ATOM      3  O   UNL     1       1.072  14.144  19.562  0.00  0.00    +0.000 OA
ATOM      4  C   UNL     1       1.356  13.009  20.273  0.00  0.00    +0.000 C 
ATOM      5  O   UNL     1       2.124  13.005  21.222  0.00  0.00    +0.000 OA
ATOM      6  N   UNL     1       0.681  11.937  19.729  0.00  0.00    +0.000 N 
ATOM      7  C   UNL     1       0.985  10.610  20.077  0.00  0.00    +0.000 A 
ATOM      8  C   UNL     1       0.866  10.260  21.404  0.00  0.00    +0.000 A 
ATOM      9  C   UNL     1       1.077   8.941  21.693  0.00  0.00    +0.000 A 
ATOM     10  N   UNL     1       1.454   8.041  20.775  0.00  0.00    +0.000 NA
ATOM     11  C   UNL     1       1.603   8.470  19.514  0.00  0.00    +0.000 A 
ATOM     12  N   UNL     1       2.065   7.594  18.545  0.00  0.00    +0.000 N 
ATOM     13  N   UNL     1       1.307   9.719  19.114  0.00  0.00    +0.000 NA
ATOM     14  H   UNL     1       2.429   8.150  17.781  0.00  0.00    +0.000 HD
ENDROOT
BRANCH   1  16
ATOM     15  C   UNL     1      -1.474  10.300  17.849  0.00  0.00    +0.000 C 
ATOM     16  C   UNL     1      -1.437  11.728  18.419  0.00  0.00    +0.000 C 
ATOM     17  C   UNL     1      -2.171  11.760  19.762  0.00  0.00    +0.000 C 
ENDBRANCH   1  16
BRANCH  12  18
ATOM     18  C   UNL     1       2.908   6.483  18.985  0.00  0.00    +0.000 C 
ATOM     19  C   UNL     1       2.002   5.377  19.541  0.00  0.00    +0.000 C 
BRANCH  18  20
ATOM     20  C   UNL     1       3.786   5.952  17.860  0.00  0.00    +0.000 A 
ATOM     21  C   UNL     1       3.839   4.575  17.596  0.00  0.00    +0.000 A 
ATOM     22  C   UNL     1       4.638   4.064  16.564  0.00  0.00    +0.000 A 
ATOM     23  C   UNL     1       5.373   4.915  15.740  0.00  0.00    +0.000 A 
ATOM     24  C   UNL     1       5.360   6.282  16.027  0.00  0.00    +0.000 A 
ATOM     25  C   UNL     1       4.563   6.800  17.057  0.00  0.00    +0.000 A 
BRANCH  23  26
ATOM     26  N   UNL     1       6.279   4.393  14.809  0.00  0.00    +0.000 N 
ATOM     27  H   UNL     1       5.898   4.295  13.874  0.00  0.00    +0.000 HD
ATOM     28  H   UNL     1       7.184   4.849  14.815  0.00  0.00    +0.000 HD
ENDBRANCH  23  26
ENDBRANCH  18  20
ENDBRANCH  12  18
TORSDOF 4
ENDMDL
MODEL 9
REMARK VINA RESULT:      -6.6      1.969      2.563
REMARK  Name = 
REMARK  7 active torsions:
REMARK  status: ('A' for Active; 'I' for Inactive)
REMARK    1  A    between atoms: C_1  and  C_2
REMARK    2  A    between atoms: C_2  and  C_3
REMARK    3  A    between atoms: C_2  and  C_4
REMARK    4  A    between atoms: N_15  and  C_16
REMARK    5  A    between atoms: C_16  and  C_17
REMARK    6  A    between atoms: C_16  and  C_18
REMARK    7  A    between atoms: C_21  and  N_22
REMARK                            x       y       z     vdW  Elec       q    Type
REMARK                         _______ _______ _______ _____ _____    ______ ____
ROOT
ATOM      1  C   UNL     1       5.518   5.801  16.927  0.00  0.00    +0.000 C 
ATOM      2  C   UNL     1       6.013   4.784  15.903  0.00  0.00    +0.000 C 
ATOM      3  O   UNL     1       4.909   3.907  15.666  0.00  0.00    +0.000 OA
ATOM      4  C   UNL     1       4.015   4.057  16.692  0.00  0.00    +0.000 C 
ATOM      5  O   UNL     1       3.034   3.340  16.819  0.00  0.00    +0.000 OA
ATOM      6  N   UNL     1       4.389   5.121  17.486  0.00  0.00    +0.000 N 
ATOM      7  C   UNL     1       3.527   5.675  18.446  0.00  0.00    +0.000 A 
ATOM      8  C   UNL     1       3.071   4.842  19.444  0.00  0.00    +0.000 A 
ATOM      9  C   UNL     1       2.311   5.434  20.413  0.00  0.00    +0.000 A 
ATOM     10  N   UNL     1       1.952   6.725  20.377  0.00  0.00    +0.000 NA
ATOM     11  C   UNL     1       2.390   7.459  19.344  0.00  0.00    +0.000 A 
ATOM     12  N   UNL     1       1.983   8.778  19.222  0.00  0.00    +0.000 N 
ATOM     13  N   UNL     1       3.234   6.993  18.406  0.00  0.00    +0.000 NA
ATOM     14  H   UNL     1       2.116   9.049  18.256  0.00  0.00    +0.000 HD
ENDROOT
BRANCH   1  16
ATOM     15  C   UNL     1       7.526   5.054  18.382  0.00  0.00    +0.000 C 
ATOM     16  C   UNL     1       6.587   6.204  17.978  0.00  0.00    +0.000 C 
ATOM     17  C   UNL     1       7.419   7.399  17.508  0.00  0.00    +0.000 C 
ENDBRANCH   1  16
BRANCH  12  18
ATOM     18  C   UNL     1       0.698   9.145  19.817  0.00  0.00    +0.000 C 
ATOM     19  C   UNL     1       0.802   8.974  21.338  0.00  0.00    +0.000 C 
BRANCH  18  20
ATOM     20  C   UNL     1       0.289  10.567  19.457  0.00  0.00    +0.000 A 
ATOM     21  C   UNL     1       1.267  11.538  19.194  0.00  0.00    +0.000 A 
ATOM     22  C   UNL     1       0.913  12.852  18.858  0.00  0.00    +0.000 A 
ATOM     23  C   UNL     1      -0.425  13.224  18.733  0.00  0.00    +0.000 A 
ATOM     24  C   UNL     1      -1.403  12.273  19.039  0.00  0.00    +0.000 A 
ATOM     25  C   UNL     1      -1.056  10.958  19.376  0.00  0.00    +0.000 A 
BRANCH  23  26
ATOM     26  N   UNL     1      -0.774  14.565  18.543  0.00  0.00    +0.000 N 
ATOM     27  H   UNL     1      -1.699  14.804  18.887  0.00  0.00    +0.000 HD
ATOM     28  H   UNL     1      -0.065  15.224  18.846  0.00  0.00    +0.000 HD
ENDBRANCH  23  26
ENDBRANCH  18  20
ENDBRANCH  12  18
TORSDOF 4
ENDMDL
