MODEL 1
REMARK VINA RESULT:      -6.5      0.000      0.000
REMARK  Name = 
REMARK  3 active torsions:
REMARK  status: ('A' for Active; 'I' for Inactive)
REMARK    1  A    between atoms: C_2  and  C_3
REMARK    2  A    between atoms: C_3  and  S_4
REMARK    3  A    between atoms: S_4  and  C_5
REMARK                            x       y       z     vdW  Elec       q    Type
REMARK                         _______ _______ _______ _____ _____    ______ ____
ROOT
ATOM      1  S   UNL     1       2.547   7.188  18.024  0.00  0.00    +0.000 S 
ENDROOT
BRANCH   1   2
ATOM      2  C   UNL     1       3.550   5.797  18.446  0.00  0.00    +0.000 A 
ATOM      3  N   UNL     1       4.832   5.991  18.822  0.00  0.00    +0.000 NA
ATOM      4  C   UNL     1       5.536   4.919  19.211  0.00  0.00    +0.000 A 
ATOM      5  N   UNL     1       5.132   3.650  19.262  0.00  0.00    +0.000 NA
ATOM      6  C   UNL     1       3.856   3.497  18.870  0.00  0.00    +0.000 A 
ATOM      7  S   UNL     1       3.128   1.957  18.889  0.00  0.00    +0.000 S 
ATOM      8  C   UNL     1       1.643   2.585  18.325  0.00  0.00    +0.000 A 
ATOM      9  C   UNL     1       1.709   3.949  18.124  0.00  0.00    +0.000 A 
ATOM     10  C   UNL     1       2.998   4.503  18.446  0.00  0.00    +0.000 A 
ENDBRANCH   1   2
BRANCH   1  11
ATOM     11  C   UNL     1       1.966   7.737  19.682  0.00  0.00    +0.000 C 
BRANCH  11  13
ATOM     12  O   UNL     1       1.193   9.739  18.556  0.00  0.00    +0.000 OA
ATOM     13  C   UNL     1       1.388   9.155  19.623  0.00  0.00    +0.000 C 
ATOM     14  N   UNL     1       1.070   9.772  20.836  0.00  0.00    +0.000 N 
ATOM     15  C   UNL     1       1.275   9.217  22.171  0.00  0.00    +0.000 C 
ATOM     16  C   UNL     1      -0.043   9.170  22.945  0.00  0.00    +0.000 C 
ATOM     17  C   UNL     1      -0.757  10.524  22.939  0.00  0.00    +0.000 C 
ATOM     18  C   UNL     1      -0.875  11.094  21.525  0.00  0.00    +0.000 C 
ATOM     19  C   UNL     1       0.478  11.108  20.818  0.00  0.00    +0.000 C 
ENDBRANCH  11  13
ENDBRANCH   1  11
TORSDOF 3
ENDMDL
MODEL 2
REMARK VINA RESULT:      -6.3      2.818      6.376
REMARK  Name = 
REMARK  3 active torsions:
REMARK  status: ('A' for Active; 'I' for Inactive)
REMARK    1  A    between atoms: C_2  and  C_3
REMARK    2  A    between atoms: C_3  and  S_4
REMARK    3  A    between atoms: S_4  and  C_5
REMARK                            x       y       z     vdW  Elec       q    Type
REMARK                         _______ _______ _______ _____ _____    ______ ____
ROOT
ATOM      1  S   UNL     1       3.864   6.776  17.639  0.00  0.00    +0.000 S 
ENDROOT
BRANCH   1   2
ATOM      2  C   UNL     1       2.709   7.263  18.883  0.00  0.00    +0.000 A 
ATOM      3  N   UNL     1       2.508   6.464  19.953  0.00  0.00    +0.000 NA
ATOM      4  C   UNL     1       1.685   6.906  20.914  0.00  0.00    +0.000 A 
ATOM      5  N   UNL     1       1.006   8.053  20.946  0.00  0.00    +0.000 NA
ATOM      6  C   UNL     1       1.224   8.813  19.860  0.00  0.00    +0.000 A 
ATOM      7  S   UNL     1       0.478  10.338  19.712  0.00  0.00    +0.000 S 
ATOM      8  C   UNL     1       1.229  10.626  18.205  0.00  0.00    +0.000 A 
ATOM      9  C   UNL     1       2.033   9.571  17.824  0.00  0.00    +0.000 A 
ATOM     10  C   UNL     1       2.048   8.500  18.787  0.00  0.00    +0.000 A 
ENDBRANCH   1   2
BRANCH   1  11
ATOM     11  C   UNL     1       3.412   5.009  17.391  0.00  0.00    +0.000 C 
BRANCH  11  13
ATOM     12  O   UNL     1       5.153   4.178  18.859  0.00  0.00    +0.000 OA
ATOM     13  C   UNL     1       3.970   4.133  18.518  0.00  0.00    +0.000 C 
ATOM     14  N   UNL     1       3.079   3.276  19.169  0.00  0.00    +0.000 N 
ATOM     15  C   UNL     1       1.664   3.094  18.854  0.00  0.00    +0.000 C 
ATOM     16  C   UNL     1       0.797   3.378  20.081  0.00  0.00    +0.000 C 
ATOM     17  C   UNL     1       1.266   2.590  21.307  0.00  0.00    +0.000 C 
ATOM     18  C   UNL     1       2.767   2.755  21.543  0.00  0.00    +0.000 C 
ATOM     19  C   UNL     1       3.564   2.456  20.277  0.00  0.00    +0.000 C 
ENDBRANCH  11  13
ENDBRANCH   1  11
TORSDOF 3
ENDMDL
MODEL 3
REMARK VINA RESULT:      -6.3      2.360      7.252
REMARK  Name = 
REMARK  3 active torsions:
REMARK  status: ('A' for Active; 'I' for Inactive)
REMARK    1  A    between atoms: C_2  and  C_3
REMARK    2  A    between atoms: C_3  and  S_4
REMARK    3  A    between atoms: S_4  and  C_5
REMARK                            x       y       z     vdW  Elec       q    Type
REMARK                         _______ _______ _______ _____ _____    ______ ____
ROOT
ATOM      1  S   UNL     1       2.050   7.378  19.945  0.00  0.00    +0.000 S 
ENDROOT
BRANCH   1   2
ATOM      2  C   UNL     1       1.246   8.949  19.897  0.00  0.00    +0.000 A 
ATOM      3  N   UNL     1       1.200   9.638  18.737  0.00  0.00    +0.000 NA
ATOM      4  C   UNL     1       0.513  10.788  18.722  0.00  0.00    +0.000 A 
ATOM      5  N   UNL     1      -0.135  11.367  19.733  0.00  0.00    +0.000 NA
ATOM      6  C   UNL     1      -0.057  10.656  20.872  0.00  0.00    +0.000 A 
ATOM      7  S   UNL     1      -0.844  11.200  22.281  0.00  0.00    +0.000 S 
ATOM      8  C   UNL     1      -0.315   9.843  23.173  0.00  0.00    +0.000 A 
ATOM      9  C   UNL     1       0.453   8.993  22.402  0.00  0.00    +0.000 A 
ATOM     10  C   UNL     1       0.609   9.451  21.046  0.00  0.00    +0.000 A 
ENDBRANCH   1   2
BRANCH   1  11
ATOM     11  C   UNL     1       2.515   7.151  18.179  0.00  0.00    +0.000 C 
BRANCH  11  13
ATOM     12  O   UNL     1       4.739   6.193  18.080  0.00  0.00    +0.000 OA
ATOM     13  C   UNL     1       3.523   6.009  18.016  0.00  0.00    +0.000 C 
ATOM     14  N   UNL     1       3.013   4.725  17.802  0.00  0.00    +0.000 N 
ATOM     15  C   UNL     1       1.604   4.363  17.672  0.00  0.00    +0.000 C 
ATOM     16  C   UNL     1       1.220   3.307  18.709  0.00  0.00    +0.000 C 
ATOM     17  C   UNL     1       2.173   2.109  18.686  0.00  0.00    +0.000 C 
ATOM     18  C   UNL     1       3.636   2.551  18.746  0.00  0.00    +0.000 C 
ATOM     19  C   UNL     1       3.942   3.603  17.683  0.00  0.00    +0.000 C 
ENDBRANCH  11  13
ENDBRANCH   1  11
TORSDOF 3
ENDMDL
MODEL 4
REMARK VINA RESULT:      -6.3      2.840      7.374
REMARK  Name = 
REMARK  3 active torsions:
REMARK  status: ('A' for Active; 'I' for Inactive)
REMARK    1  A    between atoms: C_2  and  C_3
REMARK    2  A    between atoms: C_3  and  S_4
REMARK    3  A    between atoms: S_4  and  C_5
REMARK                            x       y       z     vdW  Elec       q    Type
REMARK                         _______ _______ _______ _____ _____    ______ ____
ROOT
ATOM      1  S   UNL     1       2.543   5.831  20.162  0.00  0.00    +0.000 S 
ENDROOT
BRANCH   1   2
ATOM      2  C   UNL     1       2.145   7.414  19.490  0.00  0.00    +0.000 A 
ATOM      3  N   UNL     1       2.451   7.686  18.203  0.00  0.00    +0.000 NA
ATOM      4  C   UNL     1       2.062   8.869  17.707  0.00  0.00    +0.000 A 
ATOM      5  N   UNL     1       1.410   9.846  18.338  0.00  0.00    +0.000 NA
ATOM      6  C   UNL     1       1.134   9.541  19.617  0.00  0.00    +0.000 A 
ATOM      7  S   UNL     1       0.276  10.639  20.598  0.00  0.00    +0.000 S 
ATOM      8  C   UNL     1       0.322   9.576  21.933  0.00  0.00    +0.000 A 
ATOM      9  C   UNL     1       0.986   8.404  21.631  0.00  0.00    +0.000 A 
ATOM     10  C   UNL     1       1.464   8.363  20.273  0.00  0.00    +0.000 A 
ENDBRANCH   1   2
BRANCH   1  11
ATOM     11  C   UNL     1       4.181   5.505  19.390  0.00  0.00    +0.000 C 
BRANCH  11  13
ATOM     12  O   UNL     1       2.952   4.190  17.768  0.00  0.00    +0.000 OA
ATOM     13  C   UNL     1       4.037   4.650  18.127  0.00  0.00    +0.000 C 
ATOM     14  N   UNL     1       5.190   4.415  17.373  0.00  0.00    +0.000 N 
ATOM     15  C   UNL     1       6.541   4.868  17.692  0.00  0.00    +0.000 C 
ATOM     16  C   UNL     1       7.115   5.703  16.546  0.00  0.00    +0.000 C 
ATOM     17  C   UNL     1       7.004   4.981  15.201  0.00  0.00    +0.000 C 
ATOM     18  C   UNL     1       5.587   4.461  14.956  0.00  0.00    +0.000 C 
ATOM     19  C   UNL     1       5.084   3.640  16.139  0.00  0.00    +0.000 C 
ENDBRANCH  11  13
ENDBRANCH   1  11
TORSDOF 3
ENDMDL
MODEL 5
REMARK VINA RESULT:      -6.3      1.645      2.008
REMARK  Name = 
REMARK  3 active torsions:
REMARK  status: ('A' for Active; 'I' for Inactive)
REMARK    1  A    between atoms: C_2  and  C_3
REMARK    2  A    between atoms: C_3  and  S_4
REMARK    3  A    between atoms: S_4  and  C_5
REMARK                            x       y       z     vdW  Elec       q    Type
REMARK                         _______ _______ _______ _____ _____    ______ ____
ROOT
ATOM      1  S   UNL     1       2.435   6.997  19.160  0.00  0.00    +0.000 S 
ENDROOT
BRANCH   1   2
ATOM      2  C   UNL     1       2.240   5.288  19.557  0.00  0.00    +0.000 A 
ATOM      3  N   UNL     1       1.415   4.929  20.564  0.00  0.00    +0.000 NA
ATOM      4  C   UNL     1       1.232   3.620  20.782  0.00  0.00    +0.000 A 
ATOM      5  N   UNL     1       1.784   2.596  20.130  0.00  0.00    +0.000 NA
ATOM      6  C   UNL     1       2.605   2.995  19.143  0.00  0.00    +0.000 A 
ATOM      7  S   UNL     1       3.392   1.846  18.161  0.00  0.00    +0.000 S 
ATOM      8  C   UNL     1       4.149   3.066  17.236  0.00  0.00    +0.000 A 
ATOM      9  C   UNL     1       3.805   4.329  17.677  0.00  0.00    +0.000 A 
ATOM     10  C   UNL     1       2.894   4.306  18.791  0.00  0.00    +0.000 A 
ENDBRANCH   1   2
BRANCH   1  11
ATOM     11  C   UNL     1       1.548   7.802  20.558  0.00  0.00    +0.000 C 
BRANCH  11  13
ATOM     12  O   UNL     1       1.244   9.691  19.071  0.00  0.00    +0.000 OA
ATOM     13  C   UNL     1       1.185   9.251  20.220  0.00  0.00    +0.000 C 
ATOM     14  N   UNL     1       0.764  10.071  21.271  0.00  0.00    +0.000 N 
ATOM     15  C   UNL     1       0.676   9.698  22.680  0.00  0.00    +0.000 C 
ATOM     16  C   UNL     1      -0.743   9.913  23.208  0.00  0.00    +0.000 C 
ATOM     17  C   UNL     1      -1.257  11.323  22.906  0.00  0.00    +0.000 C 
ATOM     18  C   UNL     1      -1.069  11.689  21.434  0.00  0.00    +0.000 C 
ATOM     19  C   UNL     1       0.368  11.448  20.982  0.00  0.00    +0.000 C 
ENDBRANCH  11  13
ENDBRANCH   1  11
TORSDOF 3
ENDMDL
MODEL 6
REMARK VINA RESULT:      -6.2      2.825      7.342
REMARK  Name = 
REMARK  3 active torsions:
REMARK  status: ('A' for Active; 'I' for Inactive)
REMARK    1  A    between atoms: C_2  and  C_3
REMARK    2  A    between atoms: C_3  and  S_4
REMARK    3  A    between atoms: S_4  and  C_5
REMARK                            x       y       z     vdW  Elec       q    Type
REMARK                         _______ _______ _______ _____ _____    ______ ____
ROOT
ATOM      1  S   UNL     1       2.277   6.141  20.183  0.00  0.00    +0.000 S 
ENDROOT
BRANCH   1   2
ATOM      2  C   UNL     1       1.910   7.764  19.593  0.00  0.00    +0.000 A 
ATOM      3  N   UNL     1       2.195   8.087  18.314  0.00  0.00    +0.000 NA
ATOM      4  C   UNL     1       1.828   9.301  17.881  0.00  0.00    +0.000 A 
ATOM      5  N   UNL     1       1.218  10.265  18.571  0.00  0.00    +0.000 NA
ATOM      6  C   UNL     1       0.961   9.909  19.841  0.00  0.00    +0.000 A 
ATOM      7  S   UNL     1       0.156  10.982  20.891  0.00  0.00    +0.000 S 
ATOM      8  C   UNL     1       0.202   9.858  22.175  0.00  0.00    +0.000 A 
ATOM      9  C   UNL     1       0.826   8.684  21.804  0.00  0.00    +0.000 A 
ATOM     10  C   UNL     1       1.272   8.693  20.435  0.00  0.00    +0.000 A 
ENDBRANCH   1   2
BRANCH   1  11
ATOM     11  C   UNL     1       2.799   5.297  18.633  0.00  0.00    +0.000 C 
BRANCH  11  13
ATOM     12  O   UNL     1       4.569   3.919  19.550  0.00  0.00    +0.000 OA
ATOM     13  C   UNL     1       4.239   4.786  18.740  0.00  0.00    +0.000 C 
ATOM     14  N   UNL     1       5.183   5.333  17.866  0.00  0.00    +0.000 N 
ATOM     15  C   UNL     1       4.945   6.385  16.881  0.00  0.00    +0.000 C 
ATOM     16  C   UNL     1       5.332   5.909  15.480  0.00  0.00    +0.000 C 
ATOM     17  C   UNL     1       6.750   5.333  15.443  0.00  0.00    +0.000 C 
ATOM     18  C   UNL     1       6.966   4.295  16.544  0.00  0.00    +0.000 C 
ATOM     19  C   UNL     1       6.558   4.841  17.909  0.00  0.00    +0.000 C 
ENDBRANCH  11  13
ENDBRANCH   1  11
TORSDOF 3
ENDMDL
MODEL 7
REMARK VINA RESULT:      -6.2      2.461      2.983
REMARK  Name = 
REMARK  3 active torsions:
REMARK  status: ('A' for Active; 'I' for Inactive)
REMARK    1  A    between atoms: C_2  and  C_3
REMARK    2  A    between atoms: C_3  and  S_4
REMARK    3  A    between atoms: S_4  and  C_5
REMARK                            x       y       z     vdW  Elec       q    Type
REMARK                         _______ _______ _______ _____ _____    ______ ____
ROOT
ATOM      1  S   UNL     1       3.055   4.587  19.027  0.00  0.00    +0.000 S 
ENDROOT
BRANCH   1   2
ATOM      2  C   UNL     1       4.741   4.935  18.637  0.00  0.00    +0.000 A 
ATOM      3  N   UNL     1       5.585   5.319  19.619  0.00  0.00    +0.000 NA
ATOM      4  C   UNL     1       6.874   5.496  19.298  0.00  0.00    +0.000 A 
ATOM      5  N   UNL     1       7.446   5.357  18.102  0.00  0.00    +0.000 NA
ATOM      6  C   UNL     1       6.572   4.984  17.151  0.00  0.00    +0.000 A 
ATOM      7  S   UNL     1       7.099   4.717  15.554  0.00  0.00    +0.000 S 
ATOM      8  C   UNL     1       5.527   4.294  15.041  0.00  0.00    +0.000 A 
ATOM      9  C   UNL     1       4.616   4.360  16.076  0.00  0.00    +0.000 A 
ATOM     10  C   UNL     1       5.213   4.757  17.325  0.00  0.00    +0.000 A 
ENDBRANCH   1   2
BRANCH   1  11
ATOM     11  C   UNL     1       2.578   6.094  19.970  0.00  0.00    +0.000 C 
BRANCH  11  13
ATOM     12  O   UNL     1       2.584   7.226  17.827  0.00  0.00    +0.000 OA
ATOM     13  C   UNL     1       2.321   7.276  19.029  0.00  0.00    +0.000 C 
ATOM     14  N   UNL     1       1.756   8.429  19.582  0.00  0.00    +0.000 N 
ATOM     15  C   UNL     1       1.423   8.642  20.988  0.00  0.00    +0.000 C 
ATOM     16  C   UNL     1      -0.056   8.996  21.144  0.00  0.00    +0.000 C 
ATOM     17  C   UNL     1      -0.468  10.150  20.227  0.00  0.00    +0.000 C 
ATOM     18  C   UNL     1      -0.026   9.908  18.784  0.00  0.00    +0.000 C 
ATOM     19  C   UNL     1       1.458   9.562  18.709  0.00  0.00    +0.000 C 
ENDBRANCH  11  13
ENDBRANCH   1  11
TORSDOF 3
ENDMDL
MODEL 8
REMARK VINA RESULT:      -6.2      1.612      2.440
REMARK  Name = 
REMARK  3 active torsions:
REMARK  status: ('A' for Active; 'I' for Inactive)
REMARK    1  A    between atoms: C_2  and  C_3
REMARK    2  A    between atoms: C_3  and  S_4
REMARK    3  A    between atoms: S_4  and  C_5
REMARK                            x       y       z     vdW  Elec       q    Type
REMARK                         _______ _______ _______ _____ _____    ______ ____
ROOT
ATOM      1  S   UNL     1       2.510   7.581  18.126  0.00  0.00    +0.000 S 
ENDROOT
BRANCH   1   2
ATOM      2  C   UNL     1       3.491   6.174  18.545  0.00  0.00    +0.000 A 
ATOM      3  N   UNL     1       2.954   5.187  19.293  0.00  0.00    +0.000 NA
ATOM      4  C   UNL     1       3.703   4.101  19.523  0.00  0.00    +0.000 A 
ATOM      5  N   UNL     1       4.950   3.866  19.114  0.00  0.00    +0.000 NA
ATOM      6  C   UNL     1       5.453   4.875  18.382  0.00  0.00    +0.000 A 
ATOM      7  S   UNL     1       7.023   4.767  17.731  0.00  0.00    +0.000 S 
ATOM      8  C   UNL     1       6.889   6.301  16.994  0.00  0.00    +0.000 A 
ATOM      9  C   UNL     1       5.663   6.884  17.247  0.00  0.00    +0.000 A 
ATOM     10  C   UNL     1       4.804   6.058  18.054  0.00  0.00    +0.000 A 
ENDBRANCH   1   2
BRANCH   1  11
ATOM     11  C   UNL     1       1.757   8.001  19.752  0.00  0.00    +0.000 C 
BRANCH  11  13
ATOM     12  O   UNL     1       1.131  10.111  18.737  0.00  0.00    +0.000 OA
ATOM     13  C   UNL     1       1.245   9.444  19.767  0.00  0.00    +0.000 C 
ATOM     14  N   UNL     1       0.891   9.990  21.004  0.00  0.00    +0.000 N 
ATOM     15  C   UNL     1       1.003   9.333  22.304  0.00  0.00    +0.000 C 
ATOM     16  C   UNL     1      -0.354   9.295  23.008  0.00  0.00    +0.000 C 
ATOM     17  C   UNL     1      -1.008  10.678  23.065  0.00  0.00    +0.000 C 
ATOM     18  C   UNL     1      -1.028  11.350  21.691  0.00  0.00    +0.000 C 
ATOM     19  C   UNL     1       0.359  11.350  21.054  0.00  0.00    +0.000 C 
ENDBRANCH  11  13
ENDBRANCH   1  11
TORSDOF 3
ENDMDL
MODEL 9
REMARK VINA RESULT:      -6.2      4.110      5.417
REMARK  Name = 
REMARK  3 active torsions:
REMARK  status: ('A' for Active; 'I' for Inactive)
REMARK    1  A    between atoms: C_2  and  C_3
REMARK    2  A    between atoms: C_3  and  S_4
REMARK    3  A    between atoms: S_4  and  C_5
REMARK                            x       y       z     vdW  Elec       q    Type
REMARK                         _______ _______ _______ _____ _____    ______ ____
ROOT
ATOM      1  S   UNL     1       4.540   5.452  19.108  0.00  0.00    +0.000 S 
ENDROOT
BRANCH   1   2
ATOM      2  C   UNL     1       5.757   5.897  17.908  0.00  0.00    +0.000 A 
ATOM      3  N   UNL     1       6.631   6.888  18.184  0.00  0.00    +0.000 NA
ATOM      4  C   UNL     1       7.589   7.142  17.282  0.00  0.00    +0.000 A 
ATOM      5  N   UNL     1       7.788   6.542  16.109  0.00  0.00    +0.000 NA
ATOM      6  C   UNL     1       6.892   5.569  15.867  0.00  0.00    +0.000 A 
ATOM      7  S   UNL     1       6.984   4.650  14.436  0.00  0.00    +0.000 S 
ATOM      8  C   UNL     1       5.629   3.711  14.880  0.00  0.00    +0.000 A 
ATOM      9  C   UNL     1       5.116   4.099  16.102  0.00  0.00    +0.000 A 
ATOM     10  C   UNL     1       5.850   5.184  16.700  0.00  0.00    +0.000 A 
ENDBRANCH   1   2
BRANCH   1  11
ATOM     11  C   UNL     1       2.983   5.884  18.228  0.00  0.00    +0.000 C 
BRANCH  11  13
ATOM     12  O   UNL     1       1.761   4.118  17.104  0.00  0.00    +0.000 OA
ATOM     13  C   UNL     1       2.033   4.683  18.164  0.00  0.00    +0.000 C 
ATOM     14  N   UNL     1       1.485   4.230  19.368  0.00  0.00    +0.000 N 
ATOM     15  C   UNL     1       1.691   4.818  20.689  0.00  0.00    +0.000 C 
ATOM     16  C   UNL     1       2.254   3.779  21.660  0.00  0.00    +0.000 C 
ATOM     17  C   UNL     1       1.418   2.497  21.674  0.00  0.00    +0.000 C 
ATOM     18  C   UNL     1       1.169   1.971  20.260  0.00  0.00    +0.000 C 
ATOM     19  C   UNL     1       0.608   3.062  19.353  0.00  0.00    +0.000 C 
ENDBRANCH  11  13
ENDBRANCH   1  11
TORSDOF 3
ENDMDL
