MODEL 1
REMARK VINA RESULT:      -8.7      0.000      0.000
REMARK  Name = 
REMARK  6 active torsions:
REMARK  status: ('A' for Active; 'I' for Inactive)
REMARK    1  A    between atoms: C_1  and  C_2
REMARK    2  A    between atoms: C_2  and  C_3
REMARK    3  A    between atoms: C_2  and  C_4
REMARK    4  A    between atoms: C_4  and  C_5
REMARK    5  A    between atoms: C_5  and  N_6
REMARK    6  A    between atoms: C_7  and  C_9
REMARK                            x       y       z     vdW  Elec       q    Type
REMARK                         _______ _______ _______ _____ _____    ______ ____
ROOT
ATOM      1  C   UNL     1       4.991   5.271  16.372  0.00  0.00    +0.000 A 
ATOM      2  C   UNL     1       5.298   6.606  16.623  0.00  0.00    +0.000 A 
ATOM      3  C   UNL     1       4.468   7.349  17.468  0.00  0.00    +0.000 A 
ATOM      4  C   UNL     1       3.374   6.725  18.061  0.00  0.00    +0.000 A 
ATOM      5  N   UNL     1       2.511   7.411  18.928  0.00  0.00    +0.000 N 
ATOM      6  C   UNL     1       1.937   8.606  18.564  0.00  0.00    +0.000 C 
ATOM      7  O   UNL     1       2.118   9.153  17.477  0.00  0.00    +0.000 OA
ATOM      8  N   UNL     1       1.078   9.138  19.498  0.00  0.00    +0.000 N 
ATOM      9  C   UNL     1       0.225  10.266  19.137  0.00  0.00    +0.000 C 
ATOM     10  C   UNL     1      -0.406  10.664  20.432  0.00  0.00    +0.000 A 
ATOM     11  C   UNL     1      -1.348  11.652  20.665  0.00  0.00    +0.000 A 
ATOM     12  C   UNL     1      -1.768  11.867  21.978  0.00  0.00    +0.000 A 
ATOM     13  C   UNL     1      -1.245  11.098  23.029  0.00  0.00    +0.000 A 
ATOM     14  C   UNL     1      -0.301  10.098  22.783  0.00  0.00    +0.000 A 
ATOM     15  C   UNL     1       0.107   9.885  21.477  0.00  0.00    +0.000 A 
ATOM     16  C   UNL     1       1.095   8.894  20.943  0.00  0.00    +0.000 C 
ATOM     17  N   UNL     1       3.088   5.420  17.875  0.00  0.00    +0.000 NA
ATOM     18  C   UNL     1       3.870   4.737  16.996  0.00  0.00    +0.000 A 
ATOM     19  H   UNL     1       1.862   6.777  19.372  0.00  0.00    +0.000 HD
ENDROOT
BRANCH   1  21
ATOM     20  N   UNL     1       6.386   5.034  14.395  0.00  0.00    +0.000 N 
ATOM     21  C   UNL     1       5.784   4.407  15.463  0.00  0.00    +0.000 C 
ATOM     22  O   UNL     1       5.899   3.212  15.709  0.00  0.00    +0.000 OA
ATOM     23  H   UNL     1       6.339   6.039  14.304  0.00  0.00    +0.000 HD
BRANCH  20  24
ATOM     24  C   UNL     1       7.194   4.311  13.429  0.00  0.00    +0.000 C 
BRANCH  24  25
ATOM     25  C   UNL     1       6.474   4.116  12.090  0.00  0.00    +0.000 C 
BRANCH  25  27
ATOM     26  C   UNL     1       4.163   3.308  11.361  0.00  0.00    +0.000 C 
ATOM     27  C   UNL     1       5.475   2.942  12.056  0.00  0.00    +0.000 C 
ATOM     28  C   UNL     1       6.106   1.737  11.352  0.00  0.00    +0.000 C 
ENDBRANCH  25  27
ENDBRANCH  24  25
ENDBRANCH  20  24
ENDBRANCH   1  21
TORSDOF 4
ENDMDL
MODEL 2
REMARK VINA RESULT:      -8.1      1.072      1.756
REMARK  Name = 
REMARK  6 active torsions:
REMARK  status: ('A' for Active; 'I' for Inactive)
REMARK    1  A    between atoms: C_1  and  C_2
REMARK    2  A    between atoms: C_2  and  C_3
REMARK    3  A    between atoms: C_2  and  C_4
REMARK    4  A    between atoms: C_4  and  C_5
REMARK    5  A    between atoms: C_5  and  N_6
REMARK    6  A    between atoms: C_7  and  C_9
REMARK                            x       y       z     vdW  Elec       q    Type
REMARK                         _______ _______ _______ _____ _____    ______ ____
ROOT
ATOM      1  C   UNL     1       4.674   5.381  16.505  0.00  0.00    +0.000 A 
ATOM      2  C   UNL     1       3.512   4.895  17.102  0.00  0.00    +0.000 A 
ATOM      3  C   UNL     1       2.684   5.778  17.800  0.00  0.00    +0.000 A 
ATOM      4  C   UNL     1       3.025   7.127  17.851  0.00  0.00    +0.000 A 
ATOM      5  N   UNL     1       2.229   8.066  18.524  0.00  0.00    +0.000 N 
ATOM      6  C   UNL     1       1.838   7.867  19.827  0.00  0.00    +0.000 C 
ATOM      7  O   UNL     1       2.152   6.884  20.496  0.00  0.00    +0.000 OA
ATOM      8  N   UNL     1       1.100   8.894  20.367  0.00  0.00    +0.000 N 
ATOM      9  C   UNL     1       0.835   8.918  21.803  0.00  0.00    +0.000 C 
ATOM     10  C   UNL     1      -0.125  10.050  21.969  0.00  0.00    +0.000 A 
ATOM     11  C   UNL     1      -0.672  10.553  23.139  0.00  0.00    +0.000 A 
ATOM     12  C   UNL     1      -1.583  11.605  23.042  0.00  0.00    +0.000 A 
ATOM     13  C   UNL     1      -1.930  12.135  21.789  0.00  0.00    +0.000 A 
ATOM     14  C   UNL     1      -1.367  11.627  20.616  0.00  0.00    +0.000 A 
ATOM     15  C   UNL     1      -0.458  10.587  20.719  0.00  0.00    +0.000 A 
ATOM     16  C   UNL     1       0.281   9.864  19.635  0.00  0.00    +0.000 C 
ATOM     17  N   UNL     1       4.115   7.630  17.236  0.00  0.00    +0.000 NA
ATOM     18  C   UNL     1       4.941   6.739  16.622  0.00  0.00    +0.000 A 
ATOM     19  H   UNL     1       2.547   9.008  18.343  0.00  0.00    +0.000 HD
ENDROOT
BRANCH   1  21
ATOM     20  N   UNL     1       6.091   5.001  14.565  0.00  0.00    +0.000 N 
ATOM     21  C   UNL     1       5.638   4.522  15.775  0.00  0.00    +0.000 C 
ATOM     22  O   UNL     1       6.012   3.468  16.277  0.00  0.00    +0.000 OA
ATOM     23  H   UNL     1       5.825   5.924  14.254  0.00  0.00    +0.000 HD
BRANCH  20  24
ATOM     24  C   UNL     1       7.038   4.264  13.748  0.00  0.00    +0.000 C 
BRANCH  24  25
ATOM     25  C   UNL     1       6.556   4.085  12.305  0.00  0.00    +0.000 C 
BRANCH  25  27
ATOM     26  C   UNL     1       4.268   3.331  11.452  0.00  0.00    +0.000 C 
ATOM     27  C   UNL     1       5.591   2.901  12.087  0.00  0.00    +0.000 C 
ATOM     28  C   UNL     1       6.258   1.839  11.207  0.00  0.00    +0.000 C 
ENDBRANCH  25  27
ENDBRANCH  24  25
ENDBRANCH  20  24
ENDBRANCH   1  21
TORSDOF 4
ENDMDL
MODEL 3
REMARK VINA RESULT:      -7.9      0.711      1.009
REMARK  Name = 
REMARK  6 active torsions:
REMARK  status: ('A' for Active; 'I' for Inactive)
REMARK    1  A    between atoms: C_1  and  C_2
REMARK    2  A    between atoms: C_2  and  C_3
REMARK    3  A    between atoms: C_2  and  C_4
REMARK    4  A    between atoms: C_4  and  C_5
REMARK    5  A    between atoms: C_5  and  N_6
REMARK    6  A    between atoms: C_7  and  C_9
REMARK                            x       y       z     vdW  Elec       q    Type
REMARK                         _______ _______ _______ _____ _____    ______ ____
ROOT
ATOM      1  C   UNL     1       4.843   5.421  16.833  0.00  0.00    +0.000 A 
ATOM      2  C   UNL     1       5.110   6.785  16.932  0.00  0.00    +0.000 A 
ATOM      3  C   UNL     1       4.236   7.599  17.659  0.00  0.00    +0.000 A 
ATOM      4  C   UNL     1       3.140   7.019  18.292  0.00  0.00    +0.000 A 
ATOM      5  N   UNL     1       2.235   7.778  19.047  0.00  0.00    +0.000 N 
ATOM      6  C   UNL     1       1.643   8.906  18.529  0.00  0.00    +0.000 C 
ATOM      7  O   UNL     1       1.844   9.325  17.390  0.00  0.00    +0.000 OA
ATOM      8  N   UNL     1       0.743   9.519  19.369  0.00  0.00    +0.000 N 
ATOM      9  C   UNL     1      -0.126  10.573  18.853  0.00  0.00    +0.000 C 
ATOM     10  C   UNL     1      -0.805  11.103  20.074  0.00  0.00    +0.000 A 
ATOM     11  C   UNL     1      -1.778  12.085  20.162  0.00  0.00    +0.000 A 
ATOM     12  C   UNL     1      -2.243  12.442  21.428  0.00  0.00    +0.000 A 
ATOM     13  C   UNL     1      -1.734  11.817  22.577  0.00  0.00    +0.000 A 
ATOM     14  C   UNL     1      -0.759  10.821  22.478  0.00  0.00    +0.000 A 
ATOM     15  C   UNL     1      -0.306  10.467  21.218  0.00  0.00    +0.000 A 
ATOM     16  C   UNL     1       0.722   9.448  20.832  0.00  0.00    +0.000 C 
ATOM     17  N   UNL     1       2.892   5.693  18.255  0.00  0.00    +0.000 NA
ATOM     18  C   UNL     1       3.717   4.933  17.484  0.00  0.00    +0.000 A 
ATOM     19  H   UNL     1       1.588   7.183  19.545  0.00  0.00    +0.000 HD
ENDROOT
BRANCH   1  21
ATOM     20  N   UNL     1       5.365   4.330  14.723  0.00  0.00    +0.000 N 
ATOM     21  C   UNL     1       5.684   4.479  16.055  0.00  0.00    +0.000 C 
ATOM     22  O   UNL     1       6.624   3.912  16.601  0.00  0.00    +0.000 OA
ATOM     23  H   UNL     1       4.644   4.902  14.308  0.00  0.00    +0.000 HD
BRANCH  20  24
ATOM     24  C   UNL     1       6.107   3.443  13.845  0.00  0.00    +0.000 C 
BRANCH  24  25
ATOM     25  C   UNL     1       6.215   3.985  12.416  0.00  0.00    +0.000 C 
BRANCH  25  27
ATOM     26  C   UNL     1       5.887   1.640  11.459  0.00  0.00    +0.000 C 
ATOM     27  C   UNL     1       5.527   3.121  11.341  0.00  0.00    +0.000 C 
ATOM     28  C   UNL     1       4.006   3.285  11.432  0.00  0.00    +0.000 C 
ENDBRANCH  25  27
ENDBRANCH  24  25
ENDBRANCH  20  24
ENDBRANCH   1  21
TORSDOF 4
ENDMDL
MODEL 4
REMARK VINA RESULT:      -7.6      1.376      2.198
REMARK  Name = 
REMARK  6 active torsions:
REMARK  status: ('A' for Active; 'I' for Inactive)
REMARK    1  A    between atoms: C_1  and  C_2
REMARK    2  A    between atoms: C_2  and  C_3
REMARK    3  A    between atoms: C_2  and  C_4
REMARK    4  A    between atoms: C_4  and  C_5
REMARK    5  A    between atoms: C_5  and  N_6
REMARK    6  A    between atoms: C_7  and  C_9
REMARK                            x       y       z     vdW  Elec       q    Type
REMARK                         _______ _______ _______ _____ _____    ______ ____
ROOT
ATOM      1  C   UNL     1       4.239   5.872  17.186  0.00  0.00    +0.000 A 
ATOM      2  C   UNL     1       3.099   5.412  17.843  0.00  0.00    +0.000 A 
ATOM      3  C   UNL     1       2.228   6.337  18.425  0.00  0.00    +0.000 A 
ATOM      4  C   UNL     1       2.505   7.696  18.303  0.00  0.00    +0.000 A 
ATOM      5  N   UNL     1       1.663   8.675  18.852  0.00  0.00    +0.000 N 
ATOM      6  C   UNL     1       1.278   8.626  20.171  0.00  0.00    +0.000 C 
ATOM      7  O   UNL     1       1.635   7.752  20.960  0.00  0.00    +0.000 OA
ATOM      8  N   UNL     1       0.490   9.678  20.577  0.00  0.00    +0.000 N 
ATOM      9  C   UNL     1       0.219   9.871  21.999  0.00  0.00    +0.000 C 
ATOM     10  C   UNL     1      -0.794  10.970  22.021  0.00  0.00    +0.000 A 
ATOM     11  C   UNL     1      -1.367  11.591  23.119  0.00  0.00    +0.000 A 
ATOM     12  C   UNL     1      -2.327  12.578  22.891  0.00  0.00    +0.000 A 
ATOM     13  C   UNL     1      -2.694  12.927  21.582  0.00  0.00    +0.000 A 
ATOM     14  C   UNL     1      -2.104  12.301  20.481  0.00  0.00    +0.000 A 
ATOM     15  C   UNL     1      -1.147  11.326  20.714  0.00  0.00    +0.000 A 
ATOM     16  C   UNL     1      -0.371  10.506  19.730  0.00  0.00    +0.000 C 
ATOM     17  N   UNL     1       3.572   8.167  17.626  0.00  0.00    +0.000 NA
ATOM     18  C   UNL     1       4.442   7.245  17.129  0.00  0.00    +0.000 A 
ATOM     19  H   UNL     1       1.937   9.600  18.552  0.00  0.00    +0.000 HD
ENDROOT
BRANCH   1  21
ATOM     20  N   UNL     1       5.667   5.306  15.301  0.00  0.00    +0.000 N 
ATOM     21  C   UNL     1       5.245   4.973  16.570  0.00  0.00    +0.000 C 
ATOM     22  O   UNL     1       5.676   4.018  17.206  0.00  0.00    +0.000 OA
ATOM     23  H   UNL     1       5.351   6.163  14.870  0.00  0.00    +0.000 HD
BRANCH  20  24
ATOM     24  C   UNL     1       6.650   4.515  14.582  0.00  0.00    +0.000 C 
BRANCH  24  25
ATOM     25  C   UNL     1       6.033   3.289  13.901  0.00  0.00    +0.000 C 
BRANCH  25  27
ATOM     26  C   UNL     1       4.784   3.447  11.678  0.00  0.00    +0.000 C 
ATOM     27  C   UNL     1       6.141   3.279  12.362  0.00  0.00    +0.000 C 
ATOM     28  C   UNL     1       7.088   4.389  11.897  0.00  0.00    +0.000 C 
ENDBRANCH  25  27
ENDBRANCH  24  25
ENDBRANCH  20  24
ENDBRANCH   1  21
TORSDOF 4
ENDMDL
MODEL 5
REMARK VINA RESULT:      -7.6      2.930      4.752
REMARK  Name = 
REMARK  6 active torsions:
REMARK  status: ('A' for Active; 'I' for Inactive)
REMARK    1  A    between atoms: C_1  and  C_2
REMARK    2  A    between atoms: C_2  and  C_3
REMARK    3  A    between atoms: C_2  and  C_4
REMARK    4  A    between atoms: C_4  and  C_5
REMARK    5  A    between atoms: C_5  and  N_6
REMARK    6  A    between atoms: C_7  and  C_9
REMARK                            x       y       z     vdW  Elec       q    Type
REMARK                         _______ _______ _______ _____ _____    ______ ____
ROOT
ATOM      1  C   UNL     1       2.533   7.498  18.437  0.00  0.00    +0.000 A 
ATOM      2  C   UNL     1       2.210   8.717  17.844  0.00  0.00    +0.000 A 
ATOM      3  C   UNL     1       1.507   9.670  18.587  0.00  0.00    +0.000 A 
ATOM      4  C   UNL     1       1.179   9.388  19.910  0.00  0.00    +0.000 A 
ATOM      5  N   UNL     1       0.487  10.307  20.713  0.00  0.00    +0.000 N 
ATOM      6  C   UNL     1      -0.690  10.879  20.290  0.00  0.00    +0.000 C 
ATOM      7  O   UNL     1      -1.225  10.633  19.210  0.00  0.00    +0.000 OA
ATOM      8  N   UNL     1      -1.277  11.725  21.202  0.00  0.00    +0.000 N 
ATOM      9  C   UNL     1      -2.639  12.200  20.976  0.00  0.00    +0.000 C 
ATOM     10  C   UNL     1      -2.845  13.213  22.055  0.00  0.00    +0.000 A 
ATOM     11  C   UNL     1      -3.986  13.944  22.344  0.00  0.00    +0.000 A 
ATOM     12  C   UNL     1      -3.930  14.868  23.389  0.00  0.00    +0.000 A 
ATOM     13  C   UNL     1      -2.746  15.044  24.122  0.00  0.00    +0.000 A 
ATOM     14  C   UNL     1      -1.603  14.296  23.828  0.00  0.00    +0.000 A 
ATOM     15  C   UNL     1      -1.667  13.377  22.794  0.00  0.00    +0.000 A 
ATOM     16  C   UNL     1      -0.602  12.460  22.275  0.00  0.00    +0.000 C 
ATOM     17  N   UNL     1       1.529   8.237  20.521  0.00  0.00    +0.000 NA
ATOM     18  C   UNL     1       2.151   7.298  19.757  0.00  0.00    +0.000 A 
ATOM     19  H   UNL     1       0.457  10.000  21.674  0.00  0.00    +0.000 HD
ENDROOT
BRANCH   1  21
ATOM     20  N   UNL     1       4.400   6.757  17.065  0.00  0.00    +0.000 N 
ATOM     21  C   UNL     1       3.242   6.406  17.724  0.00  0.00    +0.000 C 
ATOM     22  O   UNL     1       2.804   5.263  17.776  0.00  0.00    +0.000 OA
ATOM     23  H   UNL     1       4.765   7.695  17.145  0.00  0.00    +0.000 HD
BRANCH  20  24
ATOM     24  C   UNL     1       5.194   5.788  16.330  0.00  0.00    +0.000 C 
BRANCH  24  25
ATOM     25  C   UNL     1       6.693   5.913  16.624  0.00  0.00    +0.000 C 
BRANCH  25  27
ATOM     26  C   UNL     1       7.841   5.823  18.905  0.00  0.00    +0.000 C 
ATOM     27  C   UNL     1       7.039   6.674  17.920  0.00  0.00    +0.000 C 
ATOM     28  C   UNL     1       7.825   7.946  17.586  0.00  0.00    +0.000 C 
ENDBRANCH  25  27
ENDBRANCH  24  25
ENDBRANCH  20  24
ENDBRANCH   1  21
TORSDOF 4
ENDMDL
MODEL 6
REMARK VINA RESULT:      -7.5      0.994      1.231
REMARK  Name = 
REMARK  6 active torsions:
REMARK  status: ('A' for Active; 'I' for Inactive)
REMARK    1  A    between atoms: C_1  and  C_2
REMARK    2  A    between atoms: C_2  and  C_3
REMARK    3  A    between atoms: C_2  and  C_4
REMARK    4  A    between atoms: C_4  and  C_5
REMARK    5  A    between atoms: C_5  and  N_6
REMARK    6  A    between atoms: C_7  and  C_9
REMARK                            x       y       z     vdW  Elec       q    Type
REMARK                         _______ _______ _______ _____ _____    ______ ____
ROOT
ATOM      1  C   UNL     1       4.291   5.668  17.126  0.00  0.00    +0.000 A 
ATOM      2  C   UNL     1       4.545   7.038  17.160  0.00  0.00    +0.000 A 
ATOM      3  C   UNL     1       3.710   7.867  17.914  0.00  0.00    +0.000 A 
ATOM      4  C   UNL     1       2.666   7.298  18.639  0.00  0.00    +0.000 A 
ATOM      5  N   UNL     1       1.802   8.073  19.425  0.00  0.00    +0.000 N 
ATOM      6  C   UNL     1       1.162   9.175  18.907  0.00  0.00    +0.000 C 
ATOM      7  O   UNL     1       1.281   9.555  17.744  0.00  0.00    +0.000 OA
ATOM      8  N   UNL     1       0.312   9.808  19.784  0.00  0.00    +0.000 N 
ATOM      9  C   UNL     1      -0.604  10.832  19.290  0.00  0.00    +0.000 C 
ATOM     10  C   UNL     1      -1.209  11.398  20.534  0.00  0.00    +0.000 A 
ATOM     11  C   UNL     1      -2.188  12.372  20.652  0.00  0.00    +0.000 A 
ATOM     12  C   UNL     1      -2.572  12.768  21.933  0.00  0.00    +0.000 A 
ATOM     13  C   UNL     1      -1.980  12.191  23.067  0.00  0.00    +0.000 A 
ATOM     14  C   UNL     1      -1.000  11.203  22.938  0.00  0.00    +0.000 A 
ATOM     15  C   UNL     1      -0.626  10.809  21.664  0.00  0.00    +0.000 A 
ATOM     16  C   UNL     1       0.388   9.789  21.247  0.00  0.00    +0.000 C 
ATOM     17  N   UNL     1       2.434   5.969  18.664  0.00  0.00    +0.000 NA
ATOM     18  C   UNL     1       3.217   5.191  17.867  0.00  0.00    +0.000 A 
ATOM     19  H   UNL     1       1.198   7.489  19.985  0.00  0.00    +0.000 HD
ENDROOT
BRANCH   1  21
ATOM     20  N   UNL     1       5.779   5.230  15.253  0.00  0.00    +0.000 N 
ATOM     21  C   UNL     1       5.092   4.709  16.328  0.00  0.00    +0.000 C 
ATOM     22  O   UNL     1       5.139   3.531  16.663  0.00  0.00    +0.000 OA
ATOM     23  H   UNL     1       5.782   6.227  15.089  0.00  0.00    +0.000 HD
BRANCH  20  24
ATOM     24  C   UNL     1       6.604   4.405  14.389  0.00  0.00    +0.000 C 
BRANCH  24  25
ATOM     25  C   UNL     1       5.814   3.267  13.734  0.00  0.00    +0.000 C 
BRANCH  25  27
ATOM     26  C   UNL     1       4.667   3.379  11.453  0.00  0.00    +0.000 C 
ATOM     27  C   UNL     1       5.981   3.159  12.204  0.00  0.00    +0.000 C 
ATOM     28  C   UNL     1       7.022   4.172  11.719  0.00  0.00    +0.000 C 
ENDBRANCH  25  27
ENDBRANCH  24  25
ENDBRANCH  20  24
ENDBRANCH   1  21
TORSDOF 4
ENDMDL
MODEL 7
REMARK VINA RESULT:      -7.5      1.420      2.073
REMARK  Name = 
REMARK  6 active torsions:
REMARK  status: ('A' for Active; 'I' for Inactive)
REMARK    1  A    between atoms: C_1  and  C_2
REMARK    2  A    between atoms: C_2  and  C_3
REMARK    3  A    between atoms: C_2  and  C_4
REMARK    4  A    between atoms: C_4  and  C_5
REMARK    5  A    between atoms: C_5  and  N_6
REMARK    6  A    between atoms: C_7  and  C_9
REMARK                            x       y       z     vdW  Elec       q    Type
REMARK                         _______ _______ _______ _____ _____    ______ ____
ROOT
ATOM      1  C   UNL     1       3.626   5.872  17.723  0.00  0.00    +0.000 A 
ATOM      2  C   UNL     1       3.721   7.201  17.314  0.00  0.00    +0.000 A 
ATOM      3  C   UNL     1       2.972   8.175  17.982  0.00  0.00    +0.000 A 
ATOM      4  C   UNL     1       2.177   7.794  19.060  0.00  0.00    +0.000 A 
ATOM      5  N   UNL     1       1.413   8.724  19.779  0.00  0.00    +0.000 N 
ATOM      6  C   UNL     1       0.555   9.589  19.141  0.00  0.00    +0.000 C 
ATOM      7  O   UNL     1       0.383   9.613  17.924  0.00  0.00    +0.000 OA
ATOM      8  N   UNL     1      -0.161  10.411  19.981  0.00  0.00    +0.000 N 
ATOM      9  C   UNL     1      -1.272  11.196  19.451  0.00  0.00    +0.000 C 
ATOM     10  C   UNL     1      -1.664  12.075  20.594  0.00  0.00    +0.000 A 
ATOM     11  C   UNL     1      -2.702  12.989  20.662  0.00  0.00    +0.000 A 
ATOM     12  C   UNL     1      -2.853  13.729  21.836  0.00  0.00    +0.000 A 
ATOM     13  C   UNL     1      -1.974  13.544  22.914  0.00  0.00    +0.000 A 
ATOM     14  C   UNL     1      -0.934  12.614  22.838  0.00  0.00    +0.000 A 
ATOM     15  C   UNL     1      -0.793  11.878  21.673  0.00  0.00    +0.000 A 
ATOM     16  C   UNL     1       0.222  10.831  21.331  0.00  0.00    +0.000 C 
ATOM     17  N   UNL     1       2.111   6.524  19.507  0.00  0.00    +0.000 NA
ATOM     18  C   UNL     1       2.794   5.584  18.798  0.00  0.00    +0.000 A 
ATOM     19  H   UNL     1       1.011   8.304  20.605  0.00  0.00    +0.000 HD
ENDROOT
BRANCH   1  21
ATOM     20  N   UNL     1       5.405   5.114  16.249  0.00  0.00    +0.000 N 
ATOM     21  C   UNL     1       4.348   4.760  17.058  0.00  0.00    +0.000 C 
ATOM     22  O   UNL     1       4.010   3.602  17.275  0.00  0.00    +0.000 OA
ATOM     23  H   UNL     1       5.699   6.078  16.192  0.00  0.00    +0.000 HD
BRANCH  20  24
ATOM     24  C   UNL     1       6.199   4.127  15.540  0.00  0.00    +0.000 C 
BRANCH  24  25
ATOM     25  C   UNL     1       6.636   4.609  14.153  0.00  0.00    +0.000 C 
BRANCH  25  27
ATOM     26  C   UNL     1       4.879   3.540  12.637  0.00  0.00    +0.000 C 
ATOM     27  C   UNL     1       6.361   3.617  13.005  0.00  0.00    +0.000 C 
ATOM     28  C   UNL     1       7.174   4.010  11.767  0.00  0.00    +0.000 C 
ENDBRANCH  25  27
ENDBRANCH  24  25
ENDBRANCH  20  24
ENDBRANCH   1  21
TORSDOF 4
ENDMDL
MODEL 8
REMARK VINA RESULT:      -7.3      4.411      6.769
REMARK  Name = 
REMARK  6 active torsions:
REMARK  status: ('A' for Active; 'I' for Inactive)
REMARK    1  A    between atoms: C_1  and  C_2
REMARK    2  A    between atoms: C_2  and  C_3
REMARK    3  A    between atoms: C_2  and  C_4
REMARK    4  A    between atoms: C_4  and  C_5
REMARK    5  A    between atoms: C_5  and  N_6
REMARK    6  A    between atoms: C_7  and  C_9
REMARK                            x       y       z     vdW  Elec       q    Type
REMARK                         _______ _______ _______ _____ _____    ______ ____
ROOT
ATOM      1  C   UNL     1       1.424   8.340  19.882  0.00  0.00    +0.000 A 
ATOM      2  C   UNL     1       0.760   8.151  21.092  0.00  0.00    +0.000 A 
ATOM      3  C   UNL     1      -0.140   9.125  21.535  0.00  0.00    +0.000 A 
ATOM      4  C   UNL     1      -0.372  10.243  20.738  0.00  0.00    +0.000 A 
ATOM      5  N   UNL     1      -1.271  11.249  21.119  0.00  0.00    +0.000 N 
ATOM      6  C   UNL     1      -1.191  11.847  22.355  0.00  0.00    +0.000 C 
ATOM      7  O   UNL     1      -0.343  11.566  23.201  0.00  0.00    +0.000 OA
ATOM      8  N   UNL     1      -2.111  12.847  22.569  0.00  0.00    +0.000 N 
ATOM      9  C   UNL     1      -1.975  13.718  23.733  0.00  0.00    +0.000 C 
ATOM     10  C   UNL     1      -3.230  14.529  23.718  0.00  0.00    +0.000 A 
ATOM     11  C   UNL     1      -3.605  15.554  24.572  0.00  0.00    +0.000 A 
ATOM     12  C   UNL     1      -4.854  16.147  24.383  0.00  0.00    +0.000 A 
ATOM     13  C   UNL     1      -5.701  15.712  23.351  0.00  0.00    +0.000 A 
ATOM     14  C   UNL     1      -5.310  14.684  22.490  0.00  0.00    +0.000 A 
ATOM     15  C   UNL     1      -4.067  14.104  22.679  0.00  0.00    +0.000 A 
ATOM     16  C   UNL     1      -3.412  12.996  21.912  0.00  0.00    +0.000 C 
ATOM     17  N   UNL     1       0.220  10.421  19.539  0.00  0.00    +0.000 NA
ATOM     18  C   UNL     1       1.142   9.494  19.163  0.00  0.00    +0.000 A 
ATOM     19  H   UNL     1      -1.420  11.907  20.368  0.00  0.00    +0.000 HD
ENDROOT
BRANCH   1  21
ATOM     20  N   UNL     1       2.717   6.295  20.131  0.00  0.00    +0.000 N 
ATOM     21  C   UNL     1       2.425   7.386  19.343  0.00  0.00    +0.000 C 
ATOM     22  O   UNL     1       2.912   7.581  18.235  0.00  0.00    +0.000 OA
ATOM     23  H   UNL     1       2.206   6.137  20.988  0.00  0.00    +0.000 HD
BRANCH  20  24
ATOM     24  C   UNL     1       3.675   5.283  19.724  0.00  0.00    +0.000 C 
BRANCH  24  25
ATOM     25  C   UNL     1       3.019   3.923  19.463  0.00  0.00    +0.000 C 
BRANCH  25  27
ATOM     26  C   UNL     1       0.731   2.786  19.424  0.00  0.00    +0.000 C 
ATOM     27  C   UNL     1       1.684   3.695  20.201  0.00  0.00    +0.000 C 
ATOM     28  C   UNL     1       1.948   3.094  21.585  0.00  0.00    +0.000 C 
ENDBRANCH  25  27
ENDBRANCH  24  25
ENDBRANCH  20  24
ENDBRANCH   1  21
TORSDOF 4
ENDMDL
MODEL 9
REMARK VINA RESULT:      -7.2      2.934      4.829
REMARK  Name = 
REMARK  6 active torsions:
REMARK  status: ('A' for Active; 'I' for Inactive)
REMARK    1  A    between atoms: C_1  and  C_2
REMARK    2  A    between atoms: C_2  and  C_3
REMARK    3  A    between atoms: C_2  and  C_4
REMARK    4  A    between atoms: C_4  and  C_5
REMARK    5  A    between atoms: C_5  and  N_6
REMARK    6  A    between atoms: C_7  and  C_9
REMARK                            x       y       z     vdW  Elec       q    Type
REMARK                         _______ _______ _______ _____ _____    ______ ____
ROOT
ATOM      1  C   UNL     1       2.837   7.218  18.557  0.00  0.00    +0.000 A 
ATOM      2  C   UNL     1       2.249   7.169  19.819  0.00  0.00    +0.000 A 
ATOM      3  C   UNL     1       1.389   8.200  20.211  0.00  0.00    +0.000 A 
ATOM      4  C   UNL     1       1.117   9.231  19.315  0.00  0.00    +0.000 A 
ATOM      5  N   UNL     1       0.254  10.286  19.642  0.00  0.00    +0.000 N 
ATOM      6  C   UNL     1       0.418  11.010  20.799  0.00  0.00    +0.000 C 
ATOM      7  O   UNL     1       1.315  10.807  21.616  0.00  0.00    +0.000 OA
ATOM      8  N   UNL     1      -0.477  12.042  20.962  0.00  0.00    +0.000 N 
ATOM      9  C   UNL     1      -0.259  13.029  22.016  0.00  0.00    +0.000 C 
ATOM     10  C   UNL     1      -1.505  13.854  21.993  0.00  0.00    +0.000 A 
ATOM     11  C   UNL     1      -1.814  14.970  22.754  0.00  0.00    +0.000 A 
ATOM     12  C   UNL     1      -3.067  15.559  22.581  0.00  0.00    +0.000 A 
ATOM     13  C   UNL     1      -3.982  15.032  21.657  0.00  0.00    +0.000 A 
ATOM     14  C   UNL     1      -3.657  13.912  20.887  0.00  0.00    +0.000 A 
ATOM     15  C   UNL     1      -2.410  13.335  21.059  0.00  0.00    +0.000 A 
ATOM     16  C   UNL     1      -1.816  12.141  20.375  0.00  0.00    +0.000 C 
ATOM     17  N   UNL     1       1.632   9.271  18.069  0.00  0.00    +0.000 NA
ATOM     18  C   UNL     1       2.520   8.294  17.737  0.00  0.00    +0.000 A 
ATOM     19  H   UNL     1       0.063  10.863  18.836  0.00  0.00    +0.000 HD
ENDROOT
BRANCH   1  21
ATOM     20  N   UNL     1       4.521   6.534  16.941  0.00  0.00    +0.000 N 
ATOM     21  C   UNL     1       3.792   6.197  18.061  0.00  0.00    +0.000 C 
ATOM     22  O   UNL     1       3.917   5.139  18.666  0.00  0.00    +0.000 OA
ATOM     23  H   UNL     1       4.447   7.461  16.548  0.00  0.00    +0.000 HD
BRANCH  20  24
ATOM     24  C   UNL     1       5.492   5.630  16.351  0.00  0.00    +0.000 C 
BRANCH  24  25
ATOM     25  C   UNL     1       6.937   6.054  16.634  0.00  0.00    +0.000 C 
BRANCH  25  27
ATOM     26  C   UNL     1       7.897   6.011  19.001  0.00  0.00    +0.000 C 
ATOM     27  C   UNL     1       7.140   6.827  17.953  0.00  0.00    +0.000 C 
ATOM     28  C   UNL     1       7.892   8.134  17.683  0.00  0.00    +0.000 C 
ENDBRANCH  25  27
ENDBRANCH  24  25
ENDBRANCH  20  24
ENDBRANCH   1  21
TORSDOF 4
ENDMDL
