MODEL 1
REMARK VINA RESULT:      -7.1      0.000      0.000
REMARK  Name = 
REMARK  15 active torsions:
REMARK  status: ('A' for Active; 'I' for Inactive)
REMARK    1  A    between atoms: C_1  and  C_2
REMARK    2  A    between atoms: C_2  and  C_3
REMARK    3  A    between atoms: C_4  and  C_5
REMARK    4  A    between atoms: C_5  and  C_6
REMARK    5  A    between atoms: C_6  and  C_7
REMARK    6  A    between atoms: C_7  and  C_8
REMARK    7  A    between atoms: C_9  and  C_10
REMARK    8  A    between atoms: C_10  and  C_11
REMARK    9  A    between atoms: C_11  and  C_12
REMARK   10  A    between atoms: C_12  and  C_13
REMARK   11  A    between atoms: C_14  and  C_15
REMARK   12  A    between atoms: C_15  and  S_16
REMARK   13  A    between atoms: S_16  and  C_17
REMARK   14  A    between atoms: C_23  and  C_24
REMARK   15  A    between atoms: C_24  and  O_26
REMARK                            x       y       z     vdW  Elec       q    Type
REMARK                         _______ _______ _______ _____ _____    ______ ____
ROOT
ATOM      1  C   UNL     1       2.327   3.528  20.696  0.00  0.00    +0.000 C 
ATOM      2  C   UNL     1       0.890   3.090  20.808  0.00  0.00    +0.000 C 
ATOM      3  C   UNL     1       2.671   4.833  20.702  0.00  0.00    +0.000 C 
ENDROOT
BRANCH   1   4
ATOM      4  C   UNL     1       3.382   2.442  20.567  0.00  0.00    +0.000 C 
BRANCH   4   5
ATOM      5  C   UNL     1       3.573   2.001  19.114  0.00  0.00    +0.000 C 
BRANCH   5   8
ATOM      6  C   UNL     1       3.851   3.771  17.355  0.00  0.00    +0.000 C 
ATOM      7  C   UNL     1       2.354   3.758  17.141  0.00  0.00    +0.000 C 
ATOM      8  C   UNL     1       4.401   2.944  18.276  0.00  0.00    +0.000 C 
BRANCH   6   9
ATOM      9  C   UNL     1       4.736   4.710  16.548  0.00  0.00    +0.000 C 
BRANCH   9  10
ATOM     10  C   UNL     1       6.227   4.352  16.519  0.00  0.00    +0.000 C 
BRANCH  10  14
ATOM     11  C   UNL     1       8.233   6.145  19.331  0.00  0.00    +0.000 C 
ATOM     12  C   UNL     1       7.438   5.924  18.080  0.00  0.00    +0.000 C 
ATOM     13  C   UNL     1       7.191   7.119  17.195  0.00  0.00    +0.000 C 
ATOM     14  C   UNL     1       6.957   4.700  17.781  0.00  0.00    +0.000 C 
ENDBRANCH  10  14
ENDBRANCH   9  10
ENDBRANCH   6   9
ENDBRANCH   5   8
ENDBRANCH   4   5
ENDBRANCH   1   4
BRANCH   3  15
ATOM     15  C   UNL     1       1.699   5.969  20.812  0.00  0.00    +0.000 C 
BRANCH  15  16
ATOM     16  S   UNL     1       2.204   7.332  19.707  0.00  0.00    +0.000 S 
BRANCH  16  17
ATOM     17  C   UNL     1       1.232   8.647  20.434  0.00  0.00    +0.000 A 
ATOM     18  C   UNL     1       1.036   8.580  21.823  0.00  0.00    +0.000 A 
ATOM     19  C   UNL     1       0.292   9.556  22.476  0.00  0.00    +0.000 A 
ATOM     20  F   UNL     1       0.108   9.468  23.798  0.00  0.00    +0.000 F 
ATOM     21  C   UNL     1      -0.264  10.615  21.777  0.00  0.00    +0.000 A 
ATOM     22  C   UNL     1      -0.077  10.696  20.396  0.00  0.00    +0.000 A 
ATOM     23  C   UNL     1       0.674   9.720  19.712  0.00  0.00    +0.000 A 
BRANCH  23  24
ATOM     24  C   UNL     1       0.770   9.907  18.236  0.00  0.00    +0.000 C 
ATOM     25  O   UNL     1       1.847   9.958  17.662  0.00  0.00    +0.000 OA
BRANCH  24  26
ATOM     26  O   UNL     1      -0.402   9.934  17.572  0.00  0.00    +0.000 OA
ATOM     27  H   UNL     1      -0.908   9.097  17.603  0.00  0.00    +0.000 HD
ENDBRANCH  24  26
ENDBRANCH  23  24
ENDBRANCH  16  17
ENDBRANCH  15  16
ENDBRANCH   3  15
TORSDOF 11
ENDMDL
MODEL 2
REMARK VINA RESULT:      -7.0      5.678      8.651
REMARK  Name = 
REMARK  15 active torsions:
REMARK  status: ('A' for Active; 'I' for Inactive)
REMARK    1  A    between atoms: C_1  and  C_2
REMARK    2  A    between atoms: C_2  and  C_3
REMARK    3  A    between atoms: C_4  and  C_5
REMARK    4  A    between atoms: C_5  and  C_6
REMARK    5  A    between atoms: C_6  and  C_7
REMARK    6  A    between atoms: C_7  and  C_8
REMARK    7  A    between atoms: C_9  and  C_10
REMARK    8  A    between atoms: C_10  and  C_11
REMARK    9  A    between atoms: C_11  and  C_12
REMARK   10  A    between atoms: C_12  and  C_13
REMARK   11  A    between atoms: C_14  and  C_15
REMARK   12  A    between atoms: C_15  and  S_16
REMARK   13  A    between atoms: S_16  and  C_17
REMARK   14  A    between atoms: C_23  and  C_24
REMARK   15  A    between atoms: C_24  and  O_26
REMARK                            x       y       z     vdW  Elec       q    Type
REMARK                         _______ _______ _______ _____ _____    ______ ____
ROOT
ATOM      1  C   UNL     1       7.579   7.548  17.796  0.00  0.00    +0.000 C 
ATOM      2  C   UNL     1       8.168   6.662  18.863  0.00  0.00    +0.000 C 
ATOM      3  C   UNL     1       7.967   8.833  17.649  0.00  0.00    +0.000 C 
ENDROOT
BRANCH   1   4
ATOM      4  C   UNL     1       6.518   6.943  16.891  0.00  0.00    +0.000 C 
BRANCH   4   5
ATOM      5  C   UNL     1       5.135   6.948  17.548  0.00  0.00    +0.000 C 
BRANCH   5   8
ATOM      6  C   UNL     1       4.134   4.662  17.820  0.00  0.00    +0.000 C 
ATOM      7  C   UNL     1       4.953   4.480  19.079  0.00  0.00    +0.000 C 
ATOM      8  C   UNL     1       4.234   5.816  17.120  0.00  0.00    +0.000 C 
BRANCH   6   9
ATOM      9  C   UNL     1       3.198   3.560  17.346  0.00  0.00    +0.000 C 
BRANCH   9  10
ATOM     10  C   UNL     1       1.753   3.658  17.850  0.00  0.00    +0.000 C 
BRANCH  10  14
ATOM     11  C   UNL     1       1.330   2.660  21.589  0.00  0.00    +0.000 C 
ATOM     12  C   UNL     1       1.492   3.498  20.357  0.00  0.00    +0.000 C 
ATOM     13  C   UNL     1       1.614   4.989  20.543  0.00  0.00    +0.000 C 
ATOM     14  C   UNL     1       1.511   2.926  19.136  0.00  0.00    +0.000 C 
ENDBRANCH  10  14
ENDBRANCH   9  10
ENDBRANCH   6   9
ENDBRANCH   5   8
ENDBRANCH   4   5
ENDBRANCH   1   4
BRANCH   3  15
ATOM     15  C   UNL     1       8.994   9.514  18.502  0.00  0.00    +0.000 C 
BRANCH  15  16
ATOM     16  S   UNL     1       8.358  11.125  19.078  0.00  0.00    +0.000 S 
BRANCH  16  17
ATOM     17  C   UNL     1       9.876  12.068  18.986  0.00  0.00    +0.000 A 
ATOM     18  C   UNL     1      10.529  12.074  17.742  0.00  0.00    +0.000 A 
ATOM     19  C   UNL     1      11.718  12.776  17.576  0.00  0.00    +0.000 A 
ATOM     20  F   UNL     1      12.330  12.760  16.386  0.00  0.00    +0.000 F 
ATOM     21  C   UNL     1      12.278  13.488  18.624  0.00  0.00    +0.000 A 
ATOM     22  C   UNL     1      11.640  13.492  19.865  0.00  0.00    +0.000 A 
ATOM     23  C   UNL     1      10.434  12.789  20.059  0.00  0.00    +0.000 A 
BRANCH  23  24
ATOM     24  C   UNL     1       9.875  12.850  21.439  0.00  0.00    +0.000 C 
ATOM     25  O   UNL     1       9.567  13.908  21.964  0.00  0.00    +0.000 OA
BRANCH  24  26
ATOM     26  O   UNL     1       9.656  11.661  22.034  0.00  0.00    +0.000 OA
ATOM     27  H   UNL     1       8.983  11.677  22.745  0.00  0.00    +0.000 HD
ENDBRANCH  24  26
ENDBRANCH  23  24
ENDBRANCH  16  17
ENDBRANCH  15  16
ENDBRANCH   3  15
TORSDOF 11
ENDMDL
MODEL 3
REMARK VINA RESULT:      -7.0      3.727      5.321
REMARK  Name = 
REMARK  15 active torsions:
REMARK  status: ('A' for Active; 'I' for Inactive)
REMARK    1  A    between atoms: C_1  and  C_2
REMARK    2  A    between atoms: C_2  and  C_3
REMARK    3  A    between atoms: C_4  and  C_5
REMARK    4  A    between atoms: C_5  and  C_6
REMARK    5  A    between atoms: C_6  and  C_7
REMARK    6  A    between atoms: C_7  and  C_8
REMARK    7  A    between atoms: C_9  and  C_10
REMARK    8  A    between atoms: C_10  and  C_11
REMARK    9  A    between atoms: C_11  and  C_12
REMARK   10  A    between atoms: C_12  and  C_13
REMARK   11  A    between atoms: C_14  and  C_15
REMARK   12  A    between atoms: C_15  and  S_16
REMARK   13  A    between atoms: S_16  and  C_17
REMARK   14  A    between atoms: C_23  and  C_24
REMARK   15  A    between atoms: C_24  and  O_26
REMARK                            x       y       z     vdW  Elec       q    Type
REMARK                         _______ _______ _______ _____ _____    ______ ____
ROOT
ATOM      1  C   UNL     1       2.426   8.025  18.424  0.00  0.00    +0.000 C 
ATOM      2  C   UNL     1       2.303   7.075  19.587  0.00  0.00    +0.000 C 
ATOM      3  C   UNL     1       1.701   9.161  18.358  0.00  0.00    +0.000 C 
ENDROOT
BRANCH   1   4
ATOM      4  C   UNL     1       3.396   7.652  17.314  0.00  0.00    +0.000 C 
BRANCH   4   5
ATOM      5  C   UNL     1       4.334   6.516  17.733  0.00  0.00    +0.000 C 
BRANCH   5   8
ATOM      6  C   UNL     1       5.712   4.692  16.698  0.00  0.00    +0.000 C 
ATOM      7  C   UNL     1       6.633   4.740  17.897  0.00  0.00    +0.000 C 
ATOM      8  C   UNL     1       4.649   5.527  16.638  0.00  0.00    +0.000 C 
BRANCH   6   9
ATOM      9  C   UNL     1       5.973   3.706  15.568  0.00  0.00    +0.000 C 
BRANCH   9  10
ATOM     10  C   UNL     1       5.772   4.257  14.151  0.00  0.00    +0.000 C 
BRANCH  10  14
ATOM     11  C   UNL     1       6.585   2.072  11.033  0.00  0.00    +0.000 C 
ATOM     12  C   UNL     1       5.836   2.947  11.993  0.00  0.00    +0.000 C 
ATOM     13  C   UNL     1       4.394   3.250  11.674  0.00  0.00    +0.000 C 
ATOM     14  C   UNL     1       6.448   3.446  13.086  0.00  0.00    +0.000 C 
ENDBRANCH  10  14
ENDBRANCH   9  10
ENDBRANCH   6   9
ENDBRANCH   5   8
ENDBRANCH   4   5
ENDBRANCH   1   4
BRANCH   3  15
ATOM     15  C   UNL     1       0.714   9.601  19.397  0.00  0.00    +0.000 C 
BRANCH  15  16
ATOM     16  S   UNL     1       0.289  11.359  19.150  0.00  0.00    +0.000 S 
BRANCH  16  17
ATOM     17  C   UNL     1      -1.376  11.153  18.526  0.00  0.00    +0.000 A 
ATOM     18  C   UNL     1      -1.533  10.255  17.458  0.00  0.00    +0.000 A 
ATOM     19  C   UNL     1      -2.789  10.033  16.906  0.00  0.00    +0.000 A 
ATOM     20  F   UNL     1      -2.915   9.180  15.881  0.00  0.00    +0.000 F 
ATOM     21  C   UNL     1      -3.910  10.683  17.397  0.00  0.00    +0.000 A 
ATOM     22  C   UNL     1      -3.769  11.577  18.458  0.00  0.00    +0.000 A 
ATOM     23  C   UNL     1      -2.507  11.819  19.037  0.00  0.00    +0.000 A 
BRANCH  23  24
ATOM     24  C   UNL     1      -2.492  12.820  20.141  0.00  0.00    +0.000 C 
ATOM     25  O   UNL     1      -2.817  12.527  21.281  0.00  0.00    +0.000 OA
BRANCH  24  26
ATOM     26  O   UNL     1      -2.021  14.040  19.818  0.00  0.00    +0.000 OA
ATOM     27  H   UNL     1      -1.051  14.085  19.697  0.00  0.00    +0.000 HD
ENDBRANCH  24  26
ENDBRANCH  23  24
ENDBRANCH  16  17
ENDBRANCH  15  16
ENDBRANCH   3  15
TORSDOF 11
ENDMDL
MODEL 4
REMARK VINA RESULT:      -7.0      2.192      3.192
REMARK  Name = 
REMARK  15 active torsions:
REMARK  status: ('A' for Active; 'I' for Inactive)
REMARK    1  A    between atoms: C_1  and  C_2
REMARK    2  A    between atoms: C_2  and  C_3
REMARK    3  A    between atoms: C_4  and  C_5
REMARK    4  A    between atoms: C_5  and  C_6
REMARK    5  A    between atoms: C_6  and  C_7
REMARK    6  A    between atoms: C_7  and  C_8
REMARK    7  A    between atoms: C_9  and  C_10
REMARK    8  A    between atoms: C_10  and  C_11
REMARK    9  A    between atoms: C_11  and  C_12
REMARK   10  A    between atoms: C_12  and  C_13
REMARK   11  A    between atoms: C_14  and  C_15
REMARK   12  A    between atoms: C_15  and  S_16
REMARK   13  A    between atoms: S_16  and  C_17
REMARK   14  A    between atoms: C_23  and  C_24
REMARK   15  A    between atoms: C_24  and  O_26
REMARK                            x       y       z     vdW  Elec       q    Type
REMARK                         _______ _______ _______ _____ _____    ______ ____
ROOT
ATOM      1  C   UNL     1       2.321   4.711  19.592  0.00  0.00    +0.000 C 
ATOM      2  C   UNL     1       1.098   4.228  20.326  0.00  0.00    +0.000 C 
ATOM      3  C   UNL     1       2.716   6.001  19.647  0.00  0.00    +0.000 C 
ENDROOT
BRANCH   1   4
ATOM      4  C   UNL     1       3.097   3.691  18.775  0.00  0.00    +0.000 C 
BRANCH   4   5
ATOM      5  C   UNL     1       3.106   4.042  17.284  0.00  0.00    +0.000 C 
BRANCH   5   8
ATOM      6  C   UNL     1       5.235   4.678  16.116  0.00  0.00    +0.000 C 
ATOM      7  C   UNL     1       4.880   6.135  16.314  0.00  0.00    +0.000 C 
ATOM      8  C   UNL     1       4.397   3.718  16.572  0.00  0.00    +0.000 C 
BRANCH   6   9
ATOM      9  C   UNL     1       6.529   4.290  15.415  0.00  0.00    +0.000 C 
BRANCH   9  10
ATOM     10  C   UNL     1       6.740   4.908  14.028  0.00  0.00    +0.000 C 
BRANCH  10  14
ATOM     11  C   UNL     1       6.839   2.198  11.235  0.00  0.00    +0.000 C 
ATOM     12  C   UNL     1       6.318   3.232  12.187  0.00  0.00    +0.000 C 
ATOM     13  C   UNL     1       4.830   3.476  12.199  0.00  0.00    +0.000 C 
ATOM     14  C   UNL     1       7.162   3.919  12.983  0.00  0.00    +0.000 C 
ENDBRANCH  10  14
ENDBRANCH   9  10
ENDBRANCH   6   9
ENDBRANCH   5   8
ENDBRANCH   4   5
ENDBRANCH   1   4
BRANCH   3  15
ATOM     15  C   UNL     1       2.007   7.076  20.416  0.00  0.00    +0.000 C 
BRANCH  15  16
ATOM     16  S   UNL     1       1.702   8.516  19.338  0.00  0.00    +0.000 S 
BRANCH  16  17
ATOM     17  C   UNL     1       0.780   9.529  20.490  0.00  0.00    +0.000 A 
ATOM     18  C   UNL     1       0.694   9.050  21.808  0.00  0.00    +0.000 A 
ATOM     19  C   UNL     1      -0.004   9.768  22.772  0.00  0.00    +0.000 A 
ATOM     20  F   UNL     1      -0.084   9.289  24.019  0.00  0.00    +0.000 F 
ATOM     21  C   UNL     1      -0.621  10.969  22.460  0.00  0.00    +0.000 A 
ATOM     22  C   UNL     1      -0.542  11.458  21.155  0.00  0.00    +0.000 A 
ATOM     23  C   UNL     1       0.160  10.750  20.160  0.00  0.00    +0.000 A 
BRANCH  23  24
ATOM     24  C   UNL     1       0.139  11.366  18.803  0.00  0.00    +0.000 C 
ATOM     25  O   UNL     1       0.769  12.380  18.546  0.00  0.00    +0.000 OA
BRANCH  24  26
ATOM     26  O   UNL     1      -0.550  10.689  17.864  0.00  0.00    +0.000 OA
ATOM     27  H   UNL     1      -0.093  10.605  17.003  0.00  0.00    +0.000 HD
ENDBRANCH  24  26
ENDBRANCH  23  24
ENDBRANCH  16  17
ENDBRANCH  15  16
ENDBRANCH   3  15
TORSDOF 11
ENDMDL
MODEL 5
REMARK VINA RESULT:      -7.0      5.432      8.461
REMARK  Name = 
REMARK  15 active torsions:
REMARK  status: ('A' for Active; 'I' for Inactive)
REMARK    1  A    between atoms: C_1  and  C_2
REMARK    2  A    between atoms: C_2  and  C_3
REMARK    3  A    between atoms: C_4  and  C_5
REMARK    4  A    between atoms: C_5  and  C_6
REMARK    5  A    between atoms: C_6  and  C_7
REMARK    6  A    between atoms: C_7  and  C_8
REMARK    7  A    between atoms: C_9  and  C_10
REMARK    8  A    between atoms: C_10  and  C_11
REMARK    9  A    between atoms: C_11  and  C_12
REMARK   10  A    between atoms: C_12  and  C_13
REMARK   11  A    between atoms: C_14  and  C_15
REMARK   12  A    between atoms: C_15  and  S_16
REMARK   13  A    between atoms: S_16  and  C_17
REMARK   14  A    between atoms: C_23  and  C_24
REMARK   15  A    between atoms: C_24  and  O_26
REMARK                            x       y       z     vdW  Elec       q    Type
REMARK                         _______ _______ _______ _____ _____    ______ ____
ROOT
ATOM      1  C   UNL     1       7.365   7.086  17.918  0.00  0.00    +0.000 C 
ATOM      2  C   UNL     1       8.172   6.423  19.003  0.00  0.00    +0.000 C 
ATOM      3  C   UNL     1       6.305   6.474  17.349  0.00  0.00    +0.000 C 
ENDROOT
BRANCH   1   4
ATOM      4  C   UNL     1       7.795   8.476  17.475  0.00  0.00    +0.000 C 
BRANCH   4   5
ATOM      5  C   UNL     1       8.527   9.229  18.589  0.00  0.00    +0.000 C 
BRANCH   5   8
ATOM      6  C   UNL     1       9.921  11.282  18.967  0.00  0.00    +0.000 C 
ATOM      7  C   UNL     1       9.692  11.134  20.455  0.00  0.00    +0.000 C 
ATOM      8  C   UNL     1       9.370  10.387  18.114  0.00  0.00    +0.000 C 
BRANCH   6   9
ATOM      9  C   UNL     1      10.773  12.423  18.430  0.00  0.00    +0.000 C 
BRANCH   9  10
ATOM     10  C   UNL     1      10.694  13.735  19.221  0.00  0.00    +0.000 C 
BRANCH  10  14
ATOM     11  C   UNL     1       7.960  16.301  18.176  0.00  0.00    +0.000 C 
ATOM     12  C   UNL     1       9.268  15.572  18.235  0.00  0.00    +0.000 C 
ATOM     13  C   UNL     1      10.392  16.091  17.376  0.00  0.00    +0.000 C 
ATOM     14  C   UNL     1       9.411  14.485  19.021  0.00  0.00    +0.000 C 
ENDBRANCH  10  14
ENDBRANCH   9  10
ENDBRANCH   6   9
ENDBRANCH   5   8
ENDBRANCH   4   5
ENDBRANCH   1   4
BRANCH   3  15
ATOM     15  C   UNL     1       5.819   5.103  17.712  0.00  0.00    +0.000 C 
BRANCH  15  16
ATOM     16  S   UNL     1       5.049   5.131  19.366  0.00  0.00    +0.000 S 
BRANCH  16  17
ATOM     17  C   UNL     1       3.550   4.232  18.986  0.00  0.00    +0.000 A 
ATOM     18  C   UNL     1       2.672   4.843  18.075  0.00  0.00    +0.000 A 
ATOM     19  C   UNL     1       1.481   4.220  17.721  0.00  0.00    +0.000 A 
ATOM     20  F   UNL     1       0.654   4.825  16.860  0.00  0.00    +0.000 F 
ATOM     21  C   UNL     1       1.136   2.987  18.249  0.00  0.00    +0.000 A 
ATOM     22  C   UNL     1       1.998   2.367  19.154  0.00  0.00    +0.000 A 
ATOM     23  C   UNL     1       3.212   2.976  19.529  0.00  0.00    +0.000 A 
BRANCH  23  24
ATOM     24  C   UNL     1       4.024   2.223  20.526  0.00  0.00    +0.000 C 
ATOM     25  O   UNL     1       5.080   1.689  20.226  0.00  0.00    +0.000 OA
BRANCH  24  26
ATOM     26  O   UNL     1       3.560   2.241  21.791  0.00  0.00    +0.000 OA
ATOM     27  H   UNL     1       3.914   1.533  22.366  0.00  0.00    +0.000 HD
ENDBRANCH  24  26
ENDBRANCH  23  24
ENDBRANCH  16  17
ENDBRANCH  15  16
ENDBRANCH   3  15
TORSDOF 11
ENDMDL
MODEL 6
REMARK VINA RESULT:      -6.9      3.643      5.092
REMARK  Name = 
REMARK  15 active torsions:
REMARK  status: ('A' for Active; 'I' for Inactive)
REMARK    1  A    between atoms: C_1  and  C_2
REMARK    2  A    between atoms: C_2  and  C_3
REMARK    3  A    between atoms: C_4  and  C_5
REMARK    4  A    between atoms: C_5  and  C_6
REMARK    5  A    between atoms: C_6  and  C_7
REMARK    6  A    between atoms: C_7  and  C_8
REMARK    7  A    between atoms: C_9  and  C_10
REMARK    8  A    between atoms: C_10  and  C_11
REMARK    9  A    between atoms: C_11  and  C_12
REMARK   10  A    between atoms: C_12  and  C_13
REMARK   11  A    between atoms: C_14  and  C_15
REMARK   12  A    between atoms: C_15  and  S_16
REMARK   13  A    between atoms: S_16  and  C_17
REMARK   14  A    between atoms: C_23  and  C_24
REMARK   15  A    between atoms: C_24  and  O_26
REMARK                            x       y       z     vdW  Elec       q    Type
REMARK                         _______ _______ _______ _____ _____    ______ ____
ROOT
ATOM      1  C   UNL     1       1.404   9.029  18.844  0.00  0.00    +0.000 C 
ATOM      2  C   UNL     1       1.374   8.495  20.252  0.00  0.00    +0.000 C 
ATOM      3  C   UNL     1       0.816  10.200  18.518  0.00  0.00    +0.000 C 
ENDROOT
BRANCH   1   4
ATOM      4  C   UNL     1       2.117   8.195  17.793  0.00  0.00    +0.000 C 
BRANCH   4   5
ATOM      5  C   UNL     1       3.023   7.134  18.423  0.00  0.00    +0.000 C 
BRANCH   5   8
ATOM      6  C   UNL     1       4.382   5.130  17.760  0.00  0.00    +0.000 C 
ATOM      7  C   UNL     1       4.237   4.597  19.168  0.00  0.00    +0.000 C 
ATOM      8  C   UNL     1       3.812   6.314  17.432  0.00  0.00    +0.000 C 
BRANCH   6   9
ATOM      9  C   UNL     1       5.156   4.340  16.714  0.00  0.00    +0.000 C 
BRANCH   9  10
ATOM     10  C   UNL     1       6.677   4.532  16.734  0.00  0.00    +0.000 C 
BRANCH  10  14
ATOM     11  C   UNL     1       7.898   8.098  17.706  0.00  0.00    +0.000 C 
ATOM     12  C   UNL     1       7.582   6.636  17.798  0.00  0.00    +0.000 C 
ATOM     13  C   UNL     1       7.835   5.953  19.118  0.00  0.00    +0.000 C 
ATOM     14  C   UNL     1       7.105   5.969  16.727  0.00  0.00    +0.000 C 
ENDBRANCH  10  14
ENDBRANCH   9  10
ENDBRANCH   6   9
ENDBRANCH   5   8
ENDBRANCH   4   5
ENDBRANCH   1   4
BRANCH   3  15
ATOM     15  C   UNL     1       0.081  11.081  19.484  0.00  0.00    +0.000 C 
BRANCH  15  16
ATOM     16  S   UNL     1      -0.546  12.563  18.625  0.00  0.00    +0.000 S 
BRANCH  16  17
ATOM     17  C   UNL     1      -2.214  12.005  18.297  0.00  0.00    +0.000 A 
ATOM     18  C   UNL     1      -2.408  11.297  17.099  0.00  0.00    +0.000 A 
ATOM     19  C   UNL     1      -3.671  10.826  16.758  0.00  0.00    +0.000 A 
ATOM     20  F   UNL     1      -3.836  10.163  15.607  0.00  0.00    +0.000 F 
ATOM     21  C   UNL     1      -4.759  11.037  17.588  0.00  0.00    +0.000 A 
ATOM     22  C   UNL     1      -4.581  11.738  18.782  0.00  0.00    +0.000 A 
ATOM     23  C   UNL     1      -3.312  12.224  19.151  0.00  0.00    +0.000 A 
BRANCH  23  24
ATOM     24  C   UNL     1      -3.267  12.983  20.434  0.00  0.00    +0.000 C 
ATOM     25  O   UNL     1      -2.918  12.459  21.480  0.00  0.00    +0.000 OA
BRANCH  24  26
ATOM     26  O   UNL     1      -3.557  14.295  20.347  0.00  0.00    +0.000 OA
ATOM     27  H   UNL     1      -3.465  14.791  21.186  0.00  0.00    +0.000 HD
ENDBRANCH  24  26
ENDBRANCH  23  24
ENDBRANCH  16  17
ENDBRANCH  15  16
ENDBRANCH   3  15
TORSDOF 11
ENDMDL
MODEL 7
REMARK VINA RESULT:      -6.9      3.192      4.363
REMARK  Name = 
REMARK  15 active torsions:
REMARK  status: ('A' for Active; 'I' for Inactive)
REMARK    1  A    between atoms: C_1  and  C_2
REMARK    2  A    between atoms: C_2  and  C_3
REMARK    3  A    between atoms: C_4  and  C_5
REMARK    4  A    between atoms: C_5  and  C_6
REMARK    5  A    between atoms: C_6  and  C_7
REMARK    6  A    between atoms: C_7  and  C_8
REMARK    7  A    between atoms: C_9  and  C_10
REMARK    8  A    between atoms: C_10  and  C_11
REMARK    9  A    between atoms: C_11  and  C_12
REMARK   10  A    between atoms: C_12  and  C_13
REMARK   11  A    between atoms: C_14  and  C_15
REMARK   12  A    between atoms: C_15  and  S_16
REMARK   13  A    between atoms: S_16  and  C_17
REMARK   14  A    between atoms: C_23  and  C_24
REMARK   15  A    between atoms: C_24  and  O_26
REMARK                            x       y       z     vdW  Elec       q    Type
REMARK                         _______ _______ _______ _____ _____    ______ ____
ROOT
ATOM      1  C   UNL     1       2.398   7.800  18.645  0.00  0.00    +0.000 C 
ATOM      2  C   UNL     1       3.319   8.066  17.483  0.00  0.00    +0.000 C 
ATOM      3  C   UNL     1       1.370   8.625  18.937  0.00  0.00    +0.000 C 
ENDROOT
BRANCH   1   4
ATOM      4  C   UNL     1       2.674   6.566  19.489  0.00  0.00    +0.000 C 
BRANCH   4   5
ATOM      5  C   UNL     1       2.661   5.285  18.651  0.00  0.00    +0.000 C 
BRANCH   5   8
ATOM      6  C   UNL     1       4.218   4.049  17.118  0.00  0.00    +0.000 C 
ATOM      7  C   UNL     1       3.688   2.745  17.672  0.00  0.00    +0.000 C 
ATOM      8  C   UNL     1       3.729   5.221  17.587  0.00  0.00    +0.000 C 
BRANCH   6   9
ATOM      9  C   UNL     1       5.287   4.047  16.035  0.00  0.00    +0.000 C 
BRANCH   9  10
ATOM     10  C   UNL     1       6.717   4.317  16.518  0.00  0.00    +0.000 C 
BRANCH  10  14
ATOM     11  C   UNL     1       7.645   7.945  17.579  0.00  0.00    +0.000 C 
ATOM     12  C   UNL     1       7.381   6.472  17.655  0.00  0.00    +0.000 C 
ATOM     13  C   UNL     1       7.480   5.818  19.009  0.00  0.00    +0.000 C 
ATOM     14  C   UNL     1       7.082   5.771  16.542  0.00  0.00    +0.000 C 
ENDBRANCH  10  14
ENDBRANCH   9  10
ENDBRANCH   6   9
ENDBRANCH   5   8
ENDBRANCH   4   5
ENDBRANCH   1   4
BRANCH   3  15
ATOM     15  C   UNL     1       1.032   9.867  18.170  0.00  0.00    +0.000 C 
BRANCH  15  16
ATOM     16  S   UNL     1       0.219  11.077  19.267  0.00  0.00    +0.000 S 
BRANCH  16  17
ATOM     17  C   UNL     1      -1.423  11.030  18.557  0.00  0.00    +0.000 A 
ATOM     18  C   UNL     1      -1.593  10.196  17.440  0.00  0.00    +0.000 A 
ATOM     19  C   UNL     1      -2.833  10.097  16.819  0.00  0.00    +0.000 A 
ATOM     20  F   UNL     1      -2.972   9.305  15.749  0.00  0.00    +0.000 F 
ATOM     21  C   UNL     1      -3.925  10.808  17.289  0.00  0.00    +0.000 A 
ATOM     22  C   UNL     1      -3.772  11.640  18.399  0.00  0.00    +0.000 A 
ATOM     23  C   UNL     1      -2.526  11.757  19.047  0.00  0.00    +0.000 A 
BRANCH  23  24
ATOM     24  C   UNL     1      -2.491  12.702  20.199  0.00  0.00    +0.000 C 
ATOM     25  O   UNL     1      -2.587  12.314  21.353  0.00  0.00    +0.000 OA
BRANCH  24  26
ATOM     26  O   UNL     1      -2.267  13.993  19.889  0.00  0.00    +0.000 OA
ATOM     27  H   UNL     1      -1.729  14.133  19.084  0.00  0.00    +0.000 HD
ENDBRANCH  24  26
ENDBRANCH  23  24
ENDBRANCH  16  17
ENDBRANCH  15  16
ENDBRANCH   3  15
TORSDOF 11
ENDMDL
MODEL 8
REMARK VINA RESULT:      -6.9      3.333      7.935
REMARK  Name = 
REMARK  15 active torsions:
REMARK  status: ('A' for Active; 'I' for Inactive)
REMARK    1  A    between atoms: C_1  and  C_2
REMARK    2  A    between atoms: C_2  and  C_3
REMARK    3  A    between atoms: C_4  and  C_5
REMARK    4  A    between atoms: C_5  and  C_6
REMARK    5  A    between atoms: C_6  and  C_7
REMARK    6  A    between atoms: C_7  and  C_8
REMARK    7  A    between atoms: C_9  and  C_10
REMARK    8  A    between atoms: C_10  and  C_11
REMARK    9  A    between atoms: C_11  and  C_12
REMARK   10  A    between atoms: C_12  and  C_13
REMARK   11  A    between atoms: C_14  and  C_15
REMARK   12  A    between atoms: C_15  and  S_16
REMARK   13  A    between atoms: S_16  and  C_17
REMARK   14  A    between atoms: C_23  and  C_24
REMARK   15  A    between atoms: C_24  and  O_26
REMARK                            x       y       z     vdW  Elec       q    Type
REMARK                         _______ _______ _______ _____ _____    ______ ____
ROOT
ATOM      1  C   UNL     1       2.413   6.668  18.490  0.00  0.00    +0.000 C 
ATOM      2  C   UNL     1       2.272   6.575  19.987  0.00  0.00    +0.000 C 
ATOM      3  C   UNL     1       2.767   5.600  17.744  0.00  0.00    +0.000 C 
ENDROOT
BRANCH   1   4
ATOM      4  C   UNL     1       2.149   8.019  17.844  0.00  0.00    +0.000 C 
BRANCH   4   5
ATOM      5  C   UNL     1       1.740   9.075  18.875  0.00  0.00    +0.000 C 
BRANCH   5   8
ATOM      6  C   UNL     1      -0.357  10.404  19.244  0.00  0.00    +0.000 C 
ATOM      7  C   UNL     1      -0.386   9.915  20.675  0.00  0.00    +0.000 C 
ATOM      8  C   UNL     1       0.639  10.001  18.420  0.00  0.00    +0.000 C 
BRANCH   6   9
ATOM      9  C   UNL     1      -1.435  11.349  18.733  0.00  0.00    +0.000 C 
BRANCH   9  10
ATOM     10  C   UNL     1      -1.332  12.797  19.226  0.00  0.00    +0.000 C 
BRANCH  10  14
ATOM     11  C   UNL     1       2.019  14.679  18.609  0.00  0.00    +0.000 C 
ATOM     12  C   UNL     1       0.972  13.831  19.265  0.00  0.00    +0.000 C 
ATOM     13  C   UNL     1       1.277  13.291  20.638  0.00  0.00    +0.000 C 
ATOM     14  C   UNL     1      -0.187  13.560  18.630  0.00  0.00    +0.000 C 
ENDBRANCH  10  14
ENDBRANCH   9  10
ENDBRANCH   6   9
ENDBRANCH   5   8
ENDBRANCH   4   5
ENDBRANCH   1   4
BRANCH   3  15
ATOM     15  C   UNL     1       3.058   4.237  18.296  0.00  0.00    +0.000 C 
BRANCH  15  16
ATOM     16  S   UNL     1       4.423   3.464  17.364  0.00  0.00    +0.000 S 
BRANCH  16  17
ATOM     17  C   UNL     1       5.693   4.686  17.675  0.00  0.00    +0.000 A 
ATOM     18  C   UNL     1       6.247   4.693  18.966  0.00  0.00    +0.000 A 
ATOM     19  C   UNL     1       7.237   5.609  19.301  0.00  0.00    +0.000 A 
ATOM     20  F   UNL     1       7.744   5.605  20.539  0.00  0.00    +0.000 F 
ATOM     21  C   UNL     1       7.703   6.527  18.374  0.00  0.00    +0.000 A 
ATOM     22  C   UNL     1       7.163   6.531  17.087  0.00  0.00    +0.000 A 
ATOM     23  C   UNL     1       6.159   5.613  16.722  0.00  0.00    +0.000 A 
BRANCH  23  24
ATOM     24  C   UNL     1       5.648   5.747  15.328  0.00  0.00    +0.000 C 
ATOM     25  O   UNL     1       5.740   4.838  14.518  0.00  0.00    +0.000 OA
BRANCH  24  26
ATOM     26  O   UNL     1       5.007   6.899  15.049  0.00  0.00    +0.000 OA
ATOM     27  H   UNL     1       4.829   7.047  14.098  0.00  0.00    +0.000 HD
ENDBRANCH  24  26
ENDBRANCH  23  24
ENDBRANCH  16  17
ENDBRANCH  15  16
ENDBRANCH   3  15
TORSDOF 11
ENDMDL
MODEL 9
REMARK VINA RESULT:      -6.9      5.112      7.711
REMARK  Name = 
REMARK  15 active torsions:
REMARK  status: ('A' for Active; 'I' for Inactive)
REMARK    1  A    between atoms: C_1  and  C_2
REMARK    2  A    between atoms: C_2  and  C_3
REMARK    3  A    between atoms: C_4  and  C_5
REMARK    4  A    between atoms: C_5  and  C_6
REMARK    5  A    between atoms: C_6  and  C_7
REMARK    6  A    between atoms: C_7  and  C_8
REMARK    7  A    between atoms: C_9  and  C_10
REMARK    8  A    between atoms: C_10  and  C_11
REMARK    9  A    between atoms: C_11  and  C_12
REMARK   10  A    between atoms: C_12  and  C_13
REMARK   11  A    between atoms: C_14  and  C_15
REMARK   12  A    between atoms: C_15  and  S_16
REMARK   13  A    between atoms: S_16  and  C_17
REMARK   14  A    between atoms: C_23  and  C_24
REMARK   15  A    between atoms: C_24  and  O_26
REMARK                            x       y       z     vdW  Elec       q    Type
REMARK                         _______ _______ _______ _____ _____    ______ ____
ROOT
ATOM      1  C   UNL     1       7.368   6.983  17.996  0.00  0.00    +0.000 C 
ATOM      2  C   UNL     1       8.023   6.155  19.070  0.00  0.00    +0.000 C 
ATOM      3  C   UNL     1       7.720   8.269  17.779  0.00  0.00    +0.000 C 
ENDROOT
BRANCH   1   4
ATOM      4  C   UNL     1       6.282   6.320  17.164  0.00  0.00    +0.000 C 
BRANCH   4   5
ATOM      5  C   UNL     1       4.883   6.611  17.714  0.00  0.00    +0.000 C 
BRANCH   5   8
ATOM      6  C   UNL     1       2.695   5.423  18.033  0.00  0.00    +0.000 C 
ATOM      7  C   UNL     1       2.450   6.257  19.271  0.00  0.00    +0.000 C 
ATOM      8  C   UNL     1       3.833   5.600  17.322  0.00  0.00    +0.000 C 
BRANCH   6   9
ATOM      9  C   UNL     1       1.666   4.396  17.583  0.00  0.00    +0.000 C 
BRANCH   9  10
ATOM     10  C   UNL     1       1.478   3.195  18.517  0.00  0.00    +0.000 C 
BRANCH  10  14
ATOM     11  C   UNL     1       4.570   1.950  20.527  0.00  0.00    +0.000 C 
ATOM     12  C   UNL     1       3.226   2.535  20.216  0.00  0.00    +0.000 C 
ATOM     13  C   UNL     1       2.420   3.073  21.371  0.00  0.00    +0.000 C 
ATOM     14  C   UNL     1       2.765   2.558  18.949  0.00  0.00    +0.000 C 
ENDBRANCH  10  14
ENDBRANCH   9  10
ENDBRANCH   6   9
ENDBRANCH   5   8
ENDBRANCH   4   5
ENDBRANCH   1   4
BRANCH   3  15
ATOM     15  C   UNL     1       8.768   9.006  18.558  0.00  0.00    +0.000 C 
BRANCH  15  16
ATOM     16  S   UNL     1       9.169  10.581  17.729  0.00  0.00    +0.000 S 
BRANCH  16  17
ATOM     17  C   UNL     1       9.505  11.576  19.178  0.00  0.00    +0.000 A 
ATOM     18  C   UNL     1       8.966  11.110  20.389  0.00  0.00    +0.000 A 
ATOM     19  C   UNL     1       9.172  11.819  21.568  0.00  0.00    +0.000 A 
ATOM     20  F   UNL     1       8.641  11.364  22.709  0.00  0.00    +0.000 F 
ATOM     21  C   UNL     1       9.914  12.989  21.577  0.00  0.00    +0.000 A 
ATOM     22  C   UNL     1      10.456  13.462  20.381  0.00  0.00    +0.000 A 
ATOM     23  C   UNL     1      10.263  12.763  19.174  0.00  0.00    +0.000 A 
BRANCH  23  24
ATOM     24  C   UNL     1      10.868  13.394  17.966  0.00  0.00    +0.000 C 
ATOM     25  O   UNL     1      12.015  13.157  17.622  0.00  0.00    +0.000 OA
BRANCH  24  26
ATOM     26  O   UNL     1      10.044  14.173  17.239  0.00  0.00    +0.000 OA
ATOM     27  H   UNL     1      10.302  14.276  16.301  0.00  0.00    +0.000 HD
ENDBRANCH  24  26
ENDBRANCH  23  24
ENDBRANCH  16  17
ENDBRANCH  15  16
ENDBRANCH   3  15
TORSDOF 11
ENDMDL
