MODEL 1
REMARK VINA RESULT:      -7.6      0.000      0.000
REMARK  Name = 
REMARK  10 active torsions:
REMARK  status: ('A' for Active; 'I' for Inactive)
REMARK    1  A    between atoms: C_1  and  C_2
REMARK    2  A    between atoms: C_2  and  C_3
REMARK    3  A    between atoms: C_2  and  N_4
REMARK    4  A    between atoms: N_4  and  C_29
REMARK    5  A    between atoms: C_5  and  C_7
REMARK    6  A    between atoms: C_7  and  C_8
REMARK    7  A    between atoms: C_8  and  C_9
REMARK    8  A    between atoms: C_11  and  C_12
REMARK    9  A    between atoms: C_29  and  C_30
REMARK   10  A    between atoms: C_29  and  C_31
REMARK                            x       y       z     vdW  Elec       q    Type
REMARK                         _______ _______ _______ _____ _____    ______ ____
ROOT
ATOM      1  C   UNL     1       1.313   9.404  20.015  0.00  0.00    +0.000 C 
ATOM      2  N   UNL     1       0.108  10.010  20.594  0.00  0.00    +0.000 NA
ATOM      3  C   UNL     1      -0.021  11.296  20.563  0.00  0.00    +0.000 C 
ATOM      4  C   UNL     1       1.034  12.245  20.083  0.00  0.00    +0.000 A 
ATOM      5  C   UNL     1       1.257  13.413  20.829  0.00  0.00    +0.000 A 
ATOM      6  C   UNL     1       2.095  14.407  20.330  0.00  0.00    +0.000 A 
ATOM      7 CL   UNL     1       2.307  15.867  21.215  0.00  0.00    +0.000 Cl
ATOM      8  C   UNL     1       2.733  14.244  19.104  0.00  0.00    +0.000 A 
ATOM      9  C   UNL     1       2.537  13.071  18.371  0.00  0.00    +0.000 A 
ATOM     10  C   UNL     1       1.708  12.056  18.863  0.00  0.00    +0.000 A 
ATOM     11  N   UNL     1       1.569  10.909  18.066  0.00  0.00    +0.000 N 
ATOM     12  C   UNL     1       1.231   9.649  18.495  0.00  0.00    +0.000 C 
ATOM     13  O   UNL     1       0.946   8.787  17.664  0.00  0.00    +0.000 OA
ATOM     14  H   UNL     1       1.756  10.971  17.073  0.00  0.00    +0.000 HD
ENDROOT
BRANCH   3  15
ATOM     15  C   UNL     1      -1.339  11.845  21.015  0.00  0.00    +0.000 A 
ATOM     16  C   UNL     1      -2.198  12.414  20.065  0.00  0.00    +0.000 A 
ATOM     17  C   UNL     1      -3.418  12.967  20.462  0.00  0.00    +0.000 A 
ATOM     18  C   UNL     1      -3.784  12.959  21.807  0.00  0.00    +0.000 A 
ATOM     19  C   UNL     1      -2.925  12.414  22.761  0.00  0.00    +0.000 A 
ATOM     20  C   UNL     1      -1.709  11.876  22.365  0.00  0.00    +0.000 A 
ATOM     21  F   UNL     1      -0.888  11.411  23.320  0.00  0.00    +0.000 F 
ENDBRANCH   3  15
BRANCH   1  22
ATOM     22  C   UNL     1       1.316   7.910  20.384  0.00  0.00    +0.000 C 
BRANCH  22  23
ATOM     23  C   UNL     1       2.415   7.088  19.692  0.00  0.00    +0.000 C 
BRANCH  23  25
ATOM     24  N   UNL     1       3.184   4.749  19.112  0.00  0.00    +0.000 N 
ATOM     25  C   UNL     1       2.289   5.567  19.832  0.00  0.00    +0.000 C 
ATOM     26  O   UNL     1       1.382   5.110  20.525  0.00  0.00    +0.000 OA
BRANCH  24  28
ATOM     27  C   UNL     1       3.236   2.593  20.538  0.00  0.00    +0.000 C 
ATOM     28  C   UNL     1       3.068   3.259  19.166  0.00  0.00    +0.000 C 
ATOM     29  C   UNL     1       1.769   2.764  18.521  0.00  0.00    +0.000 C 
ENDBRANCH  24  28
BRANCH  24  30
ATOM     30  C   UNL     1       4.306   5.328  18.316  0.00  0.00    +0.000 C 
ATOM     31  C   UNL     1       5.614   5.245  19.104  0.00  0.00    +0.000 C 
ATOM     32  C   UNL     1       4.510   4.753  16.914  0.00  0.00    +0.000 C 
ENDBRANCH  24  30
ENDBRANCH  23  25
ENDBRANCH  22  23
ENDBRANCH   1  22
TORSDOF 6
ENDMDL
MODEL 2
REMARK VINA RESULT:      -7.6      0.853      1.213
REMARK  Name = 
REMARK  10 active torsions:
REMARK  status: ('A' for Active; 'I' for Inactive)
REMARK    1  A    between atoms: C_1  and  C_2
REMARK    2  A    between atoms: C_2  and  C_3
REMARK    3  A    between atoms: C_2  and  N_4
REMARK    4  A    between atoms: N_4  and  C_29
REMARK    5  A    between atoms: C_5  and  C_7
REMARK    6  A    between atoms: C_7  and  C_8
REMARK    7  A    between atoms: C_8  and  C_9
REMARK    8  A    between atoms: C_11  and  C_12
REMARK    9  A    between atoms: C_29  and  C_30
REMARK   10  A    between atoms: C_29  and  C_31
REMARK                            x       y       z     vdW  Elec       q    Type
REMARK                         _______ _______ _______ _____ _____    ______ ____
ROOT
ATOM      1  C   UNL     1       1.385   9.348  19.965  0.00  0.00    +0.000 C 
ATOM      2  N   UNL     1       0.242   9.946  20.664  0.00  0.00    +0.000 NA
ATOM      3  C   UNL     1       0.123  11.233  20.680  0.00  0.00    +0.000 C 
ATOM      4  C   UNL     1       1.142  12.187  20.136  0.00  0.00    +0.000 A 
ATOM      5  C   UNL     1       1.441  13.332  20.892  0.00  0.00    +0.000 A 
ATOM      6  C   UNL     1       2.242  14.334  20.350  0.00  0.00    +0.000 A 
ATOM      7 CL   UNL     1       2.545  15.766  21.254  0.00  0.00    +0.000 Cl
ATOM      8  C   UNL     1       2.769  14.201  19.069  0.00  0.00    +0.000 A 
ATOM      9  C   UNL     1       2.498  13.051  18.323  0.00  0.00    +0.000 A 
ATOM     10  C   UNL     1       1.705  12.028  18.858  0.00  0.00    +0.000 A 
ATOM     11  N   UNL     1       1.486  10.906  18.044  0.00  0.00    +0.000 N 
ATOM     12  C   UNL     1       1.174   9.637  18.466  0.00  0.00    +0.000 C 
ATOM     13  O   UNL     1       0.809   8.802  17.639  0.00  0.00    +0.000 OA
ATOM     14  H   UNL     1       1.586  10.995  17.041  0.00  0.00    +0.000 HD
ENDROOT
BRANCH   3  15
ATOM     15  C   UNL     1      -1.145  11.779  21.261  0.00  0.00    +0.000 A 
ATOM     16  C   UNL     1      -1.391  11.609  22.629  0.00  0.00    +0.000 A 
ATOM     17  C   UNL     1      -2.582  12.074  23.193  0.00  0.00    +0.000 A 
ATOM     18  C   UNL     1      -3.534  12.706  22.394  0.00  0.00    +0.000 A 
ATOM     19  C   UNL     1      -3.305  12.859  21.026  0.00  0.00    +0.000 A 
ATOM     20  C   UNL     1      -2.127  12.386  20.467  0.00  0.00    +0.000 A 
ATOM     21  F   UNL     1      -1.969  12.505  19.139  0.00  0.00    +0.000 F 
ENDBRANCH   3  15
BRANCH   1  22
ATOM     22  C   UNL     1       1.405   7.843  20.291  0.00  0.00    +0.000 C 
BRANCH  22  23
ATOM     23  C   UNL     1       2.553   7.066  19.626  0.00  0.00    +0.000 C 
BRANCH  23  25
ATOM     24  N   UNL     1       3.357   4.766  18.951  0.00  0.00    +0.000 N 
ATOM     25  C   UNL     1       2.440   5.539  19.691  0.00  0.00    +0.000 C 
ATOM     26  O   UNL     1       1.524   5.041  20.342  0.00  0.00    +0.000 OA
BRANCH  24  28
ATOM     27  C   UNL     1       3.417   2.543  20.272  0.00  0.00    +0.000 C 
ATOM     28  C   UNL     1       3.257   3.274  18.932  0.00  0.00    +0.000 C 
ATOM     29  C   UNL     1       1.969   2.798  18.250  0.00  0.00    +0.000 C 
ENDBRANCH  24  28
BRANCH  24  30
ATOM     30  C   UNL     1       4.489   5.392  18.208  0.00  0.00    +0.000 C 
ATOM     31  C   UNL     1       5.783   5.277  19.014  0.00  0.00    +0.000 C 
ATOM     32  C   UNL     1       4.724   4.892  16.781  0.00  0.00    +0.000 C 
ENDBRANCH  24  30
ENDBRANCH  23  25
ENDBRANCH  22  23
ENDBRANCH   1  22
TORSDOF 6
ENDMDL
MODEL 3
REMARK VINA RESULT:      -7.5      1.712      2.083
REMARK  Name = 
REMARK  10 active torsions:
REMARK  status: ('A' for Active; 'I' for Inactive)
REMARK    1  A    between atoms: C_1  and  C_2
REMARK    2  A    between atoms: C_2  and  C_3
REMARK    3  A    between atoms: C_2  and  N_4
REMARK    4  A    between atoms: N_4  and  C_29
REMARK    5  A    between atoms: C_5  and  C_7
REMARK    6  A    between atoms: C_7  and  C_8
REMARK    7  A    between atoms: C_8  and  C_9
REMARK    8  A    between atoms: C_11  and  C_12
REMARK    9  A    between atoms: C_29  and  C_30
REMARK   10  A    between atoms: C_29  and  C_31
REMARK                            x       y       z     vdW  Elec       q    Type
REMARK                         _______ _______ _______ _____ _____    ______ ____
ROOT
ATOM      1  C   UNL     1       1.034   9.486  19.759  0.00  0.00    +0.000 C 
ATOM      2  N   UNL     1      -0.355   9.938  19.615  0.00  0.00    +0.000 NA
ATOM      3  C   UNL     1      -0.580  11.158  19.251  0.00  0.00    +0.000 C 
ATOM      4  C   UNL     1       0.479  12.202  19.076  0.00  0.00    +0.000 A 
ATOM      5  C   UNL     1       0.220  13.491  19.570  0.00  0.00    +0.000 A 
ATOM      6  C   UNL     1       1.092  14.537  19.275  0.00  0.00    +0.000 A 
ATOM      7 CL   UNL     1       0.731  16.127  19.822  0.00  0.00    +0.000 Cl
ATOM      8  C   UNL     1       2.233  14.311  18.512  0.00  0.00    +0.000 A 
ATOM      9  C   UNL     1       2.510  13.025  18.042  0.00  0.00    +0.000 A 
ATOM     10  C   UNL     1       1.651  11.960  18.339  0.00  0.00    +0.000 A 
ATOM     11  N   UNL     1       2.006  10.700  17.833  0.00  0.00    +0.000 N 
ATOM     12  C   UNL     1       1.634   9.479  18.339  0.00  0.00    +0.000 C 
ATOM     13  O   UNL     1       1.847   8.463  17.677  0.00  0.00    +0.000 OA
ATOM     14  H   UNL     1       2.620  10.645  17.030  0.00  0.00    +0.000 HD
ENDROOT
BRANCH   3  15
ATOM     15  C   UNL     1      -2.006  11.514  18.960  0.00  0.00    +0.000 A 
ATOM     16  C   UNL     1      -2.764  12.141  19.957  0.00  0.00    +0.000 A 
ATOM     17  C   UNL     1      -4.107  12.453  19.729  0.00  0.00    +0.000 A 
ATOM     18  C   UNL     1      -4.700  12.135  18.507  0.00  0.00    +0.000 A 
ATOM     19  C   UNL     1      -3.957  11.491  17.517  0.00  0.00    +0.000 A 
ATOM     20  C   UNL     1      -2.627  11.173  17.752  0.00  0.00    +0.000 A 
ATOM     21  F   UNL     1      -1.963  10.506  16.795  0.00  0.00    +0.000 F 
ENDBRANCH   3  15
BRANCH   1  22
ATOM     22  C   UNL     1       1.013   8.092  20.411  0.00  0.00    +0.000 C 
BRANCH  22  23
ATOM     23  C   UNL     1       2.309   7.286  20.224  0.00  0.00    +0.000 C 
BRANCH  23  25
ATOM     24  N   UNL     1       3.021   5.062  19.253  0.00  0.00    +0.000 N 
ATOM     25  C   UNL     1       2.128   5.771  20.083  0.00  0.00    +0.000 C 
ATOM     26  O   UNL     1       1.182   5.232  20.655  0.00  0.00    +0.000 OA
BRANCH  24  28
ATOM     27  C   UNL     1       2.926   2.686  20.270  0.00  0.00    +0.000 C 
ATOM     28  C   UNL     1       2.854   3.592  19.033  0.00  0.00    +0.000 C 
ATOM     29  C   UNL     1       1.577   3.274  18.249  0.00  0.00    +0.000 C 
ENDBRANCH  24  28
BRANCH  24  30
ATOM     30  C   UNL     1       4.189   5.730  18.610  0.00  0.00    +0.000 C 
ATOM     31  C   UNL     1       5.494   5.246  19.244  0.00  0.00    +0.000 C 
ATOM     32  C   UNL     1       4.282   5.617  17.087  0.00  0.00    +0.000 C 
ENDBRANCH  24  30
ENDBRANCH  23  25
ENDBRANCH  22  23
ENDBRANCH   1  22
TORSDOF 6
ENDMDL
MODEL 4
REMARK VINA RESULT:      -7.3      0.997      1.847
REMARK  Name = 
REMARK  10 active torsions:
REMARK  status: ('A' for Active; 'I' for Inactive)
REMARK    1  A    between atoms: C_1  and  C_2
REMARK    2  A    between atoms: C_2  and  C_3
REMARK    3  A    between atoms: C_2  and  N_4
REMARK    4  A    between atoms: N_4  and  C_29
REMARK    5  A    between atoms: C_5  and  C_7
REMARK    6  A    between atoms: C_7  and  C_8
REMARK    7  A    between atoms: C_8  and  C_9
REMARK    8  A    between atoms: C_11  and  C_12
REMARK    9  A    between atoms: C_29  and  C_30
REMARK   10  A    between atoms: C_29  and  C_31
REMARK                            x       y       z     vdW  Elec       q    Type
REMARK                         _______ _______ _______ _____ _____    ______ ____
ROOT
ATOM      1  C   UNL     1       1.160   9.278  19.849  0.00  0.00    +0.000 C 
ATOM      2  N   UNL     1      -0.006   9.907  20.480  0.00  0.00    +0.000 NA
ATOM      3  C   UNL     1      -0.055  11.197  20.555  0.00  0.00    +0.000 C 
ATOM      4  C   UNL     1       1.057  12.115  20.150  0.00  0.00    +0.000 A 
ATOM      5  C   UNL     1       1.352  13.202  20.988  0.00  0.00    +0.000 A 
ATOM      6  C   UNL     1       2.250  14.180  20.569  0.00  0.00    +0.000 A 
ATOM      7 CL   UNL     1       2.551  15.546  21.570  0.00  0.00    +0.000 Cl
ATOM      8  C   UNL     1       2.878  14.078  19.331  0.00  0.00    +0.000 A 
ATOM      9  C   UNL     1       2.611  12.984  18.505  0.00  0.00    +0.000 A 
ATOM     10  C   UNL     1       1.720  11.985  18.917  0.00  0.00    +0.000 A 
ATOM     11  N   UNL     1       1.512  10.918  18.029  0.00  0.00    +0.000 N 
ATOM     12  C   UNL     1       1.095   9.651  18.354  0.00  0.00    +0.000 C 
ATOM     13  O   UNL     1       0.758   8.879  17.457  0.00  0.00    +0.000 OA
ATOM     14  H   UNL     1       1.702  11.050  17.044  0.00  0.00    +0.000 HD
ENDROOT
BRANCH   3  15
ATOM     15  C   UNL     1      -1.337  11.788  21.056  0.00  0.00    +0.000 A 
ATOM     16  C   UNL     1      -2.192  12.421  20.145  0.00  0.00    +0.000 A 
ATOM     17  C   UNL     1      -3.378  13.013  20.587  0.00  0.00    +0.000 A 
ATOM     18  C   UNL     1      -3.712  12.981  21.941  0.00  0.00    +0.000 A 
ATOM     19  C   UNL     1      -2.854  12.371  22.857  0.00  0.00    +0.000 A 
ATOM     20  C   UNL     1      -1.672  11.794  22.416  0.00  0.00    +0.000 A 
ATOM     21  F   UNL     1      -0.850  11.266  23.335  0.00  0.00    +0.000 F 
ENDBRANCH   3  15
BRANCH   1  22
ATOM     22  C   UNL     1       1.070   7.761  20.095  0.00  0.00    +0.000 C 
BRANCH  22  23
ATOM     23  C   UNL     1       2.412   7.094  20.441  0.00  0.00    +0.000 C 
BRANCH  23  25
ATOM     24  N   UNL     1       2.879   4.768  19.566  0.00  0.00    +0.000 N 
ATOM     25  C   UNL     1       2.980   6.160  19.368  0.00  0.00    +0.000 C 
ATOM     26  O   UNL     1       3.551   6.653  18.397  0.00  0.00    +0.000 OA
BRANCH  24  28
ATOM     27  C   UNL     1       2.800   3.725  17.201  0.00  0.00    +0.000 C 
ATOM     28  C   UNL     1       3.468   3.811  18.580  0.00  0.00    +0.000 C 
ATOM     29  C   UNL     1       4.973   4.036  18.397  0.00  0.00    +0.000 C 
ENDBRANCH  24  28
BRANCH  24  30
ATOM     30  C   UNL     1       2.139   4.195  20.728  0.00  0.00    +0.000 C 
ATOM     31  C   UNL     1       0.696   3.876  20.335  0.00  0.00    +0.000 C 
ATOM     32  C   UNL     1       2.772   2.976  21.402  0.00  0.00    +0.000 C 
ENDBRANCH  24  30
ENDBRANCH  23  25
ENDBRANCH  22  23
ENDBRANCH   1  22
TORSDOF 6
ENDMDL
MODEL 5
REMARK VINA RESULT:      -7.3      1.736      2.074
REMARK  Name = 
REMARK  10 active torsions:
REMARK  status: ('A' for Active; 'I' for Inactive)
REMARK    1  A    between atoms: C_1  and  C_2
REMARK    2  A    between atoms: C_2  and  C_3
REMARK    3  A    between atoms: C_2  and  N_4
REMARK    4  A    between atoms: N_4  and  C_29
REMARK    5  A    between atoms: C_5  and  C_7
REMARK    6  A    between atoms: C_7  and  C_8
REMARK    7  A    between atoms: C_8  and  C_9
REMARK    8  A    between atoms: C_11  and  C_12
REMARK    9  A    between atoms: C_29  and  C_30
REMARK   10  A    between atoms: C_29  and  C_31
REMARK                            x       y       z     vdW  Elec       q    Type
REMARK                         _______ _______ _______ _____ _____    ______ ____
ROOT
ATOM      1  C   UNL     1       1.049   9.670  19.642  0.00  0.00    +0.000 C 
ATOM      2  N   UNL     1      -0.350   9.949  19.298  0.00  0.00    +0.000 NA
ATOM      3  C   UNL     1      -0.667  11.132  18.883  0.00  0.00    +0.000 C 
ATOM      4  C   UNL     1       0.273  12.298  18.838  0.00  0.00    +0.000 A 
ATOM      5  C   UNL     1      -0.206  13.546  19.266  0.00  0.00    +0.000 A 
ATOM      6  C   UNL     1       0.567  14.689  19.077  0.00  0.00    +0.000 A 
ATOM      7 CL   UNL     1      -0.056  16.225  19.538  0.00  0.00    +0.000 Cl
ATOM      8  C   UNL     1       1.823  14.603  18.484  0.00  0.00    +0.000 A 
ATOM      9  C   UNL     1       2.316  13.360  18.082  0.00  0.00    +0.000 A 
ATOM     10  C   UNL     1       1.558  12.198  18.277  0.00  0.00    +0.000 A 
ATOM     11  N   UNL     1       2.130  10.990  17.848  0.00  0.00    +0.000 N 
ATOM     12  C   UNL     1       1.840   9.734  18.320  0.00  0.00    +0.000 C 
ATOM     13  O   UNL     1       2.265   8.751  17.713  0.00  0.00    +0.000 OA
ATOM     14  H   UNL     1       2.852  11.009  17.139  0.00  0.00    +0.000 HD
ENDROOT
BRANCH   3  15
ATOM     15  C   UNL     1      -2.070  11.312  18.390  0.00  0.00    +0.000 A 
ATOM     16  C   UNL     1      -2.353  11.050  17.043  0.00  0.00    +0.000 A 
ATOM     17  C   UNL     1      -3.643  11.243  16.545  0.00  0.00    +0.000 A 
ATOM     18  C   UNL     1      -4.656  11.703  17.386  0.00  0.00    +0.000 A 
ATOM     19  C   UNL     1      -4.376  11.987  18.723  0.00  0.00    +0.000 A 
ATOM     20  C   UNL     1      -3.090  11.805  19.212  0.00  0.00    +0.000 A 
ATOM     21  F   UNL     1      -2.851  12.142  20.489  0.00  0.00    +0.000 F 
ENDBRANCH   3  15
BRANCH   1  22
ATOM     22  C   UNL     1       1.105   8.285  20.311  0.00  0.00    +0.000 C 
BRANCH  22  23
ATOM     23  C   UNL     1       2.327   7.439  19.917  0.00  0.00    +0.000 C 
BRANCH  23  25
ATOM     24  N   UNL     1       3.041   5.087  19.325  0.00  0.00    +0.000 N 
ATOM     25  C   UNL     1       2.138   5.922  20.014  0.00  0.00    +0.000 C 
ATOM     26  O   UNL     1       1.176   5.485  20.643  0.00  0.00    +0.000 OA
BRANCH  24  28
ATOM     27  C   UNL     1       2.855   2.908  20.706  0.00  0.00    +0.000 C 
ATOM     28  C   UNL     1       2.868   3.601  19.337  0.00  0.00    +0.000 C 
ATOM     29  C   UNL     1       1.635   3.164  18.540  0.00  0.00    +0.000 C 
ENDBRANCH  24  28
BRANCH  24  30
ATOM     30  C   UNL     1       4.227   5.639  18.608  0.00  0.00    +0.000 C 
ATOM     31  C   UNL     1       5.520   5.129  19.246  0.00  0.00    +0.000 C 
ATOM     32  C   UNL     1       4.273   5.412  17.096  0.00  0.00    +0.000 C 
ENDBRANCH  24  30
ENDBRANCH  23  25
ENDBRANCH  22  23
ENDBRANCH   1  22
TORSDOF 6
ENDMDL
MODEL 6
REMARK VINA RESULT:      -7.3      1.303      2.195
REMARK  Name = 
REMARK  10 active torsions:
REMARK  status: ('A' for Active; 'I' for Inactive)
REMARK    1  A    between atoms: C_1  and  C_2
REMARK    2  A    between atoms: C_2  and  C_3
REMARK    3  A    between atoms: C_2  and  N_4
REMARK    4  A    between atoms: N_4  and  C_29
REMARK    5  A    between atoms: C_5  and  C_7
REMARK    6  A    between atoms: C_7  and  C_8
REMARK    7  A    between atoms: C_8  and  C_9
REMARK    8  A    between atoms: C_11  and  C_12
REMARK    9  A    between atoms: C_29  and  C_30
REMARK   10  A    between atoms: C_29  and  C_31
REMARK                            x       y       z     vdW  Elec       q    Type
REMARK                         _______ _______ _______ _____ _____    ______ ____
ROOT
ATOM      1  C   UNL     1       1.237   9.210  19.817  0.00  0.00    +0.000 C 
ATOM      2  N   UNL     1       0.097   9.866  20.468  0.00  0.00    +0.000 NA
ATOM      3  C   UNL     1       0.057  11.157  20.505  0.00  0.00    +0.000 C 
ATOM      4  C   UNL     1       1.159  12.056  20.036  0.00  0.00    +0.000 A 
ATOM      5  C   UNL     1       1.488  13.166  20.830  0.00  0.00    +0.000 A 
ATOM      6  C   UNL     1       2.376  14.125  20.352  0.00  0.00    +0.000 A 
ATOM      7 CL   UNL     1       2.718  15.519  21.300  0.00  0.00    +0.000 Cl
ATOM      8  C   UNL     1       2.962  13.983  19.097  0.00  0.00    +0.000 A 
ATOM      9  C   UNL     1       2.661  12.866  18.314  0.00  0.00    +0.000 A 
ATOM     10  C   UNL     1       1.779  11.885  18.785  0.00  0.00    +0.000 A 
ATOM     11  N   UNL     1       1.535  10.794  17.937  0.00  0.00    +0.000 N 
ATOM     12  C   UNL     1       1.124   9.539  18.315  0.00  0.00    +0.000 C 
ATOM     13  O   UNL     1       0.752   8.743  17.452  0.00  0.00    +0.000 OA
ATOM     14  H   UNL     1       1.693  10.895  16.943  0.00  0.00    +0.000 HD
ENDROOT
BRANCH   3  15
ATOM     15  C   UNL     1      -1.205  11.771  21.031  0.00  0.00    +0.000 A 
ATOM     16  C   UNL     1      -1.477  11.688  22.403  0.00  0.00    +0.000 A 
ATOM     17  C   UNL     1      -2.662  12.218  22.918  0.00  0.00    +0.000 A 
ATOM     18  C   UNL     1      -3.583  12.827  22.067  0.00  0.00    +0.000 A 
ATOM     19  C   UNL     1      -3.329  12.893  20.696  0.00  0.00    +0.000 A 
ATOM     20  C   UNL     1      -2.156  12.356  20.186  0.00  0.00    +0.000 A 
ATOM     21  F   UNL     1      -1.975  12.392  18.857  0.00  0.00    +0.000 F 
ENDBRANCH   3  15
BRANCH   1  22
ATOM     22  C   UNL     1       1.148   7.702  20.111  0.00  0.00    +0.000 C 
BRANCH  22  23
ATOM     23  C   UNL     1       2.505   7.023  20.360  0.00  0.00    +0.000 C 
BRANCH  23  25
ATOM     24  N   UNL     1       2.904   4.700  19.445  0.00  0.00    +0.000 N 
ATOM     25  C   UNL     1       2.991   6.093  19.244  0.00  0.00    +0.000 C 
ATOM     26  O   UNL     1       3.489   6.589  18.235  0.00  0.00    +0.000 OA
BRANCH  24  28
ATOM     27  C   UNL     1       2.621   3.630  17.107  0.00  0.00    +0.000 C 
ATOM     28  C   UNL     1       3.418   3.746  18.413  0.00  0.00    +0.000 C 
ATOM     29  C   UNL     1       4.892   4.004  18.083  0.00  0.00    +0.000 C 
ENDBRANCH  24  28
BRANCH  24  30
ATOM     30  C   UNL     1       2.252   4.123  20.656  0.00  0.00    +0.000 C 
ATOM     31  C   UNL     1       0.768   3.867  20.391  0.00  0.00    +0.000 C 
ATOM     32  C   UNL     1       2.896   2.865  21.240  0.00  0.00    +0.000 C 
ENDBRANCH  24  30
ENDBRANCH  23  25
ENDBRANCH  22  23
ENDBRANCH   1  22
TORSDOF 6
ENDMDL
MODEL 7
REMARK VINA RESULT:      -7.3      2.670      3.852
REMARK  Name = 
REMARK  10 active torsions:
REMARK  status: ('A' for Active; 'I' for Inactive)
REMARK    1  A    between atoms: C_1  and  C_2
REMARK    2  A    between atoms: C_2  and  C_3
REMARK    3  A    between atoms: C_2  and  N_4
REMARK    4  A    between atoms: N_4  and  C_29
REMARK    5  A    between atoms: C_5  and  C_7
REMARK    6  A    between atoms: C_7  and  C_8
REMARK    7  A    between atoms: C_8  and  C_9
REMARK    8  A    between atoms: C_11  and  C_12
REMARK    9  A    between atoms: C_29  and  C_30
REMARK   10  A    between atoms: C_29  and  C_31
REMARK                            x       y       z     vdW  Elec       q    Type
REMARK                         _______ _______ _______ _____ _____    ______ ____
ROOT
ATOM      1  C   UNL     1       1.063  10.003  18.758  0.00  0.00    +0.000 C 
ATOM      2  N   UNL     1      -0.293  10.135  18.213  0.00  0.00    +0.000 NA
ATOM      3  C   UNL     1      -1.132  10.919  18.808  0.00  0.00    +0.000 C 
ATOM      4  C   UNL     1      -0.865  11.624  20.102  0.00  0.00    +0.000 A 
ATOM      5  C   UNL     1      -1.890  11.651  21.061  0.00  0.00    +0.000 A 
ATOM      6  C   UNL     1      -1.757  12.442  22.199  0.00  0.00    +0.000 A 
ATOM      7 CL   UNL     1      -3.047  12.525  23.335  0.00  0.00    +0.000 Cl
ATOM      8  C   UNL     1      -0.604  13.193  22.407  0.00  0.00    +0.000 A 
ATOM      9  C   UNL     1       0.431  13.149  21.470  0.00  0.00    +0.000 A 
ATOM     10  C   UNL     1       0.319  12.349  20.326  0.00  0.00    +0.000 A 
ATOM     11  N   UNL     1       1.406  12.359  19.439  0.00  0.00    +0.000 N 
ATOM     12  C   UNL     1       1.747  11.369  18.549  0.00  0.00    +0.000 C 
ATOM     13  O   UNL     1       2.600  11.598  17.692  0.00  0.00    +0.000 OA
ATOM     14  H   UNL     1       2.042  13.145  19.444  0.00  0.00    +0.000 HD
ENDROOT
BRANCH   3  15
ATOM     15  C   UNL     1      -2.442  11.143  18.116  0.00  0.00    +0.000 A 
ATOM     16  C   UNL     1      -3.456  11.833  18.793  0.00  0.00    +0.000 A 
ATOM     17  C   UNL     1      -4.700  12.025  18.188  0.00  0.00    +0.000 A 
ATOM     18  C   UNL     1      -4.940  11.526  16.908  0.00  0.00    +0.000 A 
ATOM     19  C   UNL     1      -3.942  10.819  16.237  0.00  0.00    +0.000 A 
ATOM     20  C   UNL     1      -2.711  10.620  16.845  0.00  0.00    +0.000 A 
ATOM     21  F   UNL     1      -1.797   9.888  16.188  0.00  0.00    +0.000 F 
ENDBRANCH   3  15
BRANCH   1  22
ATOM     22  C   UNL     1       1.765   8.857  18.007  0.00  0.00    +0.000 C 
BRANCH  22  23
ATOM     23  C   UNL     1       2.259   7.716  18.912  0.00  0.00    +0.000 C 
BRANCH  23  25
ATOM     24  N   UNL     1       3.141   5.374  18.550  0.00  0.00    +0.000 N 
ATOM     25  C   UNL     1       3.259   6.750  18.268  0.00  0.00    +0.000 C 
ATOM     26  O   UNL     1       4.162   7.211  17.571  0.00  0.00    +0.000 OA
BRANCH  24  28
ATOM     27  C   UNL     1       4.377   4.432  16.483  0.00  0.00    +0.000 C 
ATOM     28  C   UNL     1       4.126   4.394  17.996  0.00  0.00    +0.000 C 
ATOM     29  C   UNL     1       5.469   4.458  18.732  0.00  0.00    +0.000 C 
ENDBRANCH  24  28
BRANCH  24  30
ATOM     30  C   UNL     1       2.010   4.835  19.360  0.00  0.00    +0.000 C 
ATOM     31  C   UNL     1       1.404   3.609  18.677  0.00  0.00    +0.000 C 
ATOM     32  C   UNL     1       2.315   4.513  20.823  0.00  0.00    +0.000 C 
ENDBRANCH  24  30
ENDBRANCH  23  25
ENDBRANCH  22  23
ENDBRANCH   1  22
TORSDOF 6
ENDMDL
MODEL 8
REMARK VINA RESULT:      -7.2      4.933      8.307
REMARK  Name = 
REMARK  10 active torsions:
REMARK  status: ('A' for Active; 'I' for Inactive)
REMARK    1  A    between atoms: C_1  and  C_2
REMARK    2  A    between atoms: C_2  and  C_3
REMARK    3  A    between atoms: C_2  and  N_4
REMARK    4  A    between atoms: N_4  and  C_29
REMARK    5  A    between atoms: C_5  and  C_7
REMARK    6  A    between atoms: C_7  and  C_8
REMARK    7  A    between atoms: C_8  and  C_9
REMARK    8  A    between atoms: C_11  and  C_12
REMARK    9  A    between atoms: C_29  and  C_30
REMARK   10  A    between atoms: C_29  and  C_31
REMARK                            x       y       z     vdW  Elec       q    Type
REMARK                         _______ _______ _______ _____ _____    ______ ____
ROOT
ATOM      1  C   UNL     1       5.816   5.139  16.966  0.00  0.00    +0.000 C 
ATOM      2  N   UNL     1       4.831   6.166  17.325  0.00  0.00    +0.000 NA
ATOM      3  C   UNL     1       3.801   5.824  18.028  0.00  0.00    +0.000 C 
ATOM      4  C   UNL     1       3.462   4.416  18.410  0.00  0.00    +0.000 A 
ATOM      5  C   UNL     1       2.121   4.011  18.312  0.00  0.00    +0.000 A 
ATOM      6  C   UNL     1       1.728   2.777  18.823  0.00  0.00    +0.000 A 
ATOM      7 CL   UNL     1       0.071   2.319  18.763  0.00  0.00    +0.000 Cl
ATOM      8  C   UNL     1       2.659   1.927  19.413  0.00  0.00    +0.000 A 
ATOM      9  C   UNL     1       4.000   2.313  19.488  0.00  0.00    +0.000 A 
ATOM     10  C   UNL     1       4.415   3.545  18.968  0.00  0.00    +0.000 A 
ATOM     11  N   UNL     1       5.780   3.852  19.081  0.00  0.00    +0.000 N 
ATOM     12  C   UNL     1       6.494   4.712  18.283  0.00  0.00    +0.000 C 
ATOM     13  O   UNL     1       7.631   5.042  18.622  0.00  0.00    +0.000 OA
ATOM     14  H   UNL     1       6.333   3.392  19.792  0.00  0.00    +0.000 HD
ENDROOT
BRANCH   3  15
ATOM     15  C   UNL     1       2.919   6.937  18.505  0.00  0.00    +0.000 A 
ATOM     16  C   UNL     1       2.671   8.018  17.648  0.00  0.00    +0.000 A 
ATOM     17  C   UNL     1       1.883   9.089  18.077  0.00  0.00    +0.000 A 
ATOM     18  C   UNL     1       1.344   9.089  19.363  0.00  0.00    +0.000 A 
ATOM     19  C   UNL     1       1.606   8.026  20.229  0.00  0.00    +0.000 A 
ATOM     20  C   UNL     1       2.398   6.970  19.804  0.00  0.00    +0.000 A 
ATOM     21  F   UNL     1       2.669   5.994  20.685  0.00  0.00    +0.000 F 
ENDBRANCH   3  15
BRANCH   1  22
ATOM     22  C   UNL     1       6.799   5.759  15.957  0.00  0.00    +0.000 C 
BRANCH  22  23
ATOM     23  C   UNL     1       7.199   4.823  14.804  0.00  0.00    +0.000 C 
BRANCH  23  25
ATOM     24  N   UNL     1       6.154   3.665  12.814  0.00  0.00    +0.000 N 
ATOM     25  C   UNL     1       6.051   4.028  14.172  0.00  0.00    +0.000 C 
ATOM     26  O   UNL     1       5.058   3.781  14.853  0.00  0.00    +0.000 OA
BRANCH  24  28
ATOM     27  C   UNL     1       4.150   3.756  11.182  0.00  0.00    +0.000 C 
ATOM     28  C   UNL     1       5.038   2.940  12.131  0.00  0.00    +0.000 C 
ATOM     29  C   UNL     1       5.533   1.686  11.404  0.00  0.00    +0.000 C 
ENDBRANCH  24  28
BRANCH  24  30
ATOM     30  C   UNL     1       7.390   3.935  12.023  0.00  0.00    +0.000 C 
ATOM     31  C   UNL     1       7.721   2.739  11.129  0.00  0.00    +0.000 C 
ATOM     32  C   UNL     1       7.396   5.218  11.191  0.00  0.00    +0.000 C 
ENDBRANCH  24  30
ENDBRANCH  23  25
ENDBRANCH  22  23
ENDBRANCH   1  22
TORSDOF 6
ENDMDL
MODEL 9
REMARK VINA RESULT:      -7.2      4.030      8.734
REMARK  Name = 
REMARK  10 active torsions:
REMARK  status: ('A' for Active; 'I' for Inactive)
REMARK    1  A    between atoms: C_1  and  C_2
REMARK    2  A    between atoms: C_2  and  C_3
REMARK    3  A    between atoms: C_2  and  N_4
REMARK    4  A    between atoms: N_4  and  C_29
REMARK    5  A    between atoms: C_5  and  C_7
REMARK    6  A    between atoms: C_7  and  C_8
REMARK    7  A    between atoms: C_8  and  C_9
REMARK    8  A    between atoms: C_11  and  C_12
REMARK    9  A    between atoms: C_29  and  C_30
REMARK   10  A    between atoms: C_29  and  C_31
REMARK                            x       y       z     vdW  Elec       q    Type
REMARK                         _______ _______ _______ _____ _____    ______ ____
ROOT
ATOM      1  C   UNL     1      -0.405  11.993  21.681  0.00  0.00    +0.000 C 
ATOM      2  N   UNL     1      -1.122  11.903  20.404  0.00  0.00    +0.000 NA
ATOM      3  C   UNL     1      -0.867  10.913  19.612  0.00  0.00    +0.000 C 
ATOM      4  C   UNL     1       0.209   9.897  19.842  0.00  0.00    +0.000 A 
ATOM      5  C   UNL     1       0.996   9.512  18.745  0.00  0.00    +0.000 A 
ATOM      6  C   UNL     1       1.884   8.446  18.866  0.00  0.00    +0.000 A 
ATOM      7 CL   UNL     1       2.792   7.934  17.498  0.00  0.00    +0.000 Cl
ATOM      8  C   UNL     1       2.014   7.769  20.075  0.00  0.00    +0.000 A 
ATOM      9  C   UNL     1       1.254   8.166  21.178  0.00  0.00    +0.000 A 
ATOM     10  C   UNL     1       0.366   9.244  21.077  0.00  0.00    +0.000 A 
ATOM     11  N   UNL     1      -0.355   9.580  22.233  0.00  0.00    +0.000 N 
ATOM     12  C   UNL     1      -0.894  10.807  22.535  0.00  0.00    +0.000 C 
ATOM     13  O   UNL     1      -1.674  10.904  23.482  0.00  0.00    +0.000 OA
ATOM     14  H   UNL     1      -0.488   8.882  22.953  0.00  0.00    +0.000 HD
ENDROOT
BRANCH   3  15
ATOM     15  C   UNL     1      -1.744  10.782  18.405  0.00  0.00    +0.000 A 
ATOM     16  C   UNL     1      -2.508   9.618  18.247  0.00  0.00    +0.000 A 
ATOM     17  C   UNL     1      -3.308   9.451  17.113  0.00  0.00    +0.000 A 
ATOM     18  C   UNL     1      -3.344  10.440  16.131  0.00  0.00    +0.000 A 
ATOM     19  C   UNL     1      -2.568  11.592  16.271  0.00  0.00    +0.000 A 
ATOM     20  C   UNL     1      -1.767  11.750  17.393  0.00  0.00    +0.000 A 
ATOM     21  F   UNL     1      -0.996  12.846  17.463  0.00  0.00    +0.000 F 
ENDBRANCH   3  15
BRANCH   1  22
ATOM     22  C   UNL     1      -0.726  13.361  22.310  0.00  0.00    +0.000 C 
BRANCH  22  23
ATOM     23  C   UNL     1      -1.894  14.106  21.643  0.00  0.00    +0.000 C 
BRANCH  23  25
ATOM     24  N   UNL     1      -3.833  14.640  23.177  0.00  0.00    +0.000 N 
ATOM     25  C   UNL     1      -2.653  15.084  22.546  0.00  0.00    +0.000 C 
ATOM     26  O   UNL     1      -2.239  16.238  22.649  0.00  0.00    +0.000 OA
BRANCH  24  28
ATOM     27  C   UNL     1      -3.894  16.393  25.077  0.00  0.00    +0.000 C 
ATOM     28  C   UNL     1      -4.644  15.570  24.021  0.00  0.00    +0.000 C 
ATOM     29  C   UNL     1      -5.506  16.508  23.170  0.00  0.00    +0.000 C 
ENDBRANCH  24  28
BRANCH  24  30
ATOM     30  C   UNL     1      -4.288  13.222  23.076  0.00  0.00    +0.000 C 
ATOM     31  C   UNL     1      -4.493  12.628  24.470  0.00  0.00    +0.000 C 
ATOM     32  C   UNL     1      -5.529  12.968  22.219  0.00  0.00    +0.000 C 
ENDBRANCH  24  30
ENDBRANCH  23  25
ENDBRANCH  22  23
ENDBRANCH   1  22
TORSDOF 6
ENDMDL
