MODEL 1
REMARK VINA RESULT:      -7.2      0.000      0.000
REMARK  Name = 
REMARK  7 active torsions:
REMARK  status: ('A' for Active; 'I' for Inactive)
REMARK    1  A    between atoms: C_2  and  C_3
REMARK    2  A    between atoms: C_3  and  N_4
REMARK    3  A    between atoms: N_4  and  C_5
REMARK    4  A    between atoms: C_5  and  C_6
REMARK    5  A    between atoms: C_6  and  O_7
REMARK    6  A    between atoms: O_7  and  C_8
REMARK    7  A    between atoms: C_13  and  C_14
REMARK                            x       y       z     vdW  Elec       q    Type
REMARK                         _______ _______ _______ _____ _____    ______ ____
ROOT
ATOM      1  C   UNL     1       5.996   4.434  16.988  0.00  0.00    +0.000 A 
ATOM      2  C   UNL     1       7.271   5.030  17.054  0.00  0.00    +0.000 A 
ATOM      3  C   UNL     1       7.745   5.605  18.232  0.00  0.00    +0.000 A 
ATOM      4  C   UNL     1       6.940   5.632  19.353  0.00  0.00    +0.000 A 
ATOM      5  C   UNL     1       5.655   5.085  19.291  0.00  0.00    +0.000 A 
ATOM      6  C   UNL     1       5.149   4.458  18.127  0.00  0.00    +0.000 A 
ENDROOT
BRANCH   6   7
ATOM      7  C   UNL     1       3.791   3.840  18.182  0.00  0.00    +0.000 A 
ATOM      8  C   UNL     1       2.615   4.556  17.905  0.00  0.00    +0.000 A 
ATOM      9  C   UNL     1       1.353   3.949  17.968  0.00  0.00    +0.000 A 
ATOM     10  C   UNL     1       1.232   2.611  18.337  0.00  0.00    +0.000 A 
ATOM     11  C   UNL     1       2.374   1.882  18.639  0.00  0.00    +0.000 A 
ATOM     12  C   UNL     1       3.632   2.487  18.554  0.00  0.00    +0.000 A 
ENDBRANCH   6   7
BRANCH   1  13
ATOM     13  O   UNL     1       5.532   3.852  15.825  0.00  0.00    +0.000 OA
BRANCH  13  14
ATOM     14  C   UNL     1       6.392   3.990  14.686  0.00  0.00    +0.000 C 
BRANCH  14  15
ATOM     15  C   UNL     1       5.591   3.840  13.384  0.00  0.00    +0.000 C 
BRANCH  15  16
ATOM     16  N   UNL     1       6.235   2.847  12.513  0.00  0.00    +0.000 NA
ATOM     17  H   UNL     1       7.044   3.268  12.057  0.00  0.00    +0.000 HD
BRANCH  16  18
ATOM     18  C   UNL     1       5.325   2.373  11.477  0.00  0.00    +0.000 C 
BRANCH  18  20
ATOM     19  C   UNL     1       3.453   3.628  10.356  0.00  0.00    +0.000 C 
ATOM     20  C   UNL     1       4.112   3.253  11.462  0.00  0.00    +0.000 C 
ENDBRANCH  18  20
ENDBRANCH  16  18
ENDBRANCH  15  16
ENDBRANCH  14  15
ENDBRANCH  13  14
ENDBRANCH   1  13
TORSDOF 7
ENDMDL
MODEL 2
REMARK VINA RESULT:      -7.0      0.619      1.250
REMARK  Name = 
REMARK  7 active torsions:
REMARK  status: ('A' for Active; 'I' for Inactive)
REMARK    1  A    between atoms: C_2  and  C_3
REMARK    2  A    between atoms: C_3  and  N_4
REMARK    3  A    between atoms: N_4  and  C_5
REMARK    4  A    between atoms: C_5  and  C_6
REMARK    5  A    between atoms: C_6  and  O_7
REMARK    6  A    between atoms: O_7  and  C_8
REMARK    7  A    between atoms: C_13  and  C_14
REMARK                            x       y       z     vdW  Elec       q    Type
REMARK                         _______ _______ _______ _____ _____    ______ ____
ROOT
ATOM      1  C   UNL     1       6.115   5.366  16.971  0.00  0.00    +0.000 A 
ATOM      2  C   UNL     1       7.351   6.025  17.125  0.00  0.00    +0.000 A 
ATOM      3  C   UNL     1       7.906   6.242  18.386  0.00  0.00    +0.000 A 
ATOM      4  C   UNL     1       7.221   5.840  19.514  0.00  0.00    +0.000 A 
ATOM      5  C   UNL     1       5.974   5.224  19.380  0.00  0.00    +0.000 A 
ATOM      6  C   UNL     1       5.390   4.951  18.119  0.00  0.00    +0.000 A 
ENDROOT
BRANCH   6   7
ATOM      7  C   UNL     1       4.087   4.225  18.078  0.00  0.00    +0.000 A 
ATOM      8  C   UNL     1       3.993   2.824  18.092  0.00  0.00    +0.000 A 
ATOM      9  C   UNL     1       2.755   2.170  18.049  0.00  0.00    +0.000 A 
ATOM     10  C   UNL     1       1.573   2.903  17.965  0.00  0.00    +0.000 A 
ATOM     11  C   UNL     1       1.632   4.289  17.928  0.00  0.00    +0.000 A 
ATOM     12  C   UNL     1       2.870   4.937  17.991  0.00  0.00    +0.000 A 
ENDBRANCH   6   7
BRANCH   1  13
ATOM     13  O   UNL     1       5.572   5.139  15.722  0.00  0.00    +0.000 OA
BRANCH  13  14
ATOM     14  C   UNL     1       6.143   4.044  14.994  0.00  0.00    +0.000 C 
BRANCH  14  15
ATOM     15  C   UNL     1       5.486   3.913  13.612  0.00  0.00    +0.000 C 
BRANCH  15  16
ATOM     16  N   UNL     1       6.279   3.010  12.766  0.00  0.00    +0.000 NA
ATOM     17  H   UNL     1       7.104   3.502  12.423  0.00  0.00    +0.000 HD
BRANCH  16  18
ATOM     18  C   UNL     1       5.514   2.547  11.613  0.00  0.00    +0.000 C 
BRANCH  18  20
ATOM     19  C   UNL     1       3.330   3.214  10.555  0.00  0.00    +0.000 C 
ATOM     20  C   UNL     1       4.264   3.367  11.505  0.00  0.00    +0.000 C 
ENDBRANCH  18  20
ENDBRANCH  16  18
ENDBRANCH  15  16
ENDBRANCH  14  15
ENDBRANCH  13  14
ENDBRANCH   1  13
TORSDOF 7
ENDMDL
MODEL 3
REMARK VINA RESULT:      -6.9      2.740      5.919
REMARK  Name = 
REMARK  7 active torsions:
REMARK  status: ('A' for Active; 'I' for Inactive)
REMARK    1  A    between atoms: C_2  and  C_3
REMARK    2  A    between atoms: C_3  and  N_4
REMARK    3  A    between atoms: N_4  and  C_5
REMARK    4  A    between atoms: C_5  and  C_6
REMARK    5  A    between atoms: C_6  and  O_7
REMARK    6  A    between atoms: O_7  and  C_8
REMARK    7  A    between atoms: C_13  and  C_14
REMARK                            x       y       z     vdW  Elec       q    Type
REMARK                         _______ _______ _______ _____ _____    ______ ____
ROOT
ATOM      1  C   UNL     1       4.310   4.930  18.945  0.00  0.00    +0.000 A 
ATOM      2  C   UNL     1       3.422   5.385  19.939  0.00  0.00    +0.000 A 
ATOM      3  C   UNL     1       2.599   6.491  19.726  0.00  0.00    +0.000 A 
ATOM      4  C   UNL     1       2.677   7.183  18.535  0.00  0.00    +0.000 A 
ATOM      5  C   UNL     1       3.585   6.770  17.556  0.00  0.00    +0.000 A 
ATOM      6  C   UNL     1       4.412   5.632  17.716  0.00  0.00    +0.000 A 
ENDROOT
BRANCH   6   7
ATOM      7  C   UNL     1       5.298   5.230  16.584  0.00  0.00    +0.000 A 
ATOM      8  C   UNL     1       6.653   5.591  16.510  0.00  0.00    +0.000 A 
ATOM      9  C   UNL     1       7.459   5.201  15.432  0.00  0.00    +0.000 A 
ATOM     10  C   UNL     1       6.923   4.457  14.383  0.00  0.00    +0.000 A 
ATOM     11  C   UNL     1       5.582   4.102  14.416  0.00  0.00    +0.000 A 
ATOM     12  C   UNL     1       4.786   4.476  15.504  0.00  0.00    +0.000 A 
ENDBRANCH   6   7
BRANCH   1  13
ATOM     13  O   UNL     1       5.116   3.826  19.151  0.00  0.00    +0.000 OA
BRANCH  13  14
ATOM     14  C   UNL     1       4.429   2.631  19.545  0.00  0.00    +0.000 C 
BRANCH  14  15
ATOM     15  C   UNL     1       3.601   2.075  18.378  0.00  0.00    +0.000 C 
BRANCH  15  16
ATOM     16  N   UNL     1       2.285   1.637  18.865  0.00  0.00    +0.000 NA
ATOM     17  H   UNL     1       2.015   0.775  18.390  0.00  0.00    +0.000 HD
BRANCH  16  18
ATOM     18  C   UNL     1       1.257   2.639  18.606  0.00  0.00    +0.000 C 
BRANCH  18  20
ATOM     19  C   UNL     1       1.212   2.793  21.117  0.00  0.00    +0.000 C 
ATOM     20  C   UNL     1       0.713   3.120  19.916  0.00  0.00    +0.000 C 
ENDBRANCH  18  20
ENDBRANCH  16  18
ENDBRANCH  15  16
ENDBRANCH  14  15
ENDBRANCH  13  14
ENDBRANCH   1  13
TORSDOF 7
ENDMDL
MODEL 4
REMARK VINA RESULT:      -6.8      2.599      4.588
REMARK  Name = 
REMARK  7 active torsions:
REMARK  status: ('A' for Active; 'I' for Inactive)
REMARK    1  A    between atoms: C_2  and  C_3
REMARK    2  A    between atoms: C_3  and  N_4
REMARK    3  A    between atoms: N_4  and  C_5
REMARK    4  A    between atoms: C_5  and  C_6
REMARK    5  A    between atoms: C_6  and  O_7
REMARK    6  A    between atoms: O_7  and  C_8
REMARK    7  A    between atoms: C_13  and  C_14
REMARK                            x       y       z     vdW  Elec       q    Type
REMARK                         _______ _______ _______ _____ _____    ______ ____
ROOT
ATOM      1  C   UNL     1       4.177   4.422  18.724  0.00  0.00    +0.000 A 
ATOM      2  C   UNL     1       4.476   3.082  18.406  0.00  0.00    +0.000 A 
ATOM      3  C   UNL     1       3.501   2.219  17.909  0.00  0.00    +0.000 A 
ATOM      4  C   UNL     1       2.204   2.665  17.758  0.00  0.00    +0.000 A 
ATOM      5  C   UNL     1       1.882   3.978  18.110  0.00  0.00    +0.000 A 
ATOM      6  C   UNL     1       2.848   4.899  18.583  0.00  0.00    +0.000 A 
ENDROOT
BRANCH   6   7
ATOM      7  C   UNL     1       2.419   6.301  18.865  0.00  0.00    +0.000 A 
ATOM      8  C   UNL     1       2.442   7.315  17.895  0.00  0.00    +0.000 A 
ATOM      9  C   UNL     1       2.037   8.624  18.190  0.00  0.00    +0.000 A 
ATOM     10  C   UNL     1       1.620   8.959  19.477  0.00  0.00    +0.000 A 
ATOM     11  C   UNL     1       1.606   7.984  20.464  0.00  0.00    +0.000 A 
ATOM     12  C   UNL     1       1.993   6.675  20.159  0.00  0.00    +0.000 A 
ENDBRANCH   6   7
BRANCH   1  13
ATOM     13  O   UNL     1       5.147   5.281  19.203  0.00  0.00    +0.000 OA
BRANCH  13  14
ATOM     14  C   UNL     1       5.976   5.888  18.204  0.00  0.00    +0.000 C 
BRANCH  14  15
ATOM     15  C   UNL     1       7.391   5.291  18.242  0.00  0.00    +0.000 C 
BRANCH  15  16
ATOM     16  N   UNL     1       7.583   4.393  17.094  0.00  0.00    +0.000 NA
ATOM     17  H   UNL     1       8.580   4.230  16.952  0.00  0.00    +0.000 HD
BRANCH  16  18
ATOM     18  C   UNL     1       7.037   4.965  15.869  0.00  0.00    +0.000 C 
BRANCH  18  20
ATOM     19  C   UNL     1       6.019   3.894  13.831  0.00  0.00    +0.000 C 
ATOM     20  C   UNL     1       6.255   3.907  15.151  0.00  0.00    +0.000 C 
ENDBRANCH  18  20
ENDBRANCH  16  18
ENDBRANCH  15  16
ENDBRANCH  14  15
ENDBRANCH  13  14
ENDBRANCH   1  13
TORSDOF 7
ENDMDL
MODEL 5
REMARK VINA RESULT:      -6.8      3.157      4.755
REMARK  Name = 
REMARK  7 active torsions:
REMARK  status: ('A' for Active; 'I' for Inactive)
REMARK    1  A    between atoms: C_2  and  C_3
REMARK    2  A    between atoms: C_3  and  N_4
REMARK    3  A    between atoms: N_4  and  C_5
REMARK    4  A    between atoms: C_5  and  C_6
REMARK    5  A    between atoms: C_6  and  O_7
REMARK    6  A    between atoms: O_7  and  C_8
REMARK    7  A    between atoms: C_13  and  C_14
REMARK                            x       y       z     vdW  Elec       q    Type
REMARK                         _______ _______ _______ _____ _____    ______ ____
ROOT
ATOM      1  C   UNL     1       3.985   5.694  17.879  0.00  0.00    +0.000 A 
ATOM      2  C   UNL     1       4.425   6.789  17.110  0.00  0.00    +0.000 A 
ATOM      3  C   UNL     1       3.755   8.012  17.137  0.00  0.00    +0.000 A 
ATOM      4  C   UNL     1       2.613   8.150  17.899  0.00  0.00    +0.000 A 
ATOM      5  C   UNL     1       2.139   7.060  18.633  0.00  0.00    +0.000 A 
ATOM      6  C   UNL     1       2.808   5.812  18.663  0.00  0.00    +0.000 A 
ENDROOT
BRANCH   6   7
ATOM      7  C   UNL     1       2.261   4.730  19.534  0.00  0.00    +0.000 A 
ATOM      8  C   UNL     1       2.645   4.561  20.873  0.00  0.00    +0.000 A 
ATOM      9  C   UNL     1       2.116   3.533  21.666  0.00  0.00    +0.000 A 
ATOM     10  C   UNL     1       1.204   2.628  21.128  0.00  0.00    +0.000 A 
ATOM     11  C   UNL     1       0.820   2.754  19.801  0.00  0.00    +0.000 A 
ATOM     12  C   UNL     1       1.335   3.794  19.020  0.00  0.00    +0.000 A 
ENDBRANCH   6   7
BRANCH   1  13
ATOM     13  O   UNL     1       4.657   4.487  17.863  0.00  0.00    +0.000 OA
BRANCH  13  14
ATOM     14  C   UNL     1       5.362   4.194  16.649  0.00  0.00    +0.000 C 
BRANCH  14  15
ATOM     15  C   UNL     1       6.843   4.581  16.780  0.00  0.00    +0.000 C 
BRANCH  15  16
ATOM     16  N   UNL     1       7.285   4.399  18.170  0.00  0.00    +0.000 NA
ATOM     17  H   UNL     1       6.518   4.018  18.724  0.00  0.00    +0.000 HD
BRANCH  16  18
ATOM     18  C   UNL     1       7.696   5.663  18.771  0.00  0.00    +0.000 C 
BRANCH  18  20
ATOM     19  C   UNL     1       7.978   8.015  17.923  0.00  0.00    +0.000 C 
ATOM     20  C   UNL     1       7.627   6.736  17.728  0.00  0.00    +0.000 C 
ENDBRANCH  18  20
ENDBRANCH  16  18
ENDBRANCH  15  16
ENDBRANCH  14  15
ENDBRANCH  13  14
ENDBRANCH   1  13
TORSDOF 7
ENDMDL
MODEL 6
REMARK VINA RESULT:      -6.8      2.756      5.541
REMARK  Name = 
REMARK  7 active torsions:
REMARK  status: ('A' for Active; 'I' for Inactive)
REMARK    1  A    between atoms: C_2  and  C_3
REMARK    2  A    between atoms: C_3  and  N_4
REMARK    3  A    between atoms: N_4  and  C_5
REMARK    4  A    between atoms: C_5  and  C_6
REMARK    5  A    between atoms: C_6  and  O_7
REMARK    6  A    between atoms: O_7  and  C_8
REMARK    7  A    between atoms: C_13  and  C_14
REMARK                            x       y       z     vdW  Elec       q    Type
REMARK                         _______ _______ _______ _____ _____    ______ ____
ROOT
ATOM      1  C   UNL     1       4.030   5.004  19.254  0.00  0.00    +0.000 A 
ATOM      2  C   UNL     1       3.092   5.468  20.197  0.00  0.00    +0.000 A 
ATOM      3  C   UNL     1       2.310   6.596  19.948  0.00  0.00    +0.000 A 
ATOM      4  C   UNL     1       2.479   7.301  18.774  0.00  0.00    +0.000 A 
ATOM      5  C   UNL     1       3.436   6.878  17.848  0.00  0.00    +0.000 A 
ATOM      6  C   UNL     1       4.225   5.718  18.043  0.00  0.00    +0.000 A 
ENDROOT
BRANCH   6   7
ATOM      7  C   UNL     1       5.171   5.309  16.963  0.00  0.00    +0.000 A 
ATOM      8  C   UNL     1       6.478   5.811  16.864  0.00  0.00    +0.000 A 
ATOM      9  C   UNL     1       7.343   5.409  15.836  0.00  0.00    +0.000 A 
ATOM     10  C   UNL     1       6.911   4.511  14.863  0.00  0.00    +0.000 A 
ATOM     11  C   UNL     1       5.617   4.013  14.920  0.00  0.00    +0.000 A 
ATOM     12  C   UNL     1       4.765   4.401  15.960  0.00  0.00    +0.000 A 
ENDBRANCH   6   7
BRANCH   1  13
ATOM     13  O   UNL     1       4.795   3.879  19.494  0.00  0.00    +0.000 OA
BRANCH  13  14
ATOM     14  C   UNL     1       4.061   2.709  19.880  0.00  0.00    +0.000 C 
BRANCH  14  15
ATOM     15  C   UNL     1       3.999   1.704  18.721  0.00  0.00    +0.000 C 
BRANCH  15  16
ATOM     16  N   UNL     1       2.618   1.597  18.227  0.00  0.00    +0.000 NA
ATOM     17  H   UNL     1       2.513   2.164  17.385  0.00  0.00    +0.000 HD
BRANCH  16  18
ATOM     18  C   UNL     1       1.657   2.070  19.217  0.00  0.00    +0.000 C 
BRANCH  18  20
ATOM     19  C   UNL     1       1.177   3.892  17.547  0.00  0.00    +0.000 C 
ATOM     20  C   UNL     1       0.808   3.135  18.592  0.00  0.00    +0.000 C 
ENDBRANCH  18  20
ENDBRANCH  16  18
ENDBRANCH  15  16
ENDBRANCH  14  15
ENDBRANCH  13  14
ENDBRANCH   1  13
TORSDOF 7
ENDMDL
MODEL 7
REMARK VINA RESULT:      -6.8      3.237      5.567
REMARK  Name = 
REMARK  7 active torsions:
REMARK  status: ('A' for Active; 'I' for Inactive)
REMARK    1  A    between atoms: C_2  and  C_3
REMARK    2  A    between atoms: C_3  and  N_4
REMARK    3  A    between atoms: N_4  and  C_5
REMARK    4  A    between atoms: C_5  and  C_6
REMARK    5  A    between atoms: C_6  and  O_7
REMARK    6  A    between atoms: O_7  and  C_8
REMARK    7  A    between atoms: C_13  and  C_14
REMARK                            x       y       z     vdW  Elec       q    Type
REMARK                         _______ _______ _______ _____ _____    ______ ____
ROOT
ATOM      1  C   UNL     1       4.706   4.600  16.825  0.00  0.00    +0.000 A 
ATOM      2  C   UNL     1       5.791   4.045  16.119  0.00  0.00    +0.000 A 
ATOM      3  C   UNL     1       6.995   4.733  15.979  0.00  0.00    +0.000 A 
ATOM      4  C   UNL     1       7.124   6.002  16.507  0.00  0.00    +0.000 A 
ATOM      5  C   UNL     1       6.042   6.584  17.172  0.00  0.00    +0.000 A 
ATOM      6  C   UNL     1       4.814   5.907  17.369  0.00  0.00    +0.000 A 
ENDROOT
BRANCH   6   7
ATOM      7  C   UNL     1       3.742   6.587  18.155  0.00  0.00    +0.000 A 
ATOM      8  C   UNL     1       3.270   6.097  19.383  0.00  0.00    +0.000 A 
ATOM      9  C   UNL     1       2.259   6.755  20.096  0.00  0.00    +0.000 A 
ATOM     10  C   UNL     1       1.675   7.913  19.586  0.00  0.00    +0.000 A 
ATOM     11  C   UNL     1       2.105   8.411  18.364  0.00  0.00    +0.000 A 
ATOM     12  C   UNL     1       3.128   7.761  17.666  0.00  0.00    +0.000 A 
ENDBRANCH   6   7
BRANCH   1  13
ATOM     13  O   UNL     1       3.517   3.913  16.975  0.00  0.00    +0.000 OA
BRANCH  13  14
ATOM     14  C   UNL     1       3.556   2.815  17.897  0.00  0.00    +0.000 C 
BRANCH  14  15
ATOM     15  C   UNL     1       2.313   1.928  17.732  0.00  0.00    +0.000 C 
BRANCH  15  16
ATOM     16  N   UNL     1       1.657   1.743  19.034  0.00  0.00    +0.000 NA
ATOM     17  H   UNL     1       0.971   0.991  18.966  0.00  0.00    +0.000 HD
BRANCH  16  18
ATOM     18  C   UNL     1       0.964   2.953  19.462  0.00  0.00    +0.000 C 
BRANCH  18  20
ATOM     19  C   UNL     1       2.357   3.080  21.554  0.00  0.00    +0.000 C 
ATOM     20  C   UNL     1       1.168   3.128  20.936  0.00  0.00    +0.000 C 
ENDBRANCH  18  20
ENDBRANCH  16  18
ENDBRANCH  15  16
ENDBRANCH  14  15
ENDBRANCH  13  14
ENDBRANCH   1  13
TORSDOF 7
ENDMDL
MODEL 8
REMARK VINA RESULT:      -6.7      2.792      5.947
REMARK  Name = 
REMARK  7 active torsions:
REMARK  status: ('A' for Active; 'I' for Inactive)
REMARK    1  A    between atoms: C_2  and  C_3
REMARK    2  A    between atoms: C_3  and  N_4
REMARK    3  A    between atoms: N_4  and  C_5
REMARK    4  A    between atoms: C_5  and  C_6
REMARK    5  A    between atoms: C_6  and  O_7
REMARK    6  A    between atoms: O_7  and  C_8
REMARK    7  A    between atoms: C_13  and  C_14
REMARK                            x       y       z     vdW  Elec       q    Type
REMARK                         _______ _______ _______ _____ _____    ______ ____
ROOT
ATOM      1  C   UNL     1       4.221   5.164  18.919  0.00  0.00    +0.000 A 
ATOM      2  C   UNL     1       3.333   5.649  19.899  0.00  0.00    +0.000 A 
ATOM      3  C   UNL     1       2.503   6.741  19.651  0.00  0.00    +0.000 A 
ATOM      4  C   UNL     1       2.572   7.391  18.436  0.00  0.00    +0.000 A 
ATOM      5  C   UNL     1       3.478   6.949  17.469  0.00  0.00    +0.000 A 
ATOM      6  C   UNL     1       4.314   5.823  17.665  0.00  0.00    +0.000 A 
ENDROOT
BRANCH   6   7
ATOM      7  C   UNL     1       5.198   5.386  16.545  0.00  0.00    +0.000 A 
ATOM      8  C   UNL     1       4.766   4.524  15.524  0.00  0.00    +0.000 A 
ATOM      9  C   UNL     1       5.621   4.129  14.486  0.00  0.00    +0.000 A 
ATOM     10  C   UNL     1       6.943   4.568  14.456  0.00  0.00    +0.000 A 
ATOM     11  C   UNL     1       7.407   5.404  15.462  0.00  0.00    +0.000 A 
ATOM     12  C   UNL     1       6.543   5.812  16.484  0.00  0.00    +0.000 A 
ENDBRANCH   6   7
BRANCH   1  13
ATOM     13  O   UNL     1       5.034   4.073  19.160  0.00  0.00    +0.000 OA
BRANCH  13  14
ATOM     14  C   UNL     1       4.349   2.866  19.517  0.00  0.00    +0.000 C 
BRANCH  14  15
ATOM     15  C   UNL     1       3.470   2.381  18.355  0.00  0.00    +0.000 C 
BRANCH  15  16
ATOM     16  N   UNL     1       2.330   1.615  18.878  0.00  0.00    +0.000 NA
ATOM     17  H   UNL     1       2.277   0.714  18.402  0.00  0.00    +0.000 HD
BRANCH  16  18
ATOM     18  C   UNL     1       1.069   2.317  18.662  0.00  0.00    +0.000 C 
BRANCH  18  20
ATOM     19  C   UNL     1       1.142   2.889  21.112  0.00  0.00    +0.000 C 
ATOM     20  C   UNL     1       0.793   3.185  19.852  0.00  0.00    +0.000 C 
ENDBRANCH  18  20
ENDBRANCH  16  18
ENDBRANCH  15  16
ENDBRANCH  14  15
ENDBRANCH  13  14
ENDBRANCH   1  13
TORSDOF 7
ENDMDL
MODEL 9
REMARK VINA RESULT:      -6.7      1.252      1.533
REMARK  Name = 
REMARK  7 active torsions:
REMARK  status: ('A' for Active; 'I' for Inactive)
REMARK    1  A    between atoms: C_2  and  C_3
REMARK    2  A    between atoms: C_3  and  N_4
REMARK    3  A    between atoms: N_4  and  C_5
REMARK    4  A    between atoms: C_5  and  C_6
REMARK    5  A    between atoms: C_6  and  O_7
REMARK    6  A    between atoms: O_7  and  C_8
REMARK    7  A    between atoms: C_13  and  C_14
REMARK                            x       y       z     vdW  Elec       q    Type
REMARK                         _______ _______ _______ _____ _____    ______ ____
ROOT
ATOM      1  C   UNL     1       6.151   6.321  17.101  0.00  0.00    +0.000 A 
ATOM      2  C   UNL     1       7.418   6.887  17.344  0.00  0.00    +0.000 A 
ATOM      3  C   UNL     1       8.116   6.625  18.522  0.00  0.00    +0.000 A 
ATOM      4  C   UNL     1       7.545   5.827  19.493  0.00  0.00    +0.000 A 
ATOM      5  C   UNL     1       6.271   5.295  19.286  0.00  0.00    +0.000 A 
ATOM      6  C   UNL     1       5.542   5.505  18.089  0.00  0.00    +0.000 A 
ENDROOT
BRANCH   6   7
ATOM      7  C   UNL     1       4.217   4.835  17.934  0.00  0.00    +0.000 A 
ATOM      8  C   UNL     1       2.999   5.527  18.009  0.00  0.00    +0.000 A 
ATOM      9  C   UNL     1       1.770   4.870  17.861  0.00  0.00    +0.000 A 
ATOM     10  C   UNL     1       1.727   3.492  17.659  0.00  0.00    +0.000 A 
ATOM     11  C   UNL     1       2.914   2.775  17.601  0.00  0.00    +0.000 A 
ATOM     12  C   UNL     1       4.138   3.439  17.729  0.00  0.00    +0.000 A 
ENDBRANCH   6   7
BRANCH   1  13
ATOM     13  O   UNL     1       5.465   6.570  15.927  0.00  0.00    +0.000 OA
BRANCH  13  14
ATOM     14  C   UNL     1       5.381   5.463  15.020  0.00  0.00    +0.000 C 
BRANCH  14  15
ATOM     15  C   UNL     1       6.785   4.980  14.626  0.00  0.00    +0.000 C 
BRANCH  15  16
ATOM     16  N   UNL     1       6.680   3.833  13.714  0.00  0.00    +0.000 NA
ATOM     17  H   UNL     1       7.189   4.034  12.853  0.00  0.00    +0.000 HD
BRANCH  16  18
ATOM     18  C   UNL     1       5.292   3.550  13.366  0.00  0.00    +0.000 C 
BRANCH  18  20
ATOM     19  C   UNL     1       4.135   3.237  11.153  0.00  0.00    +0.000 C 
ATOM     20  C   UNL     1       5.230   3.151  11.923  0.00  0.00    +0.000 C 
ENDBRANCH  18  20
ENDBRANCH  16  18
ENDBRANCH  15  16
ENDBRANCH  14  15
ENDBRANCH  13  14
ENDBRANCH   1  13
TORSDOF 7
ENDMDL
