MODEL 1
REMARK VINA RESULT:      -9.0      0.000      0.000
REMARK  Name = 
REMARK  8 active torsions:
REMARK  status: ('A' for Active; 'I' for Inactive)
REMARK    1  A    between atoms: C_2  and  C_3
REMARK    2  A    between atoms: C_7  and  C_8
REMARK    3  A    between atoms: C_12  and  O_13
REMARK    4  A    between atoms: O_13  and  C_14
REMARK    5  A    between atoms: C_14  and  C_15
REMARK    6  A    between atoms: C_15  and  O_16
REMARK    7  A    between atoms: C_15  and  C_17
REMARK    8  A    between atoms: C_17  and  N_18
REMARK                            x       y       z     vdW  Elec       q    Type
REMARK                         _______ _______ _______ _____ _____    ______ ____
ROOT
ATOM      1  C   UNL     1       1.580   9.054  18.991  0.00  0.00    +0.000 A 
ATOM      2  C   UNL     1       1.502   8.115  20.056  0.00  0.00    +0.000 A 
ATOM      3  C   UNL     1       2.188   6.885  20.065  0.00  0.00    +0.000 A 
ATOM      4  C   UNL     1       2.999   6.533  18.999  0.00  0.00    +0.000 A 
ATOM      5  C   UNL     1       3.165   7.419  17.935  0.00  0.00    +0.000 A 
ATOM      6  C   UNL     1       2.462   8.659  17.931  0.00  0.00    +0.000 A 
ENDROOT
BRANCH   1  11
ATOM      7  C   UNL     1       0.754  12.868  19.796  0.00  0.00    +0.000 A 
ATOM      8  C   UNL     1      -0.611  12.815  19.857  0.00  0.00    +0.000 A 
ATOM      9  C   UNL     1      -1.272  11.638  19.528  0.00  0.00    +0.000 A 
ATOM     10  C   UNL     1      -0.556  10.466  19.215  0.00  0.00    +0.000 A 
ATOM     11  C   UNL     1       0.846  10.424  19.098  0.00  0.00    +0.000 A 
ATOM     12  C   UNL     1       1.449  11.709  19.211  0.00  0.00    +0.000 A 
BRANCH   7  14
ATOM     13  O   UNL     1       1.772  13.841  21.729  0.00  0.00    +0.000 OA
ATOM     14  C   UNL     1       1.448  14.047  20.557  0.00  0.00    +0.000 C 
ATOM     15  N   UNL     1       1.619  15.375  19.979  0.00  0.00    +0.000 N 
ATOM     16  C   UNL     1       2.299  16.424  20.784  0.00  0.00    +0.000 C 
ATOM     17  C   UNL     1       1.885  17.877  20.414  0.00  0.00    +0.000 C 
ATOM     18  O   UNL     1       2.047  18.109  19.011  0.00  0.00    +0.000 OA
ATOM     19  C   UNL     1       1.185  17.232  18.286  0.00  0.00    +0.000 C 
ATOM     20  C   UNL     1       1.516  15.740  18.554  0.00  0.00    +0.000 C 
ENDBRANCH   7  14
ENDBRANCH   1  11
BRANCH   5  21
ATOM     21  O   UNL     1       3.982   6.880  16.975  0.00  0.00    +0.000 OA
BRANCH  21  22
ATOM     22  C   UNL     1       5.397   6.784  17.138  0.00  0.00    +0.000 C 
BRANCH  22  23
ATOM     23  C   UNL     1       5.892   5.329  17.009  0.00  0.00    +0.000 C 
BRANCH  23  24
ATOM     24  O   UNL     1       7.270   5.288  16.581  0.00  0.00    +0.000 OA
ATOM     25  H   UNL     1       7.341   4.671  15.834  0.00  0.00    +0.000 HD
ENDBRANCH  23  24
BRANCH  23  26
ATOM     26  C   UNL     1       5.801   4.511  18.334  0.00  0.00    +0.000 C 
BRANCH  26  27
ATOM     27  N   UNL     1       4.970   3.310  18.413  0.00  0.00    +0.000 NA
ATOM     28  C   UNL     1       3.886   3.374  17.416  0.00  0.00    +0.000 C 
ATOM     29  C   UNL     1       2.910   2.233  17.573  0.00  0.00    +0.000 C 
ATOM     30  C   UNL     1       2.306   2.538  18.885  0.00  0.00    +0.000 A 
ATOM     31  C   UNL     1       1.045   3.077  18.934  0.00  0.00    +0.000 A 
ATOM     32  C   UNL     1       0.606   3.456  20.154  0.00  0.00    +0.000 A 
ATOM     33  C   UNL     1       1.332   3.204  21.336  0.00  0.00    +0.000 A 
ATOM     34  C   UNL     1       2.639   2.783  21.264  0.00  0.00    +0.000 A 
ATOM     35  C   UNL     1       3.157   2.633  20.005  0.00  0.00    +0.000 A 
ATOM     36  C   UNL     1       4.629   2.836  19.772  0.00  0.00    +0.000 C 
ENDBRANCH  26  27
ENDBRANCH  23  26
ENDBRANCH  22  23
ENDBRANCH  21  22
ENDBRANCH   5  21
TORSDOF 8
ENDMDL
MODEL 2
REMARK VINA RESULT:      -8.9      2.861      3.452
REMARK  Name = 
REMARK  8 active torsions:
REMARK  status: ('A' for Active; 'I' for Inactive)
REMARK    1  A    between atoms: C_2  and  C_3
REMARK    2  A    between atoms: C_7  and  C_8
REMARK    3  A    between atoms: C_12  and  O_13
REMARK    4  A    between atoms: O_13  and  C_14
REMARK    5  A    between atoms: C_14  and  C_15
REMARK    6  A    between atoms: C_15  and  O_16
REMARK    7  A    between atoms: C_15  and  C_17
REMARK    8  A    between atoms: C_17  and  N_18
REMARK                            x       y       z     vdW  Elec       q    Type
REMARK                         _______ _______ _______ _____ _____    ______ ____
ROOT
ATOM      1  C   UNL     1       1.468   8.610  19.254  0.00  0.00    +0.000 A 
ATOM      2  C   UNL     1       1.595   7.675  20.317  0.00  0.00    +0.000 A 
ATOM      3  C   UNL     1       2.430   6.543  20.267  0.00  0.00    +0.000 A 
ATOM      4  C   UNL     1       3.194   6.291  19.139  0.00  0.00    +0.000 A 
ATOM      5  C   UNL     1       3.162   7.185  18.069  0.00  0.00    +0.000 A 
ATOM      6  C   UNL     1       2.308   8.325  18.126  0.00  0.00    +0.000 A 
ENDROOT
BRANCH   1  11
ATOM      7  C   UNL     1      -0.758  11.501  20.854  0.00  0.00    +0.000 A 
ATOM      8  C   UNL     1      -1.526  11.844  19.776  0.00  0.00    +0.000 A 
ATOM      9  C   UNL     1      -1.268  11.273  18.535  0.00  0.00    +0.000 A 
ATOM     10  C   UNL     1      -0.283  10.277  18.384  0.00  0.00    +0.000 A 
ATOM     11  C   UNL     1       0.577   9.876  19.424  0.00  0.00    +0.000 A 
ATOM     12  C   UNL     1       0.425  10.662  20.601  0.00  0.00    +0.000 A 
BRANCH   7  14
ATOM     13  O   UNL     1      -0.646  11.538  23.243  0.00  0.00    +0.000 OA
ATOM     14  C   UNL     1      -1.339  11.841  22.268  0.00  0.00    +0.000 C 
ATOM     15  N   UNL     1      -2.676  12.385  22.468  0.00  0.00    +0.000 N 
ATOM     16  C   UNL     1      -3.130  12.680  23.854  0.00  0.00    +0.000 C 
ATOM     17  C   UNL     1      -4.673  12.625  24.043  0.00  0.00    +0.000 C 
ATOM     18  O   UNL     1      -5.331  13.464  23.089  0.00  0.00    +0.000 OA
ATOM     19  C   UNL     1      -5.054  12.987  21.771  0.00  0.00    +0.000 C 
ATOM     20  C   UNL     1      -3.537  13.015  21.450  0.00  0.00    +0.000 C 
ENDBRANCH   7  14
ENDBRANCH   1  11
BRANCH   5  21
ATOM     21  O   UNL     1       3.963   6.750  17.046  0.00  0.00    +0.000 OA
BRANCH  21  22
ATOM     22  C   UNL     1       5.387   6.710  17.150  0.00  0.00    +0.000 C 
BRANCH  22  23
ATOM     23  C   UNL     1       5.930   5.270  17.047  0.00  0.00    +0.000 C 
BRANCH  23  24
ATOM     24  O   UNL     1       7.316   5.269  16.644  0.00  0.00    +0.000 OA
ATOM     25  H   UNL     1       7.427   4.621  15.929  0.00  0.00    +0.000 HD
ENDBRANCH  23  24
BRANCH  23  26
ATOM     26  C   UNL     1       5.841   4.464  18.379  0.00  0.00    +0.000 C 
BRANCH  26  27
ATOM     27  N   UNL     1       5.023   3.254  18.463  0.00  0.00    +0.000 NA
ATOM     28  C   UNL     1       3.955   3.287  17.448  0.00  0.00    +0.000 C 
ATOM     29  C   UNL     1       2.991   2.137  17.608  0.00  0.00    +0.000 C 
ATOM     30  C   UNL     1       2.361   2.455  18.905  0.00  0.00    +0.000 A 
ATOM     31  C   UNL     1       1.093   2.979  18.924  0.00  0.00    +0.000 A 
ATOM     32  C   UNL     1       0.629   3.373  20.130  0.00  0.00    +0.000 A 
ATOM     33  C   UNL     1       1.339   3.149  21.328  0.00  0.00    +0.000 A 
ATOM     34  C   UNL     1       2.651   2.744  21.284  0.00  0.00    +0.000 A 
ATOM     35  C   UNL     1       3.192   2.580  20.037  0.00  0.00    +0.000 A 
ATOM     36  C   UNL     1       4.666   2.798  19.825  0.00  0.00    +0.000 C 
ENDBRANCH  26  27
ENDBRANCH  23  26
ENDBRANCH  22  23
ENDBRANCH  21  22
ENDBRANCH   5  21
TORSDOF 8
ENDMDL
MODEL 3
REMARK VINA RESULT:      -8.9      2.566      3.825
REMARK  Name = 
REMARK  8 active torsions:
REMARK  status: ('A' for Active; 'I' for Inactive)
REMARK    1  A    between atoms: C_2  and  C_3
REMARK    2  A    between atoms: C_7  and  C_8
REMARK    3  A    between atoms: C_12  and  O_13
REMARK    4  A    between atoms: O_13  and  C_14
REMARK    5  A    between atoms: C_14  and  C_15
REMARK    6  A    between atoms: C_15  and  O_16
REMARK    7  A    between atoms: C_15  and  C_17
REMARK    8  A    between atoms: C_17  and  N_18
REMARK                            x       y       z     vdW  Elec       q    Type
REMARK                         _______ _______ _______ _____ _____    ______ ____
ROOT
ATOM      1  C   UNL     1       1.256   9.140  19.950  0.00  0.00    +0.000 A 
ATOM      2  C   UNL     1       1.286   8.019  20.824  0.00  0.00    +0.000 A 
ATOM      3  C   UNL     1       1.902   6.794  20.505  0.00  0.00    +0.000 A 
ATOM      4  C   UNL     1       2.531   6.630  19.281  0.00  0.00    +0.000 A 
ATOM      5  C   UNL     1       2.587   7.697  18.385  0.00  0.00    +0.000 A 
ATOM      6  C   UNL     1       1.954   8.931  18.714  0.00  0.00    +0.000 A 
ENDROOT
BRANCH   1  11
ATOM      7  C   UNL     1      -1.380  12.032  20.703  0.00  0.00    +0.000 A 
ATOM      8  C   UNL     1      -0.553  13.121  20.710  0.00  0.00    +0.000 A 
ATOM      9  C   UNL     1       0.822  12.944  20.607  0.00  0.00    +0.000 A 
ATOM     10  C   UNL     1       1.378  11.665  20.409  0.00  0.00    +0.000 A 
ATOM     11  C   UNL     1       0.617  10.481  20.416  0.00  0.00    +0.000 A 
ATOM     12  C   UNL     1      -0.747  10.703  20.761  0.00  0.00    +0.000 A 
BRANCH   7  14
ATOM     13  O   UNL     1      -3.582  12.714  21.340  0.00  0.00    +0.000 OA
ATOM     14  C   UNL     1      -2.893  12.298  20.405  0.00  0.00    +0.000 C 
ATOM     15  N   UNL     1      -3.520  11.976  19.128  0.00  0.00    +0.000 N 
ATOM     16  C   UNL     1      -4.965  12.276  18.944  0.00  0.00    +0.000 C 
ATOM     17  C   UNL     1      -5.674  11.370  17.897  0.00  0.00    +0.000 C 
ATOM     18  O   UNL     1      -4.973  11.392  16.650  0.00  0.00    +0.000 OA
ATOM     19  C   UNL     1      -3.660  10.864  16.838  0.00  0.00    +0.000 C 
ATOM     20  C   UNL     1      -2.837  11.703  17.850  0.00  0.00    +0.000 C 
ENDBRANCH   7  14
ENDBRANCH   1  11
BRANCH   5  21
ATOM     21  O   UNL     1       3.227   7.330  17.229  0.00  0.00    +0.000 OA
BRANCH  21  22
ATOM     22  C   UNL     1       4.647   7.203  17.147  0.00  0.00    +0.000 C 
BRANCH  22  23
ATOM     23  C   UNL     1       5.072   5.788  16.702  0.00  0.00    +0.000 C 
BRANCH  23  24
ATOM     24  O   UNL     1       6.216   5.845  15.824  0.00  0.00    +0.000 OA
ATOM     25  H   UNL     1       6.556   6.754  15.822  0.00  0.00    +0.000 HD
ENDBRANCH  23  24
BRANCH  23  26
ATOM     26  C   UNL     1       5.448   4.840  17.882  0.00  0.00    +0.000 C 
BRANCH  26  27
ATOM     27  N   UNL     1       4.750   3.569  18.068  0.00  0.00    +0.000 NA
ATOM     28  C   UNL     1       3.573   3.498  17.183  0.00  0.00    +0.000 C 
ATOM     29  C   UNL     1       2.734   2.274  17.460  0.00  0.00    +0.000 C 
ATOM     30  C   UNL     1       2.233   2.559  18.819  0.00  0.00    +0.000 A 
ATOM     31  C   UNL     1       0.936   2.976  18.983  0.00  0.00    +0.000 A 
ATOM     32  C   UNL     1       0.583   3.349  20.232  0.00  0.00    +0.000 A 
ATOM     33  C   UNL     1       1.441   3.203  21.341  0.00  0.00    +0.000 A 
ATOM     34  C   UNL     1       2.769   2.907  21.147  0.00  0.00    +0.000 A 
ATOM     35  C   UNL     1       3.175   2.769  19.846  0.00  0.00    +0.000 A 
ATOM     36  C   UNL     1       4.591   3.105  19.464  0.00  0.00    +0.000 C 
ENDBRANCH  26  27
ENDBRANCH  23  26
ENDBRANCH  22  23
ENDBRANCH  21  22
ENDBRANCH   5  21
TORSDOF 8
ENDMDL
MODEL 4
REMARK VINA RESULT:      -8.8      3.107      4.322
REMARK  Name = 
REMARK  8 active torsions:
REMARK  status: ('A' for Active; 'I' for Inactive)
REMARK    1  A    between atoms: C_2  and  C_3
REMARK    2  A    between atoms: C_7  and  C_8
REMARK    3  A    between atoms: C_12  and  O_13
REMARK    4  A    between atoms: O_13  and  C_14
REMARK    5  A    between atoms: C_14  and  C_15
REMARK    6  A    between atoms: C_15  and  O_16
REMARK    7  A    between atoms: C_15  and  C_17
REMARK    8  A    between atoms: C_17  and  N_18
REMARK                            x       y       z     vdW  Elec       q    Type
REMARK                         _______ _______ _______ _____ _____    ______ ____
ROOT
ATOM      1  C   UNL     1       1.015   9.181  19.099  0.00  0.00    +0.000 A 
ATOM      2  C   UNL     1       1.251   8.489  20.318  0.00  0.00    +0.000 A 
ATOM      3  C   UNL     1       2.136   7.401  20.441  0.00  0.00    +0.000 A 
ATOM      4  C   UNL     1       2.842   6.951  19.338  0.00  0.00    +0.000 A 
ATOM      5  C   UNL     1       2.703   7.605  18.114  0.00  0.00    +0.000 A 
ATOM      6  C   UNL     1       1.799   8.701  17.997  0.00  0.00    +0.000 A 
ENDROOT
BRANCH   1  11
ATOM      7  C   UNL     1      -2.108  11.565  18.437  0.00  0.00    +0.000 A 
ATOM      8  C   UNL     1      -1.493  12.786  18.457  0.00  0.00    +0.000 A 
ATOM      9  C   UNL     1      -0.149  12.876  18.798  0.00  0.00    +0.000 A 
ATOM     10  C   UNL     1       0.619  11.719  19.039  0.00  0.00    +0.000 A 
ATOM     11  C   UNL     1       0.075  10.422  19.069  0.00  0.00    +0.000 A 
ATOM     12  C   UNL     1      -1.344  10.415  18.951  0.00  0.00    +0.000 A 
BRANCH   7  14
ATOM     13  O   UNL     1      -3.420  11.063  16.501  0.00  0.00    +0.000 OA
ATOM     14  C   UNL     1      -3.466  11.474  17.663  0.00  0.00    +0.000 C 
ATOM     15  N   UNL     1      -4.729  11.947  18.217  0.00  0.00    +0.000 N 
ATOM     16  C   UNL     1      -5.966  11.807  17.402  0.00  0.00    +0.000 C 
ATOM     17  C   UNL     1      -7.068  12.852  17.735  0.00  0.00    +0.000 C 
ATOM     18  O   UNL     1      -7.364  12.849  19.135  0.00  0.00    +0.000 OA
ATOM     19  C   UNL     1      -6.195  13.228  19.864  0.00  0.00    +0.000 C 
ATOM     20  C   UNL     1      -5.021  12.241  19.632  0.00  0.00    +0.000 C 
ENDBRANCH   7  14
ENDBRANCH   1  11
BRANCH   5  21
ATOM     21  O   UNL     1       3.462   6.998  17.147  0.00  0.00    +0.000 OA
BRANCH  21  22
ATOM     22  C   UNL     1       4.889   6.970  17.197  0.00  0.00    +0.000 C 
BRANCH  22  23
ATOM     23  C   UNL     1       5.458   5.651  16.636  0.00  0.00    +0.000 C 
BRANCH  23  24
ATOM     24  O   UNL     1       6.705   5.879  15.945  0.00  0.00    +0.000 OA
ATOM     25  H   UNL     1       7.409   5.973  16.607  0.00  0.00    +0.000 HD
ENDBRANCH  23  24
BRANCH  23  26
ATOM     26  C   UNL     1       5.729   4.566  17.723  0.00  0.00    +0.000 C 
BRANCH  26  27
ATOM     27  N   UNL     1       4.798   3.456  17.916  0.00  0.00    +0.000 NA
ATOM     28  C   UNL     1       3.545   3.707  17.181  0.00  0.00    +0.000 C 
ATOM     29  C   UNL     1       2.496   2.664  17.484  0.00  0.00    +0.000 C 
ATOM     30  C   UNL     1       2.218   2.928  18.910  0.00  0.00    +0.000 A 
ATOM     31  C   UNL     1       1.068   3.589  19.258  0.00  0.00    +0.000 A 
ATOM     32  C   UNL     1       0.940   3.918  20.562  0.00  0.00    +0.000 A 
ATOM     33  C   UNL     1       1.862   3.502  21.545  0.00  0.00    +0.000 A 
ATOM     34  C   UNL     1       3.066   2.955  21.170  0.00  0.00    +0.000 A 
ATOM     35  C   UNL     1       3.289   2.850  19.823  0.00  0.00    +0.000 A 
ATOM     36  C   UNL     1       4.694   2.916  19.290  0.00  0.00    +0.000 C 
ENDBRANCH  26  27
ENDBRANCH  23  26
ENDBRANCH  22  23
ENDBRANCH  21  22
ENDBRANCH   5  21
TORSDOF 8
ENDMDL
MODEL 5
REMARK VINA RESULT:      -8.7      1.512      1.792
REMARK  Name = 
REMARK  8 active torsions:
REMARK  status: ('A' for Active; 'I' for Inactive)
REMARK    1  A    between atoms: C_2  and  C_3
REMARK    2  A    between atoms: C_7  and  C_8
REMARK    3  A    between atoms: C_12  and  O_13
REMARK    4  A    between atoms: O_13  and  C_14
REMARK    5  A    between atoms: C_14  and  C_15
REMARK    6  A    between atoms: C_15  and  O_16
REMARK    7  A    between atoms: C_15  and  C_17
REMARK    8  A    between atoms: C_17  and  N_18
REMARK                            x       y       z     vdW  Elec       q    Type
REMARK                         _______ _______ _______ _____ _____    ______ ____
ROOT
ATOM      1  C   UNL     1       0.990   9.157  20.073  0.00  0.00    +0.000 A 
ATOM      2  C   UNL     1       1.116   8.090  21.003  0.00  0.00    +0.000 A 
ATOM      3  C   UNL     1       1.809   6.894  20.733  0.00  0.00    +0.000 A 
ATOM      4  C   UNL     1       2.422   6.708  19.506  0.00  0.00    +0.000 A 
ATOM      5  C   UNL     1       2.386   7.726  18.553  0.00  0.00    +0.000 A 
ATOM      6  C   UNL     1       1.676   8.930  18.833  0.00  0.00    +0.000 A 
ENDROOT
BRANCH   1  11
ATOM      7  C   UNL     1      -0.160  12.969  20.223  0.00  0.00    +0.000 A 
ATOM      8  C   UNL     1      -0.570  13.050  21.525  0.00  0.00    +0.000 A 
ATOM      9  C   UNL     1      -0.607  11.903  22.309  0.00  0.00    +0.000 A 
ATOM     10  C   UNL     1      -0.146  10.668  21.813  0.00  0.00    +0.000 A 
ATOM     11  C   UNL     1       0.269  10.475  20.482  0.00  0.00    +0.000 A 
ATOM     12  C   UNL     1       0.060  11.623  19.666  0.00  0.00    +0.000 A 
BRANCH   7  14
ATOM     13  O   UNL     1      -0.658  15.083  19.220  0.00  0.00    +0.000 OA
ATOM     14  C   UNL     1       0.253  14.311  19.530  0.00  0.00    +0.000 C 
ATOM     15  N   UNL     1       1.627  14.620  19.152  0.00  0.00    +0.000 N 
ATOM     16  C   UNL     1       1.915  15.928  18.505  0.00  0.00    +0.000 C 
ATOM     17  C   UNL     1       3.173  15.921  17.590  0.00  0.00    +0.000 C 
ATOM     18  O   UNL     1       4.314  15.427  18.300  0.00  0.00    +0.000 OA
ATOM     19  C   UNL     1       4.075  14.075  18.693  0.00  0.00    +0.000 C 
ATOM     20  C   UNL     1       2.850  13.952  19.635  0.00  0.00    +0.000 C 
ENDBRANCH   7  14
ENDBRANCH   1  11
BRANCH   5  21
ATOM     21  O   UNL     1       3.026   7.342  17.404  0.00  0.00    +0.000 OA
BRANCH  21  22
ATOM     22  C   UNL     1       4.449   7.308  17.294  0.00  0.00    +0.000 C 
BRANCH  22  23
ATOM     23  C   UNL     1       4.951   5.956  16.745  0.00  0.00    +0.000 C 
BRANCH  23  24
ATOM     24  O   UNL     1       6.081   6.143  15.867  0.00  0.00    +0.000 OA
ATOM     25  H   UNL     1       6.767   6.632  16.350  0.00  0.00    +0.000 HD
ENDBRANCH  23  24
BRANCH  23  26
ATOM     26  C   UNL     1       5.394   4.950  17.852  0.00  0.00    +0.000 C 
BRANCH  26  27
ATOM     27  N   UNL     1       4.700   3.673  18.018  0.00  0.00    +0.000 NA
ATOM     28  C   UNL     1       3.477   3.646  17.195  0.00  0.00    +0.000 C 
ATOM     29  C   UNL     1       2.647   2.413  17.462  0.00  0.00    +0.000 C 
ATOM     30  C   UNL     1       2.221   2.639  18.857  0.00  0.00    +0.000 A 
ATOM     31  C   UNL     1       0.937   3.051  19.109  0.00  0.00    +0.000 A 
ATOM     32  C   UNL     1       0.654   3.369  20.391  0.00  0.00    +0.000 A 
ATOM     33  C   UNL     1       1.570   3.171  21.444  0.00  0.00    +0.000 A 
ATOM     34  C   UNL     1       2.884   2.879  21.166  0.00  0.00    +0.000 A 
ATOM     35  C   UNL     1       3.218   2.800  19.841  0.00  0.00    +0.000 A 
ATOM     36  C   UNL     1       4.613   3.148  19.398  0.00  0.00    +0.000 C 
ENDBRANCH  26  27
ENDBRANCH  23  26
ENDBRANCH  22  23
ENDBRANCH  21  22
ENDBRANCH   5  21
TORSDOF 8
ENDMDL
MODEL 6
REMARK VINA RESULT:      -8.7      1.153      1.244
REMARK  Name = 
REMARK  8 active torsions:
REMARK  status: ('A' for Active; 'I' for Inactive)
REMARK    1  A    between atoms: C_2  and  C_3
REMARK    2  A    between atoms: C_7  and  C_8
REMARK    3  A    between atoms: C_12  and  O_13
REMARK    4  A    between atoms: O_13  and  C_14
REMARK    5  A    between atoms: C_14  and  C_15
REMARK    6  A    between atoms: C_15  and  O_16
REMARK    7  A    between atoms: C_15  and  C_17
REMARK    8  A    between atoms: C_17  and  N_18
REMARK                            x       y       z     vdW  Elec       q    Type
REMARK                         _______ _______ _______ _____ _____    ______ ____
ROOT
ATOM      1  C   UNL     1       1.266   9.019  20.079  0.00  0.00    +0.000 A 
ATOM      2  C   UNL     1       1.205   7.975  21.042  0.00  0.00    +0.000 A 
ATOM      3  C   UNL     1       1.727   6.685  20.831  0.00  0.00    +0.000 A 
ATOM      4  C   UNL     1       2.349   6.374  19.633  0.00  0.00    +0.000 A 
ATOM      5  C   UNL     1       2.491   7.355  18.653  0.00  0.00    +0.000 A 
ATOM      6  C   UNL     1       1.952   8.657  18.872  0.00  0.00    +0.000 A 
ENDROOT
BRANCH   1  11
ATOM      7  C   UNL     1       0.871  12.977  20.321  0.00  0.00    +0.000 A 
ATOM      8  C   UNL     1       0.150  13.080  21.479  0.00  0.00    +0.000 A 
ATOM      9  C   UNL     1      -0.315  11.932  22.107  0.00  0.00    +0.000 A 
ATOM     10  C   UNL     1       0.017  10.652  21.621  0.00  0.00    +0.000 A 
ATOM     11  C   UNL     1       0.728  10.439  20.425  0.00  0.00    +0.000 A 
ATOM     12  C   UNL     1       0.970  11.643  19.704  0.00  0.00    +0.000 A 
BRANCH   7  14
ATOM     13  O   UNL     1       2.907  14.225  20.174  0.00  0.00    +0.000 OA
ATOM     14  C   UNL     1       1.705  14.232  19.896  0.00  0.00    +0.000 C 
ATOM     15  N   UNL     1       1.104  15.419  19.297  0.00  0.00    +0.000 N 
ATOM     16  C   UNL     1       1.987  16.556  18.922  0.00  0.00    +0.000 C 
ATOM     17  C   UNL     1       1.274  17.938  18.916  0.00  0.00    +0.000 C 
ATOM     18  O   UNL     1       0.098  17.899  18.102  0.00  0.00    +0.000 OA
ATOM     19  C   UNL     1      -0.824  16.957  18.650  0.00  0.00    +0.000 C 
ATOM     20  C   UNL     1      -0.234  15.522  18.688  0.00  0.00    +0.000 C 
ENDBRANCH   7  14
ENDBRANCH   1  11
BRANCH   5  21
ATOM     21  O   UNL     1       3.108   6.847  17.539  0.00  0.00    +0.000 OA
BRANCH  21  22
ATOM     22  C   UNL     1       4.466   7.141  17.214  0.00  0.00    +0.000 C 
BRANCH  22  23
ATOM     23  C   UNL     1       5.273   5.862  16.909  0.00  0.00    +0.000 C 
BRANCH  23  24
ATOM     24  O   UNL     1       6.584   6.187  16.400  0.00  0.00    +0.000 OA
ATOM     25  H   UNL     1       6.805   5.557  15.695  0.00  0.00    +0.000 HD
ENDBRANCH  23  24
BRANCH  23  26
ATOM     26  C   UNL     1       5.480   4.934  18.145  0.00  0.00    +0.000 C 
BRANCH  26  27
ATOM     27  N   UNL     1       4.806   3.640  18.227  0.00  0.00    +0.000 NA
ATOM     28  C   UNL     1       3.662   3.600  17.297  0.00  0.00    +0.000 C 
ATOM     29  C   UNL     1       2.842   2.345  17.467  0.00  0.00    +0.000 C 
ATOM     30  C   UNL     1       2.288   2.533  18.823  0.00  0.00    +0.000 A 
ATOM     31  C   UNL     1       0.977   2.912  18.965  0.00  0.00    +0.000 A 
ATOM     32  C   UNL     1       0.572   3.198  20.222  0.00  0.00    +0.000 A 
ATOM     33  C   UNL     1       1.395   3.001  21.349  0.00  0.00    +0.000 A 
ATOM     34  C   UNL     1       2.736   2.745  21.186  0.00  0.00    +0.000 A 
ATOM     35  C   UNL     1       3.189   2.698  19.894  0.00  0.00    +0.000 A 
ATOM     36  C   UNL     1       4.609   3.086  19.584  0.00  0.00    +0.000 C 
ENDBRANCH  26  27
ENDBRANCH  23  26
ENDBRANCH  22  23
ENDBRANCH  21  22
ENDBRANCH   5  21
TORSDOF 8
ENDMDL
MODEL 7
REMARK VINA RESULT:      -8.3      3.043     10.244
REMARK  Name = 
REMARK  8 active torsions:
REMARK  status: ('A' for Active; 'I' for Inactive)
REMARK    1  A    between atoms: C_2  and  C_3
REMARK    2  A    between atoms: C_7  and  C_8
REMARK    3  A    between atoms: C_12  and  O_13
REMARK    4  A    between atoms: O_13  and  C_14
REMARK    5  A    between atoms: C_14  and  C_15
REMARK    6  A    between atoms: C_15  and  O_16
REMARK    7  A    between atoms: C_15  and  C_17
REMARK    8  A    between atoms: C_17  and  N_18
REMARK                            x       y       z     vdW  Elec       q    Type
REMARK                         _______ _______ _______ _____ _____    ______ ____
ROOT
ATOM      1  C   UNL     1       0.556   9.583  20.964  0.00  0.00    +0.000 A 
ATOM      2  C   UNL     1       0.047   8.865  22.080  0.00  0.00    +0.000 A 
ATOM      3  C   UNL     1      -0.625   9.470  23.160  0.00  0.00    +0.000 A 
ATOM      4  C   UNL     1      -0.827  10.840  23.173  0.00  0.00    +0.000 A 
ATOM      5  C   UNL     1      -0.399  11.612  22.094  0.00  0.00    +0.000 A 
ATOM      6  C   UNL     1       0.286  10.991  21.008  0.00  0.00    +0.000 A 
ENDROOT
BRANCH   1  11
ATOM      7  C   UNL     1       2.618   6.917  18.840  0.00  0.00    +0.000 A 
ATOM      8  C   UNL     1       2.951   7.675  17.752  0.00  0.00    +0.000 A 
ATOM      9  C   UNL     1       2.435   8.959  17.621  0.00  0.00    +0.000 A 
ATOM     10  C   UNL     1       1.641   9.530  18.636  0.00  0.00    +0.000 A 
ATOM     11  C   UNL     1       1.220   8.824  19.778  0.00  0.00    +0.000 A 
ATOM     12  C   UNL     1       1.580   7.446  19.740  0.00  0.00    +0.000 A 
BRANCH   7  14
ATOM     13  O   UNL     1       4.730   5.902  19.323  0.00  0.00    +0.000 OA
ATOM     14  C   UNL     1       3.530   5.680  19.141  0.00  0.00    +0.000 C 
ATOM     15  N   UNL     1       3.042   4.306  19.107  0.00  0.00    +0.000 N 
ATOM     16  C   UNL     1       3.989   3.202  19.417  0.00  0.00    +0.000 C 
ATOM     17  C   UNL     1       3.617   1.842  18.760  0.00  0.00    +0.000 C 
ATOM     18  O   UNL     1       2.269   1.478  19.076  0.00  0.00    +0.000 OA
ATOM     19  C   UNL     1       1.379   2.458  18.542  0.00  0.00    +0.000 C 
ATOM     20  C   UNL     1       1.635   3.865  19.142  0.00  0.00    +0.000 C 
ENDBRANCH   7  14
ENDBRANCH   1  11
BRANCH   5  21
ATOM     21  O   UNL     1      -0.668  12.939  22.306  0.00  0.00    +0.000 OA
BRANCH  21  22
ATOM     22  C   UNL     1      -1.509  13.391  23.368  0.00  0.00    +0.000 C 
BRANCH  22  23
ATOM     23  C   UNL     1      -2.877  13.881  22.849  0.00  0.00    +0.000 C 
BRANCH  23  24
ATOM     24  O   UNL     1      -2.725  15.060  22.031  0.00  0.00    +0.000 OA
ATOM     25  H   UNL     1      -2.967  15.836  22.562  0.00  0.00    +0.000 HD
ENDBRANCH  23  24
BRANCH  23  26
ATOM     26  C   UNL     1      -3.644  12.827  21.994  0.00  0.00    +0.000 C 
BRANCH  26  27
ATOM     27  N   UNL     1      -3.833  13.028  20.558  0.00  0.00    +0.000 NA
ATOM     28  C   UNL     1      -5.056  12.342  20.103  0.00  0.00    +0.000 C 
ATOM     29  C   UNL     1      -5.201  12.388  18.601  0.00  0.00    +0.000 C 
ATOM     30  C   UNL     1      -4.058  11.560  18.168  0.00  0.00    +0.000 A 
ATOM     31  C   UNL     1      -4.283  10.278  17.736  0.00  0.00    +0.000 A 
ATOM     32  C   UNL     1      -3.185   9.532  17.483  0.00  0.00    +0.000 A 
ATOM     33  C   UNL     1      -1.879  10.061  17.530  0.00  0.00    +0.000 A 
ATOM     34  C   UNL     1      -1.659  11.300  18.083  0.00  0.00    +0.000 A 
ATOM     35  C   UNL     1      -2.763  11.953  18.564  0.00  0.00    +0.000 A 
ATOM     36  C   UNL     1      -2.624  12.911  19.714  0.00  0.00    +0.000 C 
ENDBRANCH  26  27
ENDBRANCH  23  26
ENDBRANCH  22  23
ENDBRANCH  21  22
ENDBRANCH   5  21
TORSDOF 8
ENDMDL
MODEL 8
REMARK VINA RESULT:      -8.3      2.767      3.633
REMARK  Name = 
REMARK  8 active torsions:
REMARK  status: ('A' for Active; 'I' for Inactive)
REMARK    1  A    between atoms: C_2  and  C_3
REMARK    2  A    between atoms: C_7  and  C_8
REMARK    3  A    between atoms: C_12  and  O_13
REMARK    4  A    between atoms: O_13  and  C_14
REMARK    5  A    between atoms: C_14  and  C_15
REMARK    6  A    between atoms: C_15  and  O_16
REMARK    7  A    between atoms: C_15  and  C_17
REMARK    8  A    between atoms: C_17  and  N_18
REMARK                            x       y       z     vdW  Elec       q    Type
REMARK                         _______ _______ _______ _____ _____    ______ ____
ROOT
ATOM      1  C   UNL     1       1.039   9.203  19.876  0.00  0.00    +0.000 A 
ATOM      2  C   UNL     1       1.202   9.901  18.648  0.00  0.00    +0.000 A 
ATOM      3  C   UNL     1       2.006   9.443  17.588  0.00  0.00    +0.000 A 
ATOM      4  C   UNL     1       2.694   8.246  17.704  0.00  0.00    +0.000 A 
ATOM      5  C   UNL     1       2.552   7.477  18.858  0.00  0.00    +0.000 A 
ATOM      6  C   UNL     1       1.740   7.952  19.929  0.00  0.00    +0.000 A 
ENDROOT
BRANCH   1  11
ATOM      7  C   UNL     1      -1.271  11.624  22.039  0.00  0.00    +0.000 A 
ATOM      8  C   UNL     1      -1.245  10.975  23.242  0.00  0.00    +0.000 A 
ATOM      9  C   UNL     1      -0.624   9.737  23.346  0.00  0.00    +0.000 A 
ATOM     10  C   UNL     1       0.061   9.173  22.251  0.00  0.00    +0.000 A 
ATOM     11  C   UNL     1       0.070   9.747  20.966  0.00  0.00    +0.000 A 
ATOM     12  C   UNL     1      -0.779  10.885  20.863  0.00  0.00    +0.000 A 
BRANCH   7  14
ATOM     13  O   UNL     1      -0.645  13.933  22.035  0.00  0.00    +0.000 OA
ATOM     14  C   UNL     1      -1.601  13.154  22.070  0.00  0.00    +0.000 C 
ATOM     15  N   UNL     1      -2.953  13.671  22.245  0.00  0.00    +0.000 N 
ATOM     16  C   UNL     1      -3.161  15.144  22.253  0.00  0.00    +0.000 C 
ATOM     17  C   UNL     1      -4.414  15.604  23.051  0.00  0.00    +0.000 C 
ATOM     18  O   UNL     1      -5.584  14.915  22.600  0.00  0.00    +0.000 OA
ATOM     19  C   UNL     1      -5.428  13.515  22.839  0.00  0.00    +0.000 C 
ATOM     20  C   UNL     1      -4.215  12.928  22.072  0.00  0.00    +0.000 C 
ENDBRANCH   7  14
ENDBRANCH   1  11
BRANCH   5  21
ATOM     21  O   UNL     1       3.325   6.347  18.790  0.00  0.00    +0.000 OA
BRANCH  21  22
ATOM     22  C   UNL     1       3.657   5.719  17.551  0.00  0.00    +0.000 C 
BRANCH  22  23
ATOM     23  C   UNL     1       5.179   5.519  17.398  0.00  0.00    +0.000 C 
BRANCH  23  24
ATOM     24  O   UNL     1       5.878   6.777  17.505  0.00  0.00    +0.000 OA
ATOM     25  H   UNL     1       5.225   7.495  17.469  0.00  0.00    +0.000 HD
ENDBRANCH  23  24
BRANCH  23  26
ATOM     26  C   UNL     1       5.801   4.559  18.459  0.00  0.00    +0.000 C 
BRANCH  26  27
ATOM     27  N   UNL     1       5.146   3.295  18.794  0.00  0.00    +0.000 NA
ATOM     28  C   UNL     1       4.316   2.836  17.666  0.00  0.00    +0.000 C 
ATOM     29  C   UNL     1       3.496   1.621  18.029  0.00  0.00    +0.000 C 
ATOM     30  C   UNL     1       2.576   2.176  19.042  0.00  0.00    +0.000 A 
ATOM     31  C   UNL     1       1.275   2.437  18.696  0.00  0.00    +0.000 A 
ATOM     32  C   UNL     1       0.525   3.067  19.626  0.00  0.00    +0.000 A 
ATOM     33  C   UNL     1       0.995   3.333  20.929  0.00  0.00    +0.000 A 
ATOM     34  C   UNL     1       2.330   3.184  21.222  0.00  0.00    +0.000 A 
ATOM     35  C   UNL     1       3.133   2.773  20.192  0.00  0.00    +0.000 A 
ATOM     36  C   UNL     1       4.577   3.191  20.155  0.00  0.00    +0.000 C 
ENDBRANCH  26  27
ENDBRANCH  23  26
ENDBRANCH  22  23
ENDBRANCH  21  22
ENDBRANCH   5  21
TORSDOF 8
ENDMDL
MODEL 9
REMARK VINA RESULT:      -8.3      1.950      2.456
REMARK  Name = 
REMARK  8 active torsions:
REMARK  status: ('A' for Active; 'I' for Inactive)
REMARK    1  A    between atoms: C_2  and  C_3
REMARK    2  A    between atoms: C_7  and  C_8
REMARK    3  A    between atoms: C_12  and  O_13
REMARK    4  A    between atoms: O_13  and  C_14
REMARK    5  A    between atoms: C_14  and  C_15
REMARK    6  A    between atoms: C_15  and  O_16
REMARK    7  A    between atoms: C_15  and  C_17
REMARK    8  A    between atoms: C_17  and  N_18
REMARK                            x       y       z     vdW  Elec       q    Type
REMARK                         _______ _______ _______ _____ _____    ______ ____
ROOT
ATOM      1  C   UNL     1       1.130   9.128  19.791  0.00  0.00    +0.000 A 
ATOM      2  C   UNL     1       1.464   9.882  18.633  0.00  0.00    +0.000 A 
ATOM      3  C   UNL     1       2.273   9.397  17.589  0.00  0.00    +0.000 A 
ATOM      4  C   UNL     1       2.792   8.113  17.650  0.00  0.00    +0.000 A 
ATOM      5  C   UNL     1       2.474   7.291  18.731  0.00  0.00    +0.000 A 
ATOM      6  C   UNL     1       1.658   7.794  19.786  0.00  0.00    +0.000 A 
ENDROOT
BRANCH   1  11
ATOM      7  C   UNL     1      -1.269  11.601  21.791  0.00  0.00    +0.000 A 
ATOM      8  C   UNL     1      -1.147  11.092  23.055  0.00  0.00    +0.000 A 
ATOM      9  C   UNL     1      -0.429   9.921  23.260  0.00  0.00    +0.000 A 
ATOM     10  C   UNL     1       0.252   9.290  22.200  0.00  0.00    +0.000 A 
ATOM     11  C   UNL     1       0.166   9.718  20.862  0.00  0.00    +0.000 A 
ATOM     12  C   UNL     1      -0.770  10.774  20.679  0.00  0.00    +0.000 A 
BRANCH   7  14
ATOM     13  O   UNL     1      -2.822  13.388  22.133  0.00  0.00    +0.000 OA
ATOM     14  C   UNL     1      -1.714  13.098  21.675  0.00  0.00    +0.000 C 
ATOM     15  N   UNL     1      -0.933  14.106  20.967  0.00  0.00    +0.000 N 
ATOM     16  C   UNL     1      -1.441  15.503  20.921  0.00  0.00    +0.000 C 
ATOM     17  C   UNL     1      -0.955  16.316  19.687  0.00  0.00    +0.000 C 
ATOM     18  O   UNL     1       0.472  16.276  19.584  0.00  0.00    +0.000 OA
ATOM     19  C   UNL     1       0.892  14.925  19.386  0.00  0.00    +0.000 C 
ATOM     20  C   UNL     1       0.484  14.011  20.571  0.00  0.00    +0.000 C 
ENDBRANCH   7  14
ENDBRANCH   1  11
BRANCH   5  21
ATOM     21  O   UNL     1       3.098   6.076  18.618  0.00  0.00    +0.000 OA
BRANCH  21  22
ATOM     22  C   UNL     1       4.103   5.642  19.535  0.00  0.00    +0.000 C 
BRANCH  22  23
ATOM     23  C   UNL     1       5.475   5.479  18.849  0.00  0.00    +0.000 C 
BRANCH  23  24
ATOM     24  O   UNL     1       6.528   5.343  19.827  0.00  0.00    +0.000 OA
ATOM     25  H   UNL     1       7.059   6.156  19.820  0.00  0.00    +0.000 HD
ENDBRANCH  23  24
BRANCH  23  26
ATOM     26  C   UNL     1       5.566   4.241  17.905  0.00  0.00    +0.000 C 
BRANCH  26  27
ATOM     27  N   UNL     1       4.695   3.084  18.108  0.00  0.00    +0.000 NA
ATOM     28  C   UNL     1       3.469   3.220  17.300  0.00  0.00    +0.000 C 
ATOM     29  C   UNL     1       2.471   2.129  17.605  0.00  0.00    +0.000 C 
ATOM     30  C   UNL     1       2.104   2.443  19.000  0.00  0.00    +0.000 A 
ATOM     31  C   UNL     1       0.899   3.045  19.257  0.00  0.00    +0.000 A 
ATOM     32  C   UNL     1       0.684   3.426  20.535  0.00  0.00    +0.000 A 
ATOM     33  C   UNL     1       1.577   3.118  21.582  0.00  0.00    +0.000 A 
ATOM     34  C   UNL     1       2.830   2.630  21.295  0.00  0.00    +0.000 A 
ATOM     35  C   UNL     1       3.129   2.475  19.967  0.00  0.00    +0.000 A 
ATOM     36  C   UNL     1       4.553   2.605  19.500  0.00  0.00    +0.000 C 
ENDBRANCH  26  27
ENDBRANCH  23  26
ENDBRANCH  22  23
ENDBRANCH  21  22
ENDBRANCH   5  21
TORSDOF 8
ENDMDL
