MODEL 1
REMARK VINA RESULT:      -7.3      0.000      0.000
REMARK  Name = 
REMARK  5 active torsions:
REMARK  status: ('A' for Active; 'I' for Inactive)
REMARK    1  A    between atoms: N_3  and  C_4
REMARK    2  A    between atoms: C_4  and  C_5
REMARK    3  A    between atoms: C_5  and  C_6
REMARK    4  A    between atoms: C_6  and  N_7
REMARK    5  A    between atoms: C_20  and  C_21
REMARK                            x       y       z     vdW  Elec       q    Type
REMARK                         _______ _______ _______ _____ _____    ______ ____
ROOT
ATOM      1  O   UNL     1      -6.425  13.277  16.863  0.00  0.00    +0.000 OA
ATOM      2  C   UNL     1      -5.751  12.664  17.693  0.00  0.00    +0.000 C 
ATOM      3  N   UNL     1      -6.075  12.592  19.021  0.00  0.00    +0.000 N 
ATOM      4  N   UNL     1      -4.614  11.979  17.282  0.00  0.00    +0.000 N 
ATOM      5  C   UNL     1      -3.576  11.492  18.089  0.00  0.00    +0.000 A 
ATOM      6  N   UNL     1      -3.611  11.693  19.414  0.00  0.00    +0.000 NA
ATOM      7  N   UNL     1      -2.448  12.323  19.617  0.00  0.00    +0.000 N 
ATOM      8  C   UNL     1      -1.704  12.466  18.446  0.00  0.00    +0.000 A 
ATOM      9  C   UNL     1      -0.380  12.850  18.272  0.00  0.00    +0.000 A 
ATOM     10  C   UNL     1       0.323  11.804  18.851  0.00  0.00    +0.000 A 
ATOM     11 CL   UNL     1       0.753  12.103  20.537  0.00  0.00    +0.000 Cl
ATOM     12  C   UNL     1       0.110  10.478  18.394  0.00  0.00    +0.000 A 
ATOM     13  C   UNL     1      -1.167  10.271  17.732  0.00  0.00    +0.000 A 
ATOM     14  C   UNL     1      -2.170  11.349  17.724  0.00  0.00    +0.000 A 
ATOM     15  H   UNL     1      -5.307  12.232  19.591  0.00  0.00    +0.000 HD
ATOM     16  H   UNL     1      -4.395  12.119  16.304  0.00  0.00    +0.000 HD
ATOM     17  H   UNL     1      -2.160  12.571  20.557  0.00  0.00    +0.000 HD
ENDROOT
BRANCH  12  18
ATOM     18  C   UNL     1       1.097   9.414  18.814  0.00  0.00    +0.000 A 
ATOM     19  C   UNL     1       1.968   8.729  17.956  0.00  0.00    +0.000 A 
ATOM     20  C   UNL     1       2.595   7.532  18.364  0.00  0.00    +0.000 A 
ATOM     21  C   UNL     1       2.362   6.991  19.629  0.00  0.00    +0.000 A 
ATOM     22  C   UNL     1       1.623   7.720  20.541  0.00  0.00    +0.000 A 
ATOM     23  C   UNL     1       1.076   8.945  20.154  0.00  0.00    +0.000 A 
ENDBRANCH  12  18
BRANCH   3  24
ATOM     24  C   UNL     1      -7.056  13.430  19.687  0.00  0.00    +0.000 C 
BRANCH  24  25
ATOM     25  C   UNL     1      -7.538  12.906  21.041  0.00  0.00    +0.000 C 
BRANCH  25  26
ATOM     26  C   UNL     1      -7.103  13.805  22.194  0.00  0.00    +0.000 C 
BRANCH  26  27
ATOM     27  N   UNL     1      -5.984  13.251  22.932  0.00  0.00    +0.000 N 
ATOM     28  C   UNL     1      -4.675  13.218  22.541  0.00  0.00    +0.000 A 
ATOM     29  C   UNL     1      -4.019  12.550  23.549  0.00  0.00    +0.000 A 
ATOM     30  N   UNL     1      -4.894  12.177  24.541  0.00  0.00    +0.000 NA
ATOM     31  C   UNL     1      -6.066  12.612  24.139  0.00  0.00    +0.000 A 
ENDBRANCH  26  27
ENDBRANCH  25  26
ENDBRANCH  24  25
ENDBRANCH   3  24
TORSDOF 5
ENDMDL
MODEL 2
REMARK VINA RESULT:      -7.1      5.121      9.250
REMARK  Name = 
REMARK  5 active torsions:
REMARK  status: ('A' for Active; 'I' for Inactive)
REMARK    1  A    between atoms: N_3  and  C_4
REMARK    2  A    between atoms: C_4  and  C_5
REMARK    3  A    between atoms: C_5  and  C_6
REMARK    4  A    between atoms: C_6  and  N_7
REMARK    5  A    between atoms: C_20  and  C_21
REMARK                            x       y       z     vdW  Elec       q    Type
REMARK                         _______ _______ _______ _____ _____    ______ ____
ROOT
ATOM      1  O   UNL     1       2.741   5.730  17.946  0.00  0.00    +0.000 OA
ATOM      2  C   UNL     1       2.579   6.652  18.749  0.00  0.00    +0.000 C 
ATOM      3  N   UNL     1       2.533   6.472  20.104  0.00  0.00    +0.000 N 
ATOM      4  N   UNL     1       2.461   7.955  18.279  0.00  0.00    +0.000 N 
ATOM      5  C   UNL     1       1.980   9.071  18.980  0.00  0.00    +0.000 A 
ATOM      6  N   UNL     1       1.551   8.932  20.242  0.00  0.00    +0.000 NA
ATOM      7  N   UNL     1       0.303   9.406  20.150  0.00  0.00    +0.000 N 
ATOM      8  C   UNL     1      -0.004   9.861  18.868  0.00  0.00    +0.000 A 
ATOM      9  C   UNL     1      -1.086  10.612  18.424  0.00  0.00    +0.000 A 
ATOM     10  C   UNL     1      -0.889  11.836  19.048  0.00  0.00    +0.000 A 
ATOM     11 CL   UNL     1      -1.768  11.990  20.571  0.00  0.00    +0.000 Cl
ATOM     12  C   UNL     1       0.332  12.531  18.856  0.00  0.00    +0.000 A 
ATOM     13  C   UNL     1       1.444  11.689  18.450  0.00  0.00    +0.000 A 
ATOM     14  C   UNL     1       1.282  10.225  18.424  0.00  0.00    +0.000 A 
ATOM     15  H   UNL     1       2.182   7.297  20.596  0.00  0.00    +0.000 HD
ATOM     16  H   UNL     1       2.444   8.016  17.270  0.00  0.00    +0.000 HD
ATOM     17  H   UNL     1      -0.278   9.476  20.978  0.00  0.00    +0.000 HD
ENDROOT
BRANCH  12  18
ATOM     18  C   UNL     1       0.400  13.978  19.283  0.00  0.00    +0.000 A 
ATOM     19  C   UNL     1      -0.295  15.037  18.681  0.00  0.00    +0.000 A 
ATOM     20  C   UNL     1       0.084  16.378  18.913  0.00  0.00    +0.000 A 
ATOM     21  C   UNL     1       1.165  16.689  19.739  0.00  0.00    +0.000 A 
ATOM     22  C   UNL     1       1.772  15.675  20.454  0.00  0.00    +0.000 A 
ATOM     23  C   UNL     1       1.334  14.359  20.283  0.00  0.00    +0.000 A 
ENDBRANCH  12  18
BRANCH   3  24
ATOM     24  C   UNL     1       2.379   5.191  20.771  0.00  0.00    +0.000 C 
BRANCH  24  25
ATOM     25  C   UNL     1       1.021   4.517  20.567  0.00  0.00    +0.000 C 
BRANCH  25  26
ATOM     26  C   UNL     1       1.126   2.996  20.571  0.00  0.00    +0.000 C 
BRANCH  26  27
ATOM     27  N   UNL     1       1.968   2.499  19.499  0.00  0.00    +0.000 N 
ATOM     28  C   UNL     1       3.223   1.971  19.615  0.00  0.00    +0.000 A 
ATOM     29  C   UNL     1       3.616   1.701  18.324  0.00  0.00    +0.000 A 
ATOM     30  N   UNL     1       2.633   2.050  17.429  0.00  0.00    +0.000 NA
ATOM     31  C   UNL     1       1.658   2.527  18.167  0.00  0.00    +0.000 A 
ENDBRANCH  26  27
ENDBRANCH  25  26
ENDBRANCH  24  25
ENDBRANCH   3  24
TORSDOF 5
ENDMDL
MODEL 3
REMARK VINA RESULT:      -6.9      5.062      9.312
REMARK  Name = 
REMARK  5 active torsions:
REMARK  status: ('A' for Active; 'I' for Inactive)
REMARK    1  A    between atoms: N_3  and  C_4
REMARK    2  A    between atoms: C_4  and  C_5
REMARK    3  A    between atoms: C_5  and  C_6
REMARK    4  A    between atoms: C_6  and  N_7
REMARK    5  A    between atoms: C_20  and  C_21
REMARK                            x       y       z     vdW  Elec       q    Type
REMARK                         _______ _______ _______ _____ _____    ______ ____
ROOT
ATOM      1  O   UNL     1       2.404   5.715  18.206  0.00  0.00    +0.000 OA
ATOM      2  C   UNL     1       2.180   6.634  18.997  0.00  0.00    +0.000 C 
ATOM      3  N   UNL     1       1.863   6.436  20.313  0.00  0.00    +0.000 N 
ATOM      4  N   UNL     1       2.273   7.951  18.560  0.00  0.00    +0.000 N 
ATOM      5  C   UNL     1       1.774   9.096  19.199  0.00  0.00    +0.000 A 
ATOM      6  N   UNL     1       1.104   8.976  20.354  0.00  0.00    +0.000 NA
ATOM      7  N   UNL     1      -0.056   9.571  20.050  0.00  0.00    +0.000 N 
ATOM      8  C   UNL     1      -0.073  10.076  18.750  0.00  0.00    +0.000 A 
ATOM      9  C   UNL     1      -0.978  10.937  18.140  0.00  0.00    +0.000 A 
ATOM     10  C   UNL     1      -0.790  12.124  18.833  0.00  0.00    +0.000 A 
ATOM     11 CL   UNL     1      -1.922  12.336  20.171  0.00  0.00    +0.000 Cl
ATOM     12  C   UNL     1       0.504  12.701  18.895  0.00  0.00    +0.000 A 
ATOM     13  C   UNL     1       1.590  11.762  18.673  0.00  0.00    +0.000 A 
ATOM     14  C   UNL     1       1.302  10.322  18.565  0.00  0.00    +0.000 A 
ATOM     15  H   UNL     1       1.504   7.282  20.761  0.00  0.00    +0.000 HD
ATOM     16  H   UNL     1       2.451   8.031  17.568  0.00  0.00    +0.000 HD
ATOM     17  H   UNL     1      -0.773   9.682  20.757  0.00  0.00    +0.000 HD
ENDROOT
BRANCH  12  18
ATOM     18  C   UNL     1       0.623  14.127  19.379  0.00  0.00    +0.000 A 
ATOM     19  C   UNL     1       1.324  14.542  20.521  0.00  0.00    +0.000 A 
ATOM     20  C   UNL     1       1.101  15.817  21.084  0.00  0.00    +0.000 A 
ATOM     21  C   UNL     1       0.172  16.698  20.529  0.00  0.00    +0.000 A 
ATOM     22  C   UNL     1      -0.423  16.371  19.326  0.00  0.00    +0.000 A 
ATOM     23  C   UNL     1      -0.131  15.141  18.731  0.00  0.00    +0.000 A 
ENDBRANCH  12  18
BRANCH   3  24
ATOM     24  C   UNL     1       1.470   5.163  20.894  0.00  0.00    +0.000 C 
BRANCH  24  25
ATOM     25  C   UNL     1       2.627   4.304  21.405  0.00  0.00    +0.000 C 
BRANCH  25  26
ATOM     26  C   UNL     1       2.445   2.829  21.062  0.00  0.00    +0.000 C 
BRANCH  26  27
ATOM     27  N   UNL     1       2.688   2.557  19.658  0.00  0.00    +0.000 N 
ATOM     28  C   UNL     1       3.891   2.583  19.011  0.00  0.00    +0.000 A 
ATOM     29  C   UNL     1       3.593   2.310  17.695  0.00  0.00    +0.000 A 
ATOM     30  N   UNL     1       2.242   2.119  17.528  0.00  0.00    +0.000 NA
ATOM     31  C   UNL     1       1.728   2.275  18.726  0.00  0.00    +0.000 A 
ENDBRANCH  26  27
ENDBRANCH  25  26
ENDBRANCH  24  25
ENDBRANCH   3  24
TORSDOF 5
ENDMDL
MODEL 4
REMARK VINA RESULT:      -6.9      5.226      9.326
REMARK  Name = 
REMARK  5 active torsions:
REMARK  status: ('A' for Active; 'I' for Inactive)
REMARK    1  A    between atoms: N_3  and  C_4
REMARK    2  A    between atoms: C_4  and  C_5
REMARK    3  A    between atoms: C_5  and  C_6
REMARK    4  A    between atoms: C_6  and  N_7
REMARK    5  A    between atoms: C_20  and  C_21
REMARK                            x       y       z     vdW  Elec       q    Type
REMARK                         _______ _______ _______ _____ _____    ______ ____
ROOT
ATOM      1  O   UNL     1       1.922   5.248  17.823  0.00  0.00    +0.000 OA
ATOM      2  C   UNL     1       1.987   6.186  18.621  0.00  0.00    +0.000 C 
ATOM      3  N   UNL     1       1.895   6.029  19.977  0.00  0.00    +0.000 N 
ATOM      4  N   UNL     1       2.192   7.476  18.146  0.00  0.00    +0.000 N 
ATOM      5  C   UNL     1       1.996   8.679  18.841  0.00  0.00    +0.000 A 
ATOM      6  N   UNL     1       1.542   8.654  20.102  0.00  0.00    +0.000 NA
ATOM      7  N   UNL     1       0.447   9.418  20.004  0.00  0.00    +0.000 N 
ATOM      8  C   UNL     1       0.264   9.928  18.719  0.00  0.00    +0.000 A 
ATOM      9  C   UNL     1      -0.601  10.918  18.268  0.00  0.00    +0.000 A 
ATOM     10  C   UNL     1      -0.113  12.059  18.888  0.00  0.00    +0.000 A 
ATOM     11 CL   UNL     1      -0.932  12.431  20.407  0.00  0.00    +0.000 Cl
ATOM     12  C   UNL     1       1.241  12.436  18.697  0.00  0.00    +0.000 A 
ATOM     13  C   UNL     1       2.115  11.345  18.298  0.00  0.00    +0.000 A 
ATOM     14  C   UNL     1       1.601   9.965  18.278  0.00  0.00    +0.000 A 
ATOM     15  H   UNL     1       1.755   6.916  20.465  0.00  0.00    +0.000 HD
ATOM     16  H   UNL     1       2.192   7.535  17.136  0.00  0.00    +0.000 HD
ATOM     17  H   UNL     1      -0.101   9.631  20.829  0.00  0.00    +0.000 HD
ENDROOT
BRANCH  12  18
ATOM     18  C   UNL     1       1.659  13.825  19.119  0.00  0.00    +0.000 A 
ATOM     19  C   UNL     1       0.931  15.000  18.880  0.00  0.00    +0.000 A 
ATOM     20  C   UNL     1       1.544  16.267  18.995  0.00  0.00    +0.000 A 
ATOM     21  C   UNL     1       2.890  16.388  19.341  0.00  0.00    +0.000 A 
ATOM     22  C   UNL     1       3.587  15.257  19.720  0.00  0.00    +0.000 A 
ATOM     23  C   UNL     1       2.947  14.016  19.684  0.00  0.00    +0.000 A 
ENDBRANCH  12  18
BRANCH   3  24
ATOM     24  C   UNL     1       1.432   4.826  20.649  0.00  0.00    +0.000 C 
BRANCH  24  25
ATOM     25  C   UNL     1       2.457   4.172  21.576  0.00  0.00    +0.000 C 
BRANCH  25  26
ATOM     26  C   UNL     1       2.687   2.704  21.236  0.00  0.00    +0.000 C 
BRANCH  26  27
ATOM     27  N   UNL     1       3.008   2.507  19.835  0.00  0.00    +0.000 N 
ATOM     28  C   UNL     1       4.135   2.923  19.182  0.00  0.00    +0.000 A 
ATOM     29  C   UNL     1       3.946   2.548  17.872  0.00  0.00    +0.000 A 
ATOM     30  N   UNL     1       2.736   1.915  17.713  0.00  0.00    +0.000 NA
ATOM     31  C   UNL     1       2.198   1.908  18.911  0.00  0.00    +0.000 A 
ENDBRANCH  26  27
ENDBRANCH  25  26
ENDBRANCH  24  25
ENDBRANCH   3  24
TORSDOF 5
ENDMDL
MODEL 5
REMARK VINA RESULT:      -6.8      2.612      4.238
REMARK  Name = 
REMARK  5 active torsions:
REMARK  status: ('A' for Active; 'I' for Inactive)
REMARK    1  A    between atoms: N_3  and  C_4
REMARK    2  A    between atoms: C_4  and  C_5
REMARK    3  A    between atoms: C_5  and  C_6
REMARK    4  A    between atoms: C_6  and  N_7
REMARK    5  A    between atoms: C_20  and  C_21
REMARK                            x       y       z     vdW  Elec       q    Type
REMARK                         _______ _______ _______ _____ _____    ______ ____
ROOT
ATOM      1  O   UNL     1      -1.595  14.101  19.983  0.00  0.00    +0.000 OA
ATOM      2  C   UNL     1      -1.644  12.925  19.613  0.00  0.00    +0.000 C 
ATOM      3  N   UNL     1      -2.798  12.191  19.588  0.00  0.00    +0.000 N 
ATOM      4  N   UNL     1      -0.486  12.300  19.166  0.00  0.00    +0.000 N 
ATOM      5  C   UNL     1      -0.274  10.923  18.997  0.00  0.00    +0.000 A 
ATOM      6  N   UNL     1      -1.250  10.056  19.302  0.00  0.00    +0.000 NA
ATOM      7  N   UNL     1      -0.635   9.268  20.192  0.00  0.00    +0.000 N 
ATOM      8  C   UNL     1       0.698   9.625  20.392  0.00  0.00    +0.000 A 
ATOM      9  C   UNL     1       1.716   8.941  21.046  0.00  0.00    +0.000 A 
ATOM     10  C   UNL     1       1.907   7.828  20.239  0.00  0.00    +0.000 A 
ATOM     11 CL   UNL     1       0.995   6.415  20.776  0.00  0.00    +0.000 Cl
ATOM     12  C   UNL     1       2.208   8.003  18.864  0.00  0.00    +0.000 A 
ATOM     13  C   UNL     1       1.793   9.285  18.319  0.00  0.00    +0.000 A 
ATOM     14  C   UNL     1       0.986  10.203  19.140  0.00  0.00    +0.000 A 
ATOM     15  H   UNL     1      -2.622  11.192  19.462  0.00  0.00    +0.000 HD
ATOM     16  H   UNL     1       0.342  12.873  19.263  0.00  0.00    +0.000 HD
ATOM     17  H   UNL     1      -1.117   8.466  20.580  0.00  0.00    +0.000 HD
ENDROOT
BRANCH  12  18
ATOM     18  C   UNL     1       2.712   6.808  18.090  0.00  0.00    +0.000 A 
ATOM     19  C   UNL     1       2.108   5.543  18.063  0.00  0.00    +0.000 A 
ATOM     20  C   UNL     1       2.816   4.411  17.606  0.00  0.00    +0.000 A 
ATOM     21  C   UNL     1       4.140   4.515  17.175  0.00  0.00    +0.000 A 
ATOM     22  C   UNL     1       4.707   5.769  17.056  0.00  0.00    +0.000 A 
ATOM     23  C   UNL     1       3.967   6.892  17.432  0.00  0.00    +0.000 A 
ENDBRANCH  12  18
BRANCH   3  24
ATOM     24  C   UNL     1      -4.040  12.566  20.242  0.00  0.00    +0.000 C 
BRANCH  24  25
ATOM     25  C   UNL     1      -5.219  12.800  19.297  0.00  0.00    +0.000 C 
BRANCH  25  26
ATOM     26  C   UNL     1      -6.562  12.619  19.997  0.00  0.00    +0.000 C 
BRANCH  26  27
ATOM     27  N   UNL     1      -6.969  11.229  20.056  0.00  0.00    +0.000 N 
ATOM     28  C   UNL     1      -7.707  10.628  21.038  0.00  0.00    +0.000 A 
ATOM     29  C   UNL     1      -7.779   9.304  20.669  0.00  0.00    +0.000 A 
ATOM     30  N   UNL     1      -7.106   9.086  19.491  0.00  0.00    +0.000 NA
ATOM     31  C   UNL     1      -6.631  10.262  19.150  0.00  0.00    +0.000 A 
ENDBRANCH  26  27
ENDBRANCH  25  26
ENDBRANCH  24  25
ENDBRANCH   3  24
TORSDOF 5
ENDMDL
MODEL 6
REMARK VINA RESULT:      -6.8      2.509      4.006
REMARK  Name = 
REMARK  5 active torsions:
REMARK  status: ('A' for Active; 'I' for Inactive)
REMARK    1  A    between atoms: N_3  and  C_4
REMARK    2  A    between atoms: C_4  and  C_5
REMARK    3  A    between atoms: C_5  and  C_6
REMARK    4  A    between atoms: C_6  and  N_7
REMARK    5  A    between atoms: C_20  and  C_21
REMARK                            x       y       z     vdW  Elec       q    Type
REMARK                         _______ _______ _______ _____ _____    ______ ____
ROOT
ATOM      1  O   UNL     1      -1.230  14.103  19.608  0.00  0.00    +0.000 OA
ATOM      2  C   UNL     1      -1.342  12.913  19.301  0.00  0.00    +0.000 C 
ATOM      3  N   UNL     1      -2.532  12.239  19.321  0.00  0.00    +0.000 N 
ATOM      4  N   UNL     1      -0.220  12.205  18.885  0.00  0.00    +0.000 N 
ATOM      5  C   UNL     1      -0.081  10.813  18.790  0.00  0.00    +0.000 A 
ATOM      6  N   UNL     1      -1.098  10.015  19.145  0.00  0.00    +0.000 NA
ATOM      7  N   UNL     1      -0.519   9.245  20.073  0.00  0.00    +0.000 N 
ATOM      8  C   UNL     1       0.832   9.543  20.249  0.00  0.00    +0.000 A 
ATOM      9  C   UNL     1       1.818   8.843  20.935  0.00  0.00    +0.000 A 
ATOM     10  C   UNL     1       1.946   7.681  20.189  0.00  0.00    +0.000 A 
ATOM     11 CL   UNL     1       0.967   6.347  20.804  0.00  0.00    +0.000 Cl
ATOM     12  C   UNL     1       2.247   7.766  18.806  0.00  0.00    +0.000 A 
ATOM     13  C   UNL     1       1.895   9.036  18.193  0.00  0.00    +0.000 A 
ATOM     14  C   UNL     1       1.142  10.037  18.966  0.00  0.00    +0.000 A 
ATOM     15  H   UNL     1      -2.409  11.227  19.248  0.00  0.00    +0.000 HD
ATOM     16  H   UNL     1       0.636  12.740  18.948  0.00  0.00    +0.000 HD
ATOM     17  H   UNL     1      -1.038   8.491  20.507  0.00  0.00    +0.000 HD
ENDROOT
BRANCH  12  18
ATOM     18  C   UNL     1       2.683   6.507  18.095  0.00  0.00    +0.000 A 
ATOM     19  C   UNL     1       1.922   5.336  17.974  0.00  0.00    +0.000 A 
ATOM     20  C   UNL     1       2.525   4.113  17.606  0.00  0.00    +0.000 A 
ATOM     21  C   UNL     1       3.896   4.031  17.360  0.00  0.00    +0.000 A 
ATOM     22  C   UNL     1       4.640   5.195  17.332  0.00  0.00    +0.000 A 
ATOM     23  C   UNL     1       4.017   6.412  17.615  0.00  0.00    +0.000 A 
ENDBRANCH  12  18
BRANCH   3  24
ATOM     24  C   UNL     1      -3.749  12.712  19.958  0.00  0.00    +0.000 C 
BRANCH  24  25
ATOM     25  C   UNL     1      -5.037  12.408  19.192  0.00  0.00    +0.000 C 
BRANCH  25  26
ATOM     26  C   UNL     1      -6.223  13.211  19.717  0.00  0.00    +0.000 C 
BRANCH  26  27
ATOM     27  N   UNL     1      -6.862  12.571  20.850  0.00  0.00    +0.000 N 
ATOM     28  C   UNL     1      -6.949  13.051  22.127  0.00  0.00    +0.000 A 
ATOM     29  C   UNL     1      -7.595  12.064  22.836  0.00  0.00    +0.000 A 
ATOM     30  N   UNL     1      -7.903  10.999  22.023  0.00  0.00    +0.000 NA
ATOM     31  C   UNL     1      -7.448  11.335  20.838  0.00  0.00    +0.000 A 
ENDBRANCH  26  27
ENDBRANCH  25  26
ENDBRANCH  24  25
ENDBRANCH   3  24
TORSDOF 5
ENDMDL
MODEL 7
REMARK VINA RESULT:      -6.7      8.175     11.012
REMARK  Name = 
REMARK  5 active torsions:
REMARK  status: ('A' for Active; 'I' for Inactive)
REMARK    1  A    between atoms: N_3  and  C_4
REMARK    2  A    between atoms: C_4  and  C_5
REMARK    3  A    between atoms: C_5  and  C_6
REMARK    4  A    between atoms: C_6  and  N_7
REMARK    5  A    between atoms: C_20  and  C_21
REMARK                            x       y       z     vdW  Elec       q    Type
REMARK                         _______ _______ _______ _____ _____    ______ ____
ROOT
ATOM      1  O   UNL     1       1.752   7.881  20.410  0.00  0.00    +0.000 OA
ATOM      2  C   UNL     1       2.177   6.930  19.750  0.00  0.00    +0.000 C 
ATOM      3  N   UNL     1       2.022   5.623  20.126  0.00  0.00    +0.000 N 
ATOM      4  N   UNL     1       2.826   7.168  18.544  0.00  0.00    +0.000 N 
ATOM      5  C   UNL     1       3.626   6.274  17.818  0.00  0.00    +0.000 A 
ATOM      6  N   UNL     1       3.848   5.041  18.294  0.00  0.00    +0.000 NA
ATOM      7  N   UNL     1       5.186   5.012  18.338  0.00  0.00    +0.000 N 
ATOM      8  C   UNL     1       5.763   6.188  17.861  0.00  0.00    +0.000 A 
ATOM      9  C   UNL     1       7.086   6.464  17.537  0.00  0.00    +0.000 A 
ATOM     10  C   UNL     1       7.311   5.649  16.437  0.00  0.00    +0.000 A 
ATOM     11 CL   UNL     1       8.034   4.095  16.859  0.00  0.00    +0.000 Cl
ATOM     12  C   UNL     1       6.472   5.760  15.299  0.00  0.00    +0.000 A 
ATOM     13  C   UNL     1       5.166   6.337  15.572  0.00  0.00    +0.000 A 
ATOM     14  C   UNL     1       4.761   6.604  16.962  0.00  0.00    +0.000 A 
ATOM     15  H   UNL     1       2.611   4.988  19.584  0.00  0.00    +0.000 HD
ATOM     16  H   UNL     1       2.961   8.152  18.350  0.00  0.00    +0.000 HD
ATOM     17  H   UNL     1       5.668   4.166  18.620  0.00  0.00    +0.000 HD
ENDROOT
BRANCH  12  18
ATOM     18  C   UNL     1       6.920   5.096  14.019  0.00  0.00    +0.000 A 
ATOM     19  C   UNL     1       7.821   5.641  13.093  0.00  0.00    +0.000 A 
ATOM     20  C   UNL     1       7.916   5.124  11.783  0.00  0.00    +0.000 A 
ATOM     21  C   UNL     1       7.112   4.061  11.367  0.00  0.00    +0.000 A 
ATOM     22  C   UNL     1       6.322   3.417  12.300  0.00  0.00    +0.000 A 
ATOM     23  C   UNL     1       6.299   3.884  13.616  0.00  0.00    +0.000 A 
ENDBRANCH  12  18
BRANCH   3  24
ATOM     24  C   UNL     1       1.611   5.178  21.447  0.00  0.00    +0.000 C 
BRANCH  24  25
ATOM     25  C   UNL     1       1.308   3.683  21.557  0.00  0.00    +0.000 C 
BRANCH  25  26
ATOM     26  C   UNL     1       2.558   2.828  21.384  0.00  0.00    +0.000 C 
BRANCH  26  27
ATOM     27  N   UNL     1       2.720   2.357  20.022  0.00  0.00    +0.000 N 
ATOM     28  C   UNL     1       1.752   2.269  19.061  0.00  0.00    +0.000 A 
ATOM     29  C   UNL     1       2.384   1.720  17.969  0.00  0.00    +0.000 A 
ATOM     30  N   UNL     1       3.708   1.473  18.242  0.00  0.00    +0.000 NA
ATOM     31  C   UNL     1       3.877   1.866  19.483  0.00  0.00    +0.000 A 
ENDBRANCH  26  27
ENDBRANCH  25  26
ENDBRANCH  24  25
ENDBRANCH   3  24
TORSDOF 5
ENDMDL
MODEL 8
REMARK VINA RESULT:      -6.6      3.311      7.460
REMARK  Name = 
REMARK  5 active torsions:
REMARK  status: ('A' for Active; 'I' for Inactive)
REMARK    1  A    between atoms: N_3  and  C_4
REMARK    2  A    between atoms: C_4  and  C_5
REMARK    3  A    between atoms: C_5  and  C_6
REMARK    4  A    between atoms: C_6  and  N_7
REMARK    5  A    between atoms: C_20  and  C_21
REMARK                            x       y       z     vdW  Elec       q    Type
REMARK                         _______ _______ _______ _____ _____    ______ ____
ROOT
ATOM      1  O   UNL     1      -7.432  10.463  20.883  0.00  0.00    +0.000 OA
ATOM      2  C   UNL     1      -6.924  11.582  20.990  0.00  0.00    +0.000 C 
ATOM      3  N   UNL     1      -6.900  12.498  19.974  0.00  0.00    +0.000 N 
ATOM      4  N   UNL     1      -6.365  11.966  22.202  0.00  0.00    +0.000 N 
ATOM      5  C   UNL     1      -5.494  13.041  22.434  0.00  0.00    +0.000 A 
ATOM      6  N   UNL     1      -5.101  13.813  21.411  0.00  0.00    +0.000 NA
ATOM      7  N   UNL     1      -3.769  13.707  21.496  0.00  0.00    +0.000 N 
ATOM      8  C   UNL     1      -3.363  12.920  22.574  0.00  0.00    +0.000 A 
ATOM      9  C   UNL     1      -2.100  12.751  23.129  0.00  0.00    +0.000 A 
ATOM     10  C   UNL     1      -1.827  14.004  23.658  0.00  0.00    +0.000 A 
ATOM     11 CL   UNL     1      -0.899  15.035  22.565  0.00  0.00    +0.000 Cl
ATOM     12  C   UNL     1      -2.724  14.580  24.593  0.00  0.00    +0.000 A 
ATOM     13  C   UNL     1      -4.076  14.053  24.528  0.00  0.00    +0.000 A 
ATOM     14  C   UNL     1      -4.449  13.124  23.448  0.00  0.00    +0.000 A 
ATOM     15  H   UNL     1      -6.262  13.274  20.163  0.00  0.00    +0.000 HD
ATOM     16  H   UNL     1      -6.361  11.227  22.893  0.00  0.00    +0.000 HD
ATOM     17  H   UNL     1      -3.174  14.232  20.867  0.00  0.00    +0.000 HD
ENDROOT
BRANCH  12  18
ATOM     18  C   UNL     1      -2.256  15.783  25.378  0.00  0.00    +0.000 A 
ATOM     19  C   UNL     1      -2.720  17.095  25.209  0.00  0.00    +0.000 A 
ATOM     20  C   UNL     1      -1.998  18.192  25.728  0.00  0.00    +0.000 A 
ATOM     21  C   UNL     1      -0.799  18.005  26.417  0.00  0.00    +0.000 A 
ATOM     22  C   UNL     1      -0.397  16.718  26.721  0.00  0.00    +0.000 A 
ATOM     23  C   UNL     1      -1.164  15.639  26.275  0.00  0.00    +0.000 A 
ENDBRANCH  12  18
BRANCH   3  24
ATOM     24  C   UNL     1      -7.193  12.208  18.581  0.00  0.00    +0.000 C 
BRANCH  24  25
ATOM     25  C   UNL     1      -6.211  11.250  17.903  0.00  0.00    +0.000 C 
BRANCH  25  26
ATOM     26  C   UNL     1      -5.187  11.986  17.047  0.00  0.00    +0.000 C 
BRANCH  26  27
ATOM     27  N   UNL     1      -4.047  11.154  16.714  0.00  0.00    +0.000 N 
ATOM     28  C   UNL     1      -3.148  10.602  17.584  0.00  0.00    +0.000 A 
ATOM     29  C   UNL     1      -2.234   9.953  16.786  0.00  0.00    +0.000 A 
ATOM     30  N   UNL     1      -2.555  10.095  15.457  0.00  0.00    +0.000 NA
ATOM     31  C   UNL     1      -3.648  10.822  15.449  0.00  0.00    +0.000 A 
ENDBRANCH  26  27
ENDBRANCH  25  26
ENDBRANCH  24  25
ENDBRANCH   3  24
TORSDOF 5
ENDMDL
MODEL 9
REMARK VINA RESULT:      -6.6      5.283      9.438
REMARK  Name = 
REMARK  5 active torsions:
REMARK  status: ('A' for Active; 'I' for Inactive)
REMARK    1  A    between atoms: N_3  and  C_4
REMARK    2  A    between atoms: C_4  and  C_5
REMARK    3  A    between atoms: C_5  and  C_6
REMARK    4  A    between atoms: C_6  and  N_7
REMARK    5  A    between atoms: C_20  and  C_21
REMARK                            x       y       z     vdW  Elec       q    Type
REMARK                         _______ _______ _______ _____ _____    ______ ____
ROOT
ATOM      1  O   UNL     1       1.753   5.130  17.651  0.00  0.00    +0.000 OA
ATOM      2  C   UNL     1       1.935   6.038  18.466  0.00  0.00    +0.000 C 
ATOM      3  N   UNL     1       1.989   5.836  19.818  0.00  0.00    +0.000 N 
ATOM      4  N   UNL     1       2.127   7.337  18.012  0.00  0.00    +0.000 N 
ATOM      5  C   UNL     1       2.047   8.520  18.761  0.00  0.00    +0.000 A 
ATOM      6  N   UNL     1       1.734   8.464  20.064  0.00  0.00    +0.000 NA
ATOM      7  N   UNL     1       0.660   9.261  20.112  0.00  0.00    +0.000 N 
ATOM      8  C   UNL     1       0.352   9.820  18.872  0.00  0.00    +0.000 A 
ATOM      9  C   UNL     1      -0.526  10.850  18.551  0.00  0.00    +0.000 A 
ATOM     10  C   UNL     1       0.064  11.954  19.149  0.00  0.00    +0.000 A 
ATOM     11 CL   UNL     1      -0.571  12.295  20.761  0.00  0.00    +0.000 Cl
ATOM     12  C   UNL     1       1.399  12.300  18.820  0.00  0.00    +0.000 A 
ATOM     13  C   UNL     1       2.189  11.200  18.293  0.00  0.00    +0.000 A 
ATOM     14  C   UNL     1       1.633   9.836  18.286  0.00  0.00    +0.000 A 
ATOM     15  H   UNL     1       1.931   6.710  20.345  0.00  0.00    +0.000 HD
ATOM     16  H   UNL     1       2.018   7.431  17.010  0.00  0.00    +0.000 HD
ATOM     17  H   UNL     1       0.213   9.461  20.999  0.00  0.00    +0.000 HD
ENDROOT
BRANCH  12  18
ATOM     18  C   UNL     1       1.904  13.661  19.237  0.00  0.00    +0.000 A 
ATOM     19  C   UNL     1       1.651  14.863  18.561  0.00  0.00    +0.000 A 
ATOM     20  C   UNL     1       2.430  16.014  18.812  0.00  0.00    +0.000 A 
ATOM     21  C   UNL     1       3.479  15.987  19.733  0.00  0.00    +0.000 A 
ATOM     22  C   UNL     1       3.655  14.860  20.512  0.00  0.00    +0.000 A 
ATOM     23  C   UNL     1       2.824  13.755  20.315  0.00  0.00    +0.000 A 
ENDBRANCH  12  18
BRANCH   3  24
ATOM     24  C   UNL     1       1.565   4.625  20.498  0.00  0.00    +0.000 C 
BRANCH  24  25
ATOM     25  C   UNL     1       2.704   3.742  21.010  0.00  0.00    +0.000 C 
BRANCH  25  26
ATOM     26  C   UNL     1       3.132   2.700  19.981  0.00  0.00    +0.000 C 
BRANCH  26  27
ATOM     27  N   UNL     1       4.056   3.240  19.003  0.00  0.00    +0.000 N 
ATOM     28  C   UNL     1       5.044   4.159  19.222  0.00  0.00    +0.000 A 
ATOM     29  C   UNL     1       5.602   4.384  17.984  0.00  0.00    +0.000 A 
ATOM     30  N   UNL     1       4.980   3.625  17.021  0.00  0.00    +0.000 NA
ATOM     31  C   UNL     1       4.056   2.951  17.666  0.00  0.00    +0.000 A 
ENDBRANCH  26  27
ENDBRANCH  25  26
ENDBRANCH  24  25
ENDBRANCH   3  24
TORSDOF 5
ENDMDL
