MODEL 1
REMARK VINA RESULT:      -7.2      0.000      0.000
REMARK  Name = 
REMARK  10 active torsions:
REMARK  status: ('A' for Active; 'I' for Inactive)
REMARK    1  A    between atoms: C_1  and  C_2
REMARK    2  A    between atoms: C_2  and  N_3
REMARK    3  A    between atoms: N_3  and  C_4
REMARK    4  A    between atoms: N_3  and  C_6
REMARK    5  A    between atoms: C_4  and  C_5
REMARK    6  A    between atoms: C_6  and  C_7
REMARK    7  A    between atoms: C_7  and  C_8
REMARK    8  A    between atoms: C_8  and  N_9
REMARK    9  A    between atoms: N_9  and  C_10
REMARK   10  A    between atoms: C_15  and  C_16
REMARK                            x       y       z     vdW  Elec       q    Type
REMARK                         _______ _______ _______ _____ _____    ______ ____
ROOT
ATOM      1  C   UNL     1       4.122   3.626  17.061  0.00  0.00    +0.000 A 
ATOM      2  N   UNL     1       4.392   2.318  17.237  0.00  0.00    +0.000 NA
ATOM      3  C   UNL     1       4.063   1.775  18.423  0.00  0.00    +0.000 A 
ATOM      4  C   UNL     1       3.449   2.466  19.455  0.00  0.00    +0.000 A 
ATOM      5  C   UNL     1       3.145   3.833  19.299  0.00  0.00    +0.000 A 
ATOM      6  C   UNL     1       2.467   4.609  20.302  0.00  0.00    +0.000 A 
ATOM      7  C   UNL     1       1.981   4.044  21.609  0.00  0.00    +0.000 C 
ATOM      8  C   UNL     1       2.219   5.969  19.999  0.00  0.00    +0.000 A 
ATOM      9  N   UNL     1       1.575   6.946  20.732  0.00  0.00    +0.000 N 
ATOM     10  C   UNL     1       1.539   8.140  20.060  0.00  0.00    +0.000 A 
ATOM     11  C   UNL     1       0.997   9.374  20.406  0.00  0.00    +0.000 A 
ATOM     12  C   UNL     1       1.150  10.371  19.452  0.00  0.00    +0.000 A 
ATOM     13  N   UNL     1       1.764  10.220  18.258  0.00  0.00    +0.000 NA
ATOM     14  C   UNL     1       2.280   9.006  17.942  0.00  0.00    +0.000 A 
ATOM     15  C   UNL     1       2.189   7.931  18.838  0.00  0.00    +0.000 A 
ATOM     16  C   UNL     1       2.603   6.571  18.809  0.00  0.00    +0.000 A 
ATOM     17  C   UNL     1       3.265   5.793  17.848  0.00  0.00    +0.000 A 
ATOM     18  C   UNL     1       3.527   4.428  18.077  0.00  0.00    +0.000 A 
ATOM     19  H   UNL     1       1.173   6.796  21.646  0.00  0.00    +0.000 HD
ENDROOT
BRANCH   1  20
ATOM     20  N   UNL     1       4.438   4.231  15.837  0.00  0.00    +0.000 N 
ATOM     21  H   UNL     1       4.462   5.239  15.949  0.00  0.00    +0.000 HD
BRANCH  20  22
ATOM     22  C   UNL     1       5.560   3.666  15.101  0.00  0.00    +0.000 C 
BRANCH  22  23
ATOM     23  C   UNL     1       6.838   4.221  15.735  0.00  0.00    +0.000 C 
BRANCH  23  24
ATOM     24  C   UNL     1       6.812   5.745  15.947  0.00  0.00    +0.000 C 
BRANCH  24  25
ATOM     25  N   UNL     1       7.586   6.220  17.114  0.00  0.00    +0.000 NA
BRANCH  25  27
ATOM     26  C   UNL     1       8.110   8.608  17.867  0.00  0.00    +0.000 C 
ATOM     27  C   UNL     1       7.079   7.542  17.537  0.00  0.00    +0.000 C 
ENDBRANCH  25  27
BRANCH  25  28
ATOM     28  C   UNL     1       7.602   5.219  18.200  0.00  0.00    +0.000 C 
ATOM     29  C   UNL     1       6.680   5.484  19.386  0.00  0.00    +0.000 C 
ENDBRANCH  25  28
ENDBRANCH  24  25
ENDBRANCH  23  24
ENDBRANCH  22  23
ENDBRANCH  20  22
ENDBRANCH   1  20
TORSDOF 7
ENDMDL
MODEL 2
REMARK VINA RESULT:      -6.9      0.279      1.263
REMARK  Name = 
REMARK  10 active torsions:
REMARK  status: ('A' for Active; 'I' for Inactive)
REMARK    1  A    between atoms: C_1  and  C_2
REMARK    2  A    between atoms: C_2  and  N_3
REMARK    3  A    between atoms: N_3  and  C_4
REMARK    4  A    between atoms: N_3  and  C_6
REMARK    5  A    between atoms: C_4  and  C_5
REMARK    6  A    between atoms: C_6  and  C_7
REMARK    7  A    between atoms: C_7  and  C_8
REMARK    8  A    between atoms: C_8  and  N_9
REMARK    9  A    between atoms: N_9  and  C_10
REMARK   10  A    between atoms: C_15  and  C_16
REMARK                            x       y       z     vdW  Elec       q    Type
REMARK                         _______ _______ _______ _____ _____    ______ ____
ROOT
ATOM      1  C   UNL     1       4.215   3.710  17.115  0.00  0.00    +0.000 A 
ATOM      2  N   UNL     1       4.506   2.408  17.298  0.00  0.00    +0.000 NA
ATOM      3  C   UNL     1       4.174   1.862  18.481  0.00  0.00    +0.000 A 
ATOM      4  C   UNL     1       3.536   2.544  19.505  0.00  0.00    +0.000 A 
ATOM      5  C   UNL     1       3.209   3.906  19.341  0.00  0.00    +0.000 A 
ATOM      6  C   UNL     1       2.506   4.672  20.334  0.00  0.00    +0.000 A 
ATOM      7  C   UNL     1       2.015   4.101  21.637  0.00  0.00    +0.000 C 
ATOM      8  C   UNL     1       2.237   6.026  20.024  0.00  0.00    +0.000 A 
ATOM      9  N   UNL     1       1.568   6.993  20.747  0.00  0.00    +0.000 N 
ATOM     10  C   UNL     1       1.518   8.185  20.072  0.00  0.00    +0.000 A 
ATOM     11  C   UNL     1       0.950   9.410  20.408  0.00  0.00    +0.000 A 
ATOM     12  C   UNL     1       1.096  10.407  19.453  0.00  0.00    +0.000 A 
ATOM     13  N   UNL     1       1.727  10.264  18.266  0.00  0.00    +0.000 NA
ATOM     14  C   UNL     1       2.267   9.059  17.960  0.00  0.00    +0.000 A 
ATOM     15  C   UNL     1       2.185   7.984  18.857  0.00  0.00    +0.000 A 
ATOM     16  C   UNL     1       2.624   6.632  18.838  0.00  0.00    +0.000 A 
ATOM     17  C   UNL     1       3.311   5.864  17.887  0.00  0.00    +0.000 A 
ATOM     18  C   UNL     1       3.594   4.504  18.122  0.00  0.00    +0.000 A 
ATOM     19  H   UNL     1       1.157   6.839  21.657  0.00  0.00    +0.000 HD
ENDROOT
BRANCH   1  20
ATOM     20  N   UNL     1       4.535   4.318  15.893  0.00  0.00    +0.000 N 
ATOM     21  H   UNL     1       4.468   5.326  15.984  0.00  0.00    +0.000 HD
BRANCH  20  22
ATOM     22  C   UNL     1       5.732   3.837  15.220  0.00  0.00    +0.000 C 
BRANCH  22  23
ATOM     23  C   UNL     1       6.933   4.354  16.017  0.00  0.00    +0.000 C 
BRANCH  23  24
ATOM     24  C   UNL     1       7.045   5.888  16.041  0.00  0.00    +0.000 C 
BRANCH  24  25
ATOM     25  N   UNL     1       6.732   6.510  17.345  0.00  0.00    +0.000 NA
BRANCH  25  27
ATOM     26  C   UNL     1       6.709   5.352  19.625  0.00  0.00    +0.000 C 
ATOM     27  C   UNL     1       7.491   5.827  18.413  0.00  0.00    +0.000 C 
ENDBRANCH  25  27
BRANCH  25  28
ATOM     28  C   UNL     1       6.942   7.972  17.315  0.00  0.00    +0.000 C 
ATOM     29  C   UNL     1       8.223   8.491  17.962  0.00  0.00    +0.000 C 
ENDBRANCH  25  28
ENDBRANCH  24  25
ENDBRANCH  23  24
ENDBRANCH  22  23
ENDBRANCH  20  22
ENDBRANCH   1  20
TORSDOF 7
ENDMDL
MODEL 3
REMARK VINA RESULT:      -6.7      3.044      7.780
REMARK  Name = 
REMARK  10 active torsions:
REMARK  status: ('A' for Active; 'I' for Inactive)
REMARK    1  A    between atoms: C_1  and  C_2
REMARK    2  A    between atoms: C_2  and  N_3
REMARK    3  A    between atoms: N_3  and  C_4
REMARK    4  A    between atoms: N_3  and  C_6
REMARK    5  A    between atoms: C_4  and  C_5
REMARK    6  A    between atoms: C_6  and  C_7
REMARK    7  A    between atoms: C_7  and  C_8
REMARK    8  A    between atoms: C_8  and  N_9
REMARK    9  A    between atoms: N_9  and  C_10
REMARK   10  A    between atoms: C_15  and  C_16
REMARK                            x       y       z     vdW  Elec       q    Type
REMARK                         _______ _______ _______ _____ _____    ______ ____
ROOT
ATOM      1  C   UNL     1       1.183   9.236  19.555  0.00  0.00    +0.000 A 
ATOM      2  N   UNL     1       0.366   9.451  20.603  0.00  0.00    +0.000 NA
ATOM      3  C   UNL     1       0.198   8.439  21.473  0.00  0.00    +0.000 A 
ATOM      4  C   UNL     1       0.825   7.208  21.370  0.00  0.00    +0.000 A 
ATOM      5  C   UNL     1       1.693   6.954  20.289  0.00  0.00    +0.000 A 
ATOM      6  C   UNL     1       2.418   5.721  20.134  0.00  0.00    +0.000 A 
ATOM      7  C   UNL     1       2.356   4.586  21.120  0.00  0.00    +0.000 C 
ATOM      8  C   UNL     1       3.263   5.614  19.004  0.00  0.00    +0.000 A 
ATOM      9  N   UNL     1       4.094   4.588  18.603  0.00  0.00    +0.000 N 
ATOM     10  C   UNL     1       4.755   4.896  17.442  0.00  0.00    +0.000 A 
ATOM     11  C   UNL     1       5.680   4.179  16.690  0.00  0.00    +0.000 A 
ATOM     12  C   UNL     1       6.146   4.828  15.556  0.00  0.00    +0.000 A 
ATOM     13  N   UNL     1       5.774   6.065  15.157  0.00  0.00    +0.000 NA
ATOM     14  C   UNL     1       4.875   6.747  15.909  0.00  0.00    +0.000 A 
ATOM     15  C   UNL     1       4.333   6.180  17.072  0.00  0.00    +0.000 A 
ATOM     16  C   UNL     1       3.407   6.618  18.058  0.00  0.00    +0.000 A 
ATOM     17  C   UNL     1       2.686   7.809  18.229  0.00  0.00    +0.000 A 
ATOM     18  C   UNL     1       1.843   7.990  19.343  0.00  0.00    +0.000 A 
ATOM     19  H   UNL     1       4.209   3.721  19.107  0.00  0.00    +0.000 HD
ENDROOT
BRANCH   1  20
ATOM     20  N   UNL     1       1.395  10.266  18.629  0.00  0.00    +0.000 N 
ATOM     21  H   UNL     1       1.887   9.903  17.819  0.00  0.00    +0.000 HD
BRANCH  20  22
ATOM     22  C   UNL     1       0.253  11.116  18.326  0.00  0.00    +0.000 C 
BRANCH  22  23
ATOM     23  C   UNL     1      -0.806  10.227  17.667  0.00  0.00    +0.000 C 
BRANCH  23  24
ATOM     24  C   UNL     1      -2.234  10.485  18.180  0.00  0.00    +0.000 C 
BRANCH  24  25
ATOM     25  N   UNL     1      -3.271  10.521  17.126  0.00  0.00    +0.000 NA
BRANCH  25  27
ATOM     26  C   UNL     1      -5.625  10.995  18.006  0.00  0.00    +0.000 C 
ATOM     27  C   UNL     1      -4.300  11.520  17.481  0.00  0.00    +0.000 C 
ENDBRANCH  25  27
BRANCH  25  28
ATOM     28  C   UNL     1      -2.680  10.732  15.788  0.00  0.00    +0.000 C 
ATOM     29  C   UNL     1      -3.453  10.161  14.603  0.00  0.00    +0.000 C 
ENDBRANCH  25  28
ENDBRANCH  24  25
ENDBRANCH  23  24
ENDBRANCH  22  23
ENDBRANCH  20  22
ENDBRANCH   1  20
TORSDOF 7
ENDMDL
MODEL 4
REMARK VINA RESULT:      -6.6      1.983      3.729
REMARK  Name = 
REMARK  10 active torsions:
REMARK  status: ('A' for Active; 'I' for Inactive)
REMARK    1  A    between atoms: C_1  and  C_2
REMARK    2  A    between atoms: C_2  and  N_3
REMARK    3  A    between atoms: N_3  and  C_4
REMARK    4  A    between atoms: N_3  and  C_6
REMARK    5  A    between atoms: C_4  and  C_5
REMARK    6  A    between atoms: C_6  and  C_7
REMARK    7  A    between atoms: C_7  and  C_8
REMARK    8  A    between atoms: C_8  and  N_9
REMARK    9  A    between atoms: N_9  and  C_10
REMARK   10  A    between atoms: C_15  and  C_16
REMARK                            x       y       z     vdW  Elec       q    Type
REMARK                         _______ _______ _______ _____ _____    ______ ____
ROOT
ATOM      1  C   UNL     1       4.030   3.635  17.215  0.00  0.00    +0.000 A 
ATOM      2  N   UNL     1       4.308   2.334  17.423  0.00  0.00    +0.000 NA
ATOM      3  C   UNL     1       4.008   1.824  18.631  0.00  0.00    +0.000 A 
ATOM      4  C   UNL     1       3.415   2.542  19.657  0.00  0.00    +0.000 A 
ATOM      5  C   UNL     1       3.102   3.903  19.468  0.00  0.00    +0.000 A 
ATOM      6  C   UNL     1       2.444   4.706  20.463  0.00  0.00    +0.000 A 
ATOM      7  C   UNL     1       1.989   4.177  21.796  0.00  0.00    +0.000 C 
ATOM      8  C   UNL     1       2.184   6.055  20.126  0.00  0.00    +0.000 A 
ATOM      9  N   UNL     1       1.553   7.051  20.845  0.00  0.00    +0.000 N 
ATOM     10  C   UNL     1       1.497   8.225  20.141  0.00  0.00    +0.000 A 
ATOM     11  C   UNL     1       0.958   9.467  20.462  0.00  0.00    +0.000 A 
ATOM     12  C   UNL     1       1.086  10.436  19.478  0.00  0.00    +0.000 A 
ATOM     13  N   UNL     1       1.674  10.253  18.274  0.00  0.00    +0.000 NA
ATOM     14  C   UNL     1       2.187   9.032  17.982  0.00  0.00    +0.000 A 
ATOM     15  C   UNL     1       2.120   7.983  18.910  0.00  0.00    +0.000 A 
ATOM     16  C   UNL     1       2.539   6.624  18.912  0.00  0.00    +0.000 A 
ATOM     17  C   UNL     1       3.183   5.821  17.959  0.00  0.00    +0.000 A 
ATOM     18  C   UNL     1       3.454   4.464  18.221  0.00  0.00    +0.000 A 
ATOM     19  H   UNL     1       1.171   6.927  21.772  0.00  0.00    +0.000 HD
ENDROOT
BRANCH   1  20
ATOM     20  N   UNL     1       4.317   4.205  15.968  0.00  0.00    +0.000 N 
ATOM     21  H   UNL     1       3.995   5.168  15.949  0.00  0.00    +0.000 HD
BRANCH  20  22
ATOM     22  C   UNL     1       5.659   3.994  15.448  0.00  0.00    +0.000 C 
BRANCH  22  23
ATOM     23  C   UNL     1       5.656   4.468  13.991  0.00  0.00    +0.000 C 
BRANCH  23  24
ATOM     24  C   UNL     1       6.656   3.716  13.095  0.00  0.00    +0.000 C 
BRANCH  24  25
ATOM     25  N   UNL     1       6.131   3.341  11.765  0.00  0.00    +0.000 NA
BRANCH  25  27
ATOM     26  C   UNL     1       6.296   0.877  11.097  0.00  0.00    +0.000 C 
ATOM     27  C   UNL     1       6.948   2.245  11.202  0.00  0.00    +0.000 C 
ENDBRANCH  25  27
BRANCH  25  28
ATOM     28  C   UNL     1       4.687   3.032  11.817  0.00  0.00    +0.000 C 
ATOM     29  C   UNL     1       3.832   3.571  10.674  0.00  0.00    +0.000 C 
ENDBRANCH  25  28
ENDBRANCH  24  25
ENDBRANCH  23  24
ENDBRANCH  22  23
ENDBRANCH  20  22
ENDBRANCH   1  20
TORSDOF 7
ENDMDL
MODEL 5
REMARK VINA RESULT:      -6.6      2.898      7.701
REMARK  Name = 
REMARK  10 active torsions:
REMARK  status: ('A' for Active; 'I' for Inactive)
REMARK    1  A    between atoms: C_1  and  C_2
REMARK    2  A    between atoms: C_2  and  N_3
REMARK    3  A    between atoms: N_3  and  C_4
REMARK    4  A    between atoms: N_3  and  C_6
REMARK    5  A    between atoms: C_4  and  C_5
REMARK    6  A    between atoms: C_6  and  C_7
REMARK    7  A    between atoms: C_7  and  C_8
REMARK    8  A    between atoms: C_8  and  N_9
REMARK    9  A    between atoms: N_9  and  C_10
REMARK   10  A    between atoms: C_15  and  C_16
REMARK                            x       y       z     vdW  Elec       q    Type
REMARK                         _______ _______ _______ _____ _____    ______ ____
ROOT
ATOM      1  C   UNL     1       1.330   9.119  19.508  0.00  0.00    +0.000 A 
ATOM      2  N   UNL     1       0.531   9.323  20.572  0.00  0.00    +0.000 NA
ATOM      3  C   UNL     1       0.376   8.302  21.433  0.00  0.00    +0.000 A 
ATOM      4  C   UNL     1       1.001   7.072  21.306  0.00  0.00    +0.000 A 
ATOM      5  C   UNL     1       1.851   6.829  20.208  0.00  0.00    +0.000 A 
ATOM      6  C   UNL     1       2.574   5.599  20.029  0.00  0.00    +0.000 A 
ATOM      7  C   UNL     1       2.528   4.453  21.002  0.00  0.00    +0.000 C 
ATOM      8  C   UNL     1       3.400   5.504  18.884  0.00  0.00    +0.000 A 
ATOM      9  N   UNL     1       4.225   4.482  18.458  0.00  0.00    +0.000 N 
ATOM     10  C   UNL     1       4.867   4.804  17.291  0.00  0.00    +0.000 A 
ATOM     11  C   UNL     1       5.780   4.094  16.516  0.00  0.00    +0.000 A 
ATOM     12  C   UNL     1       6.228   4.756  15.382  0.00  0.00    +0.000 A 
ATOM     13  N   UNL     1       5.850   5.998  15.003  0.00  0.00    +0.000 NA
ATOM     14  C   UNL     1       4.964   6.671  15.777  0.00  0.00    +0.000 A 
ATOM     15  C   UNL     1       4.440   6.091  16.941  0.00  0.00    +0.000 A 
ATOM     16  C   UNL     1       3.530   6.519  17.946  0.00  0.00    +0.000 A 
ATOM     17  C   UNL     1       2.812   7.708  18.143  0.00  0.00    +0.000 A 
ATOM     18  C   UNL     1       1.987   7.876  19.272  0.00  0.00    +0.000 A 
ATOM     19  H   UNL     1       4.348   3.609  18.951  0.00  0.00    +0.000 HD
ENDROOT
BRANCH   1  20
ATOM     20  N   UNL     1       1.528  10.160  18.590  0.00  0.00    +0.000 N 
ATOM     21  H   UNL     1       1.844   9.780  17.704  0.00  0.00    +0.000 HD
BRANCH  20  22
ATOM     22  C   UNL     1       0.469  11.153  18.493  0.00  0.00    +0.000 C 
BRANCH  22  23
ATOM     23  C   UNL     1      -0.758  10.445  17.910  0.00  0.00    +0.000 C 
BRANCH  23  24
ATOM     24  C   UNL     1      -2.065  11.239  18.075  0.00  0.00    +0.000 C 
BRANCH  24  25
ATOM     25  N   UNL     1      -2.967  11.196  16.904  0.00  0.00    +0.000 NA
BRANCH  25  27
ATOM     26  C   UNL     1      -2.970  10.114  14.586  0.00  0.00    +0.000 C 
ATOM     27  C   UNL     1      -2.628  10.028  16.064  0.00  0.00    +0.000 C 
ENDBRANCH  25  27
BRANCH  25  28
ATOM     28  C   UNL     1      -4.387  11.239  17.309  0.00  0.00    +0.000 C 
ATOM     29  C   UNL     1      -4.700  11.939  18.627  0.00  0.00    +0.000 C 
ENDBRANCH  25  28
ENDBRANCH  24  25
ENDBRANCH  23  24
ENDBRANCH  22  23
ENDBRANCH  20  22
ENDBRANCH   1  20
TORSDOF 7
ENDMDL
MODEL 6
REMARK VINA RESULT:      -6.6      3.281      8.801
REMARK  Name = 
REMARK  10 active torsions:
REMARK  status: ('A' for Active; 'I' for Inactive)
REMARK    1  A    between atoms: C_1  and  C_2
REMARK    2  A    between atoms: C_2  and  N_3
REMARK    3  A    between atoms: N_3  and  C_4
REMARK    4  A    between atoms: N_3  and  C_6
REMARK    5  A    between atoms: C_4  and  C_5
REMARK    6  A    between atoms: C_6  and  C_7
REMARK    7  A    between atoms: C_7  and  C_8
REMARK    8  A    between atoms: C_8  and  N_9
REMARK    9  A    between atoms: N_9  and  C_10
REMARK   10  A    between atoms: C_15  and  C_16
REMARK                            x       y       z     vdW  Elec       q    Type
REMARK                         _______ _______ _______ _____ _____    ______ ____
ROOT
ATOM      1  C   UNL     1       0.576   9.217  20.295  0.00  0.00    +0.000 A 
ATOM      2  N   UNL     1       0.453  10.391  19.646  0.00  0.00    +0.000 NA
ATOM      3  C   UNL     1       1.197  10.565  18.540  0.00  0.00    +0.000 A 
ATOM      4  C   UNL     1       2.058   9.612  18.019  0.00  0.00    +0.000 A 
ATOM      5  C   UNL     1       2.202   8.370  18.670  0.00  0.00    +0.000 A 
ATOM      6  C   UNL     1       3.037   7.311  18.169  0.00  0.00    +0.000 A 
ATOM      7  C   UNL     1       3.819   7.399  16.887  0.00  0.00    +0.000 C 
ATOM      8  C   UNL     1       3.073   6.115  18.924  0.00  0.00    +0.000 A 
ATOM      9  N   UNL     1       3.745   4.931  18.692  0.00  0.00    +0.000 N 
ATOM     10  C   UNL     1       3.495   4.008  19.674  0.00  0.00    +0.000 A 
ATOM     11  C   UNL     1       3.944   2.702  19.845  0.00  0.00    +0.000 A 
ATOM     12  C   UNL     1       3.466   2.060  20.978  0.00  0.00    +0.000 A 
ATOM     13  N   UNL     1       2.622   2.602  21.885  0.00  0.00    +0.000 NA
ATOM     14  C   UNL     1       2.195   3.875  21.693  0.00  0.00    +0.000 A 
ATOM     15  C   UNL     1       2.624   4.619  20.585  0.00  0.00    +0.000 A 
ATOM     16  C   UNL     1       2.364   5.931  20.102  0.00  0.00    +0.000 A 
ATOM     17  C   UNL     1       1.560   6.979  20.571  0.00  0.00    +0.000 A 
ATOM     18  C   UNL     1       1.462   8.191  19.858  0.00  0.00    +0.000 A 
ATOM     19  H   UNL     1       4.339   4.763  17.893  0.00  0.00    +0.000 HD
ENDROOT
BRANCH   1  20
ATOM     20  N   UNL     1      -0.189   8.988  21.447  0.00  0.00    +0.000 N 
ATOM     21  H   UNL     1      -0.349   7.993  21.561  0.00  0.00    +0.000 HD
BRANCH  20  22
ATOM     22  C   UNL     1       0.227   9.687  22.655  0.00  0.00    +0.000 C 
BRANCH  22  23
ATOM     23  C   UNL     1      -1.009  10.405  23.206  0.00  0.00    +0.000 C 
BRANCH  23  24
ATOM     24  C   UNL     1      -1.282  11.764  22.538  0.00  0.00    +0.000 C 
BRANCH  24  25
ATOM     25  N   UNL     1      -2.706  12.162  22.509  0.00  0.00    +0.000 NA
BRANCH  25  27
ATOM     26  C   UNL     1      -4.222  12.489  24.542  0.00  0.00    +0.000 C 
ATOM     27  C   UNL     1      -3.025  12.941  23.722  0.00  0.00    +0.000 C 
ENDBRANCH  25  27
BRANCH  25  28
ATOM     28  C   UNL     1      -3.049  12.860  21.252  0.00  0.00    +0.000 C 
ATOM     29  C   UNL     1      -4.504  12.774  20.799  0.00  0.00    +0.000 C 
ENDBRANCH  25  28
ENDBRANCH  24  25
ENDBRANCH  23  24
ENDBRANCH  22  23
ENDBRANCH  20  22
ENDBRANCH   1  20
TORSDOF 7
ENDMDL
MODEL 7
REMARK VINA RESULT:      -6.5      2.647      7.537
REMARK  Name = 
REMARK  10 active torsions:
REMARK  status: ('A' for Active; 'I' for Inactive)
REMARK    1  A    between atoms: C_1  and  C_2
REMARK    2  A    between atoms: C_2  and  N_3
REMARK    3  A    between atoms: N_3  and  C_4
REMARK    4  A    between atoms: N_3  and  C_6
REMARK    5  A    between atoms: C_4  and  C_5
REMARK    6  A    between atoms: C_6  and  C_7
REMARK    7  A    between atoms: C_7  and  C_8
REMARK    8  A    between atoms: C_8  and  N_9
REMARK    9  A    between atoms: N_9  and  C_10
REMARK   10  A    between atoms: C_15  and  C_16
REMARK                            x       y       z     vdW  Elec       q    Type
REMARK                         _______ _______ _______ _____ _____    ______ ____
ROOT
ATOM      1  C   UNL     1       1.894   8.238  19.368  0.00  0.00    +0.000 A 
ATOM      2  N   UNL     1       1.130   8.334  20.473  0.00  0.00    +0.000 NA
ATOM      3  C   UNL     1       0.991   7.228  21.225  0.00  0.00    +0.000 A 
ATOM      4  C   UNL     1       1.598   6.013  20.948  0.00  0.00    +0.000 A 
ATOM      5  C   UNL     1       2.411   5.882  19.805  0.00  0.00    +0.000 A 
ATOM      6  C   UNL     1       3.114   4.672  19.473  0.00  0.00    +0.000 A 
ATOM      7  C   UNL     1       3.085   3.430  20.320  0.00  0.00    +0.000 C 
ATOM      8  C   UNL     1       3.903   4.694  18.298  0.00  0.00    +0.000 A 
ATOM      9  N   UNL     1       4.703   3.716  17.741  0.00  0.00    +0.000 N 
ATOM     10  C   UNL     1       5.313   4.155  16.594  0.00  0.00    +0.000 A 
ATOM     11  C   UNL     1       6.193   3.525  15.720  0.00  0.00    +0.000 A 
ATOM     12  C   UNL     1       6.613   4.300  14.648  0.00  0.00    +0.000 A 
ATOM     13  N   UNL     1       6.238   5.578  14.415  0.00  0.00    +0.000 NA
ATOM     14  C   UNL     1       5.383   6.172  15.284  0.00  0.00    +0.000 A 
ATOM     15  C   UNL     1       4.889   5.475  16.397  0.00  0.00    +0.000 A 
ATOM     16  C   UNL     1       4.015   5.801  17.470  0.00  0.00    +0.000 A 
ATOM     17  C   UNL     1       3.317   6.968  17.814  0.00  0.00    +0.000 A 
ATOM     18  C   UNL     1       2.529   7.022  18.981  0.00  0.00    +0.000 A 
ATOM     19  H   UNL     1       4.831   2.795  18.134  0.00  0.00    +0.000 HD
ENDROOT
BRANCH   1  20
ATOM     20  N   UNL     1       2.075   9.369  18.560  0.00  0.00    +0.000 N 
ATOM     21  H   UNL     1       2.244   9.081  17.602  0.00  0.00    +0.000 HD
BRANCH  20  22
ATOM     22  C   UNL     1       1.109  10.445  18.720  0.00  0.00    +0.000 C 
BRANCH  22  23
ATOM     23  C   UNL     1      -0.146  10.041  17.941  0.00  0.00    +0.000 C 
BRANCH  23  24
ATOM     24  C   UNL     1      -1.331  11.004  18.137  0.00  0.00    +0.000 C 
BRANCH  24  25
ATOM     25  N   UNL     1      -2.660  10.406  17.888  0.00  0.00    +0.000 NA
BRANCH  25  27
ATOM     26  C   UNL     1      -5.146  10.943  18.155  0.00  0.00    +0.000 C 
ATOM     27  C   UNL     1      -3.707  11.427  18.098  0.00  0.00    +0.000 C 
ENDBRANCH  25  27
BRANCH  25  28
ATOM     28  C   UNL     1      -2.725   9.759  16.561  0.00  0.00    +0.000 C 
ATOM     29  C   UNL     1      -2.824  10.686  15.353  0.00  0.00    +0.000 C 
ENDBRANCH  25  28
ENDBRANCH  24  25
ENDBRANCH  23  24
ENDBRANCH  22  23
ENDBRANCH  20  22
ENDBRANCH   1  20
TORSDOF 7
ENDMDL
MODEL 8
REMARK VINA RESULT:      -6.5      2.939      7.454
REMARK  Name = 
REMARK  10 active torsions:
REMARK  status: ('A' for Active; 'I' for Inactive)
REMARK    1  A    between atoms: C_1  and  C_2
REMARK    2  A    between atoms: C_2  and  N_3
REMARK    3  A    between atoms: N_3  and  C_4
REMARK    4  A    between atoms: N_3  and  C_6
REMARK    5  A    between atoms: C_4  and  C_5
REMARK    6  A    between atoms: C_6  and  C_7
REMARK    7  A    between atoms: C_7  and  C_8
REMARK    8  A    between atoms: C_8  and  N_9
REMARK    9  A    between atoms: N_9  and  C_10
REMARK   10  A    between atoms: C_15  and  C_16
REMARK                            x       y       z     vdW  Elec       q    Type
REMARK                         _______ _______ _______ _____ _____    ______ ____
ROOT
ATOM      1  C   UNL     1       1.466   9.522  19.141  0.00  0.00    +0.000 A 
ATOM      2  N   UNL     1       0.643   9.844  20.156  0.00  0.00    +0.000 NA
ATOM      3  C   UNL     1       0.393   8.894  21.074  0.00  0.00    +0.000 A 
ATOM      4  C   UNL     1       0.945   7.623  21.052  0.00  0.00    +0.000 A 
ATOM      5  C   UNL     1       1.818   7.257  20.008  0.00  0.00    +0.000 A 
ATOM      6  C   UNL     1       2.469   5.976  19.938  0.00  0.00    +0.000 A 
ATOM      7  C   UNL     1       2.316   4.903  20.981  0.00  0.00    +0.000 C 
ATOM      8  C   UNL     1       3.328   5.756  18.835  0.00  0.00    +0.000 A 
ATOM      9  N   UNL     1       4.103   4.660  18.510  0.00  0.00    +0.000 N 
ATOM     10  C   UNL     1       4.806   4.864  17.351  0.00  0.00    +0.000 A 
ATOM     11  C   UNL     1       5.700   4.051  16.661  0.00  0.00    +0.000 A 
ATOM     12  C   UNL     1       6.229   4.608  15.506  0.00  0.00    +0.000 A 
ATOM     13  N   UNL     1       5.944   5.841  15.033  0.00  0.00    +0.000 NA
ATOM     14  C   UNL     1       5.073   6.617  15.725  0.00  0.00    +0.000 A 
ATOM     15  C   UNL     1       4.472   6.148  16.903  0.00  0.00    +0.000 A 
ATOM     16  C   UNL     1       3.554   6.696  17.841  0.00  0.00    +0.000 A 
ATOM     17  C   UNL     1       2.906   7.936  17.931  0.00  0.00    +0.000 A 
ATOM     18  C   UNL     1       2.052   8.229  19.012  0.00  0.00    +0.000 A 
ATOM     19  H   UNL     1       4.153   3.817  19.063  0.00  0.00    +0.000 HD
ENDROOT
BRANCH   1  20
ATOM     20  N   UNL     1       1.762  10.485  18.167  0.00  0.00    +0.000 N 
ATOM     21  H   UNL     1       1.440  10.165  17.259  0.00  0.00    +0.000 HD
BRANCH  20  22
ATOM     22  C   UNL     1       1.423  11.863  18.489  0.00  0.00    +0.000 C 
BRANCH  22  23
ATOM     23  C   UNL     1       2.644  12.719  18.139  0.00  0.00    +0.000 C 
BRANCH  23  24
ATOM     24  C   UNL     1       2.822  13.945  19.052  0.00  0.00    +0.000 C 
BRANCH  24  25
ATOM     25  N   UNL     1       2.100  15.156  18.608  0.00  0.00    +0.000 NA
BRANCH  25  27
ATOM     26  C   UNL     1      -0.374  15.066  19.251  0.00  0.00    +0.000 C 
ATOM     27  C   UNL     1       1.045  15.489  19.588  0.00  0.00    +0.000 C 
ENDBRANCH  25  27
BRANCH  25  28
ATOM     28  C   UNL     1       3.028  16.274  18.338  0.00  0.00    +0.000 C 
ATOM     29  C   UNL     1       2.889  16.965  16.985  0.00  0.00    +0.000 C 
ENDBRANCH  25  28
ENDBRANCH  24  25
ENDBRANCH  23  24
ENDBRANCH  22  23
ENDBRANCH  20  22
ENDBRANCH   1  20
TORSDOF 7
ENDMDL
MODEL 9
REMARK VINA RESULT:      -6.5      2.238      7.414
REMARK  Name = 
REMARK  10 active torsions:
REMARK  status: ('A' for Active; 'I' for Inactive)
REMARK    1  A    between atoms: C_1  and  C_2
REMARK    2  A    between atoms: C_2  and  N_3
REMARK    3  A    between atoms: N_3  and  C_4
REMARK    4  A    between atoms: N_3  and  C_6
REMARK    5  A    between atoms: C_4  and  C_5
REMARK    6  A    between atoms: C_6  and  C_7
REMARK    7  A    between atoms: C_7  and  C_8
REMARK    8  A    between atoms: C_8  and  N_9
REMARK    9  A    between atoms: N_9  and  C_10
REMARK   10  A    between atoms: C_15  and  C_16
REMARK                            x       y       z     vdW  Elec       q    Type
REMARK                         _______ _______ _______ _____ _____    ______ ____
ROOT
ATOM      1  C   UNL     1       1.232   9.538  19.119  0.00  0.00    +0.000 A 
ATOM      2  N   UNL     1       0.410   9.835  20.144  0.00  0.00    +0.000 NA
ATOM      3  C   UNL     1       0.250   8.901  21.098  0.00  0.00    +0.000 A 
ATOM      4  C   UNL     1       0.889   7.672  21.102  0.00  0.00    +0.000 A 
ATOM      5  C   UNL     1       1.762   7.333  20.049  0.00  0.00    +0.000 A 
ATOM      6  C   UNL     1       2.499   6.099  20.003  0.00  0.00    +0.000 A 
ATOM      7  C   UNL     1       2.446   5.053  21.083  0.00  0.00    +0.000 C 
ATOM      8  C   UNL     1       3.347   5.903  18.887  0.00  0.00    +0.000 A 
ATOM      9  N   UNL     1       4.190   4.854  18.578  0.00  0.00    +0.000 N 
ATOM     10  C   UNL     1       4.850   5.067  17.396  0.00  0.00    +0.000 A 
ATOM     11  C   UNL     1       5.784   4.296  16.710  0.00  0.00    +0.000 A 
ATOM     12  C   UNL     1       6.246   4.849  15.525  0.00  0.00    +0.000 A 
ATOM     13  N   UNL     1       5.864   6.043  15.020  0.00  0.00    +0.000 NA
ATOM     14  C   UNL     1       4.957   6.779  15.709  0.00  0.00    +0.000 A 
ATOM     15  C   UNL     1       4.417   6.309  16.915  0.00  0.00    +0.000 A 
ATOM     16  C   UNL     1       3.484   6.822  17.858  0.00  0.00    +0.000 A 
ATOM     17  C   UNL     1       2.752   8.017  17.924  0.00  0.00    +0.000 A 
ATOM     18  C   UNL     1       1.904   8.285  19.017  0.00  0.00    +0.000 A 
ATOM     19  H   UNL     1       4.312   4.035  19.156  0.00  0.00    +0.000 HD
ENDROOT
BRANCH   1  20
ATOM     20  N   UNL     1       1.436  10.486  18.108  0.00  0.00    +0.000 N 
ATOM     21  H   UNL     1       0.555  10.695  17.650  0.00  0.00    +0.000 HD
BRANCH  20  22
ATOM     22  C   UNL     1       2.239  11.649  18.457  0.00  0.00    +0.000 C 
BRANCH  22  23
ATOM     23  C   UNL     1       1.284  12.698  19.033  0.00  0.00    +0.000 C 
BRANCH  23  24
ATOM     24  C   UNL     1      -0.004  12.879  18.210  0.00  0.00    +0.000 C 
BRANCH  24  25
ATOM     25  N   UNL     1      -1.167  12.112  18.706  0.00  0.00    +0.000 NA
BRANCH  25  27
ATOM     26  C   UNL     1      -1.992  12.398  21.110  0.00  0.00    +0.000 C 
ATOM     27  C   UNL     1      -1.913  12.926  19.688  0.00  0.00    +0.000 C 
ENDBRANCH  25  27
BRANCH  25  28
ATOM     28  C   UNL     1      -2.004  11.615  17.595  0.00  0.00    +0.000 C 
ATOM     29  C   UNL     1      -2.317  10.122  17.591  0.00  0.00    +0.000 C 
ENDBRANCH  25  28
ENDBRANCH  24  25
ENDBRANCH  23  24
ENDBRANCH  22  23
ENDBRANCH  20  22
ENDBRANCH   1  20
TORSDOF 7
ENDMDL
