MODEL 1
REMARK VINA RESULT:      -8.3      0.000      0.000
REMARK  Name = 
REMARK  4 active torsions:
REMARK  status: ('A' for Active; 'I' for Inactive)
REMARK    1  A    between atoms: S_2  and  C_4
REMARK    2  A    between atoms: S_2  and  N_10
REMARK    3  A    between atoms: N_17  and  C_18
REMARK    4  A    between atoms: C_18  and  C_19
REMARK                            x       y       z     vdW  Elec       q    Type
REMARK                         _______ _______ _______ _____ _____    ______ ____
ROOT
ATOM      1  N   UNL     1       5.811   4.347  16.861  0.00  0.00    +0.000 NA
ATOM      2  C   UNL     1       5.953   4.488  18.325  0.00  0.00    +0.000 C 
ATOM      3  C   UNL     1       4.808   5.289  18.923  0.00  0.00    +0.000 C 
ATOM      4  C   UNL     1       3.411   4.701  18.593  0.00  0.00    +0.000 C 
ATOM      5  C   UNL     1       3.132   3.405  19.390  0.00  0.00    +0.000 C 
ATOM      6  C   UNL     1       3.042   3.673  20.891  0.00  0.00    +0.000 C 
ATOM      7  C   UNL     1       2.061   4.803  21.205  0.00  0.00    +0.000 C 
ATOM      8  N   UNL     1       2.310   6.030  20.425  0.00  0.00    +0.000 NA
ATOM      9  C   UNL     1       2.315   5.736  18.979  0.00  0.00    +0.000 C 
ATOM     10  C   UNL     1       3.318   4.419  17.069  0.00  0.00    +0.000 C 
ATOM     11  C   UNL     1       4.532   3.697  16.484  0.00  0.00    +0.000 C 
ENDROOT
BRANCH   1  13
ATOM     12  O   UNL     1       7.582   6.127  16.372  0.00  0.00    +0.000 OA
ATOM     13  S   UNL     1       6.314   5.640  15.876  0.00  0.00    +0.000 S 
ATOM     14  O   UNL     1       5.186   6.542  15.707  0.00  0.00    +0.000 OA
BRANCH  13  15
ATOM     15  C   UNL     1       6.592   4.879  14.290  0.00  0.00    +0.000 A 
ATOM     16  C   UNL     1       5.703   3.898  13.841  0.00  0.00    +0.000 A 
ATOM     17  C   UNL     1       5.875   3.341  12.574  0.00  0.00    +0.000 A 
ATOM     18  C   UNL     1       6.928   3.765  11.761  0.00  0.00    +0.000 A 
ATOM     19  C   UNL     1       7.826   4.732  12.221  0.00  0.00    +0.000 A 
ATOM     20  C   UNL     1       7.664   5.289  13.490  0.00  0.00    +0.000 A 
ENDBRANCH  13  15
ENDBRANCH   1  13
BRANCH   8  21
ATOM     21  C   UNL     1       1.283   7.034  20.781  0.00  0.00    +0.000 C 
BRANCH  21  22
ATOM     22  C   UNL     1       1.352   8.336  20.013  0.00  0.00    +0.000 A 
ATOM     23  C   UNL     1       1.963   8.382  18.753  0.00  0.00    +0.000 A 
ATOM     24  C   UNL     1       1.993   9.588  18.068  0.00  0.00    +0.000 A 
ATOM     25  N   UNL     1       1.461  10.734  18.540  0.00  0.00    +0.000 NA
ATOM     26  C   UNL     1       0.878  10.670  19.759  0.00  0.00    +0.000 A 
ATOM     27  C   UNL     1       0.796   9.514  20.520  0.00  0.00    +0.000 A 
ENDBRANCH  21  22
ENDBRANCH   8  21
TORSDOF 4
ENDMDL
MODEL 2
REMARK VINA RESULT:      -8.2      0.073      1.302
REMARK  Name = 
REMARK  4 active torsions:
REMARK  status: ('A' for Active; 'I' for Inactive)
REMARK    1  A    between atoms: S_2  and  C_4
REMARK    2  A    between atoms: S_2  and  N_10
REMARK    3  A    between atoms: N_17  and  C_18
REMARK    4  A    between atoms: C_18  and  C_19
REMARK                            x       y       z     vdW  Elec       q    Type
REMARK                         _______ _______ _______ _____ _____    ______ ____
ROOT
ATOM      1  N   UNL     1       5.832   4.337  16.861  0.00  0.00    +0.000 NA
ATOM      2  C   UNL     1       5.963   4.479  18.326  0.00  0.00    +0.000 C 
ATOM      3  C   UNL     1       4.816   5.284  18.914  0.00  0.00    +0.000 C 
ATOM      4  C   UNL     1       3.420   4.701  18.574  0.00  0.00    +0.000 C 
ATOM      5  C   UNL     1       3.130   3.406  19.371  0.00  0.00    +0.000 C 
ATOM      6  C   UNL     1       3.030   3.676  20.870  0.00  0.00    +0.000 C 
ATOM      7  C   UNL     1       2.051   4.810  21.175  0.00  0.00    +0.000 C 
ATOM      8  N   UNL     1       2.309   6.035  20.396  0.00  0.00    +0.000 NA
ATOM      9  C   UNL     1       2.325   5.740  18.951  0.00  0.00    +0.000 C 
ATOM     10  C   UNL     1       3.338   4.418  17.050  0.00  0.00    +0.000 C 
ATOM     11  C   UNL     1       4.554   3.691  16.474  0.00  0.00    +0.000 C 
ENDROOT
BRANCH   1  13
ATOM     12  O   UNL     1       7.663   6.039  16.315  0.00  0.00    +0.000 OA
ATOM     13  S   UNL     1       6.346   5.628  15.879  0.00  0.00    +0.000 S 
ATOM     14  O   UNL     1       5.259   6.590  15.792  0.00  0.00    +0.000 OA
BRANCH  13  15
ATOM     15  C   UNL     1       6.498   4.894  14.263  0.00  0.00    +0.000 A 
ATOM     16  C   UNL     1       7.573   5.260  13.448  0.00  0.00    +0.000 A 
ATOM     17  C   UNL     1       7.737   4.644  12.207  0.00  0.00    +0.000 A 
ATOM     18  C   UNL     1       6.832   3.668  11.786  0.00  0.00    +0.000 A 
ATOM     19  C   UNL     1       5.747   3.320  12.594  0.00  0.00    +0.000 A 
ATOM     20  C   UNL     1       5.573   3.936  13.835  0.00  0.00    +0.000 A 
ENDBRANCH  13  15
ENDBRANCH   1  13
BRANCH   8  21
ATOM     21  C   UNL     1       1.283   7.043  20.744  0.00  0.00    +0.000 C 
BRANCH  21  22
ATOM     22  C   UNL     1       1.347   8.335  19.959  0.00  0.00    +0.000 A 
ATOM     23  C   UNL     1       0.807   9.513  20.490  0.00  0.00    +0.000 A 
ATOM     24  C   UNL     1       0.900  10.684  19.751  0.00  0.00    +0.000 A 
ATOM     25  N   UNL     1       1.488  10.764  18.540  0.00  0.00    +0.000 NA
ATOM     26  C   UNL     1       2.000   9.615  18.043  0.00  0.00    +0.000 A 
ATOM     27  C   UNL     1       1.959   8.397  18.703  0.00  0.00    +0.000 A 
ENDBRANCH  21  22
ENDBRANCH   8  21
TORSDOF 4
ENDMDL
MODEL 3
REMARK VINA RESULT:      -7.6      4.685      8.486
REMARK  Name = 
REMARK  4 active torsions:
REMARK  status: ('A' for Active; 'I' for Inactive)
REMARK    1  A    between atoms: S_2  and  C_4
REMARK    2  A    between atoms: S_2  and  N_10
REMARK    3  A    between atoms: N_17  and  C_18
REMARK    4  A    between atoms: C_18  and  C_19
REMARK                            x       y       z     vdW  Elec       q    Type
REMARK                         _______ _______ _______ _____ _____    ______ ____
ROOT
ATOM      1  N   UNL     1       0.732  10.040  19.963  0.00  0.00    +0.000 NA
ATOM      2  C   UNL     1       1.367  11.112  20.758  0.00  0.00    +0.000 C 
ATOM      3  C   UNL     1       0.847  12.484  20.360  0.00  0.00    +0.000 C 
ATOM      4  C   UNL     1      -0.696  12.608  20.461  0.00  0.00    +0.000 C 
ATOM      5  C   UNL     1      -1.170  12.680  21.932  0.00  0.00    +0.000 C 
ATOM      6  C   UNL     1      -0.680  13.950  22.622  0.00  0.00    +0.000 C 
ATOM      7  C   UNL     1      -1.023  15.201  21.811  0.00  0.00    +0.000 C 
ATOM      8  N   UNL     1      -0.596  15.122  20.402  0.00  0.00    +0.000 NA
ATOM      9  C   UNL     1      -1.152  13.918  19.756  0.00  0.00    +0.000 C 
ATOM     10  C   UNL     1      -1.357  11.399  19.746  0.00  0.00    +0.000 C 
ATOM     11  C   UNL     1      -0.745  10.043  20.098  0.00  0.00    +0.000 C 
ENDROOT
BRANCH   1  13
ATOM     12  O   UNL     1       2.284  10.768  18.063  0.00  0.00    +0.000 OA
ATOM     13  S   UNL     1       1.342   9.725  18.406  0.00  0.00    +0.000 S 
ATOM     14  O   UNL     1       0.217   9.424  17.535  0.00  0.00    +0.000 OA
BRANCH  13  15
ATOM     15  C   UNL     1       2.245   8.203  18.607  0.00  0.00    +0.000 A 
ATOM     16  C   UNL     1       2.023   7.424  19.746  0.00  0.00    +0.000 A 
ATOM     17  C   UNL     1       2.677   6.200  19.883  0.00  0.00    +0.000 A 
ATOM     18  C   UNL     1       3.547   5.758  18.884  0.00  0.00    +0.000 A 
ATOM     19  C   UNL     1       3.783   6.548  17.756  0.00  0.00    +0.000 A 
ATOM     20  C   UNL     1       3.136   7.777  17.615  0.00  0.00    +0.000 A 
ENDBRANCH  13  15
ENDBRANCH   1  13
BRANCH   8  21
ATOM     21  C   UNL     1      -1.013  16.363  19.711  0.00  0.00    +0.000 C 
BRANCH  21  22
ATOM     22  C   UNL     1      -0.004  16.937  18.740  0.00  0.00    +0.000 A 
ATOM     23  C   UNL     1       1.329  16.507  18.768  0.00  0.00    +0.000 A 
ATOM     24  C   UNL     1       2.223  17.040  17.852  0.00  0.00    +0.000 A 
ATOM     25  N   UNL     1       1.888  17.956  16.920  0.00  0.00    +0.000 NA
ATOM     26  C   UNL     1       0.598  18.361  16.911  0.00  0.00    +0.000 A 
ATOM     27  C   UNL     1      -0.370  17.887  17.782  0.00  0.00    +0.000 A 
ENDBRANCH  21  22
ENDBRANCH   8  21
TORSDOF 4
ENDMDL
MODEL 4
REMARK VINA RESULT:      -7.6      7.638     10.965
REMARK  Name = 
REMARK  4 active torsions:
REMARK  status: ('A' for Active; 'I' for Inactive)
REMARK    1  A    between atoms: S_2  and  C_4
REMARK    2  A    between atoms: S_2  and  N_10
REMARK    3  A    between atoms: N_17  and  C_18
REMARK    4  A    between atoms: C_18  and  C_19
REMARK                            x       y       z     vdW  Elec       q    Type
REMARK                         _______ _______ _______ _____ _____    ______ ____
ROOT
ATOM      1  N   UNL     1       0.166  10.833  19.620  0.00  0.00    +0.000 NA
ATOM      2  C   UNL     1      -0.546   9.845  18.782  0.00  0.00    +0.000 C 
ATOM      3  C   UNL     1      -2.036  10.138  18.717  0.00  0.00    +0.000 C 
ATOM      4  C   UNL     1      -2.358  11.570  18.216  0.00  0.00    +0.000 C 
ATOM      5  C   UNL     1      -2.102  11.717  16.697  0.00  0.00    +0.000 C 
ATOM      6  C   UNL     1      -3.052  10.848  15.877  0.00  0.00    +0.000 C 
ATOM      7  C   UNL     1      -4.512  11.078  16.273  0.00  0.00    +0.000 C 
ATOM      8  N   UNL     1      -4.751  10.965  17.724  0.00  0.00    +0.000 NA
ATOM      9  C   UNL     1      -3.863  11.875  18.471  0.00  0.00    +0.000 C 
ATOM     10  C   UNL     1      -1.499  12.596  19.004  0.00  0.00    +0.000 C 
ATOM     11  C   UNL     1      -0.023  12.220  19.130  0.00  0.00    +0.000 C 
ENDROOT
BRANCH   1  13
ATOM     12  O   UNL     1       1.493  10.722  21.805  0.00  0.00    +0.000 OA
ATOM     13  S   UNL     1       0.138  10.623  21.308  0.00  0.00    +0.000 S 
ATOM     14  O   UNL     1      -0.678   9.456  21.604  0.00  0.00    +0.000 OA
BRANCH  13  15
ATOM     15  C   UNL     1      -0.775  12.036  21.894  0.00  0.00    +0.000 A 
ATOM     16  C   UNL     1      -2.139  11.901  22.163  0.00  0.00    +0.000 A 
ATOM     17  C   UNL     1      -2.849  12.984  22.682  0.00  0.00    +0.000 A 
ATOM     18  C   UNL     1      -2.196  14.193  22.931  0.00  0.00    +0.000 A 
ATOM     19  C   UNL     1      -0.837  14.331  22.642  0.00  0.00    +0.000 A 
ATOM     20  C   UNL     1      -0.121  13.253  22.117  0.00  0.00    +0.000 A 
ENDBRANCH  13  15
ENDBRANCH   1  13
BRANCH   8  21
ATOM     21  C   UNL     1      -6.180  11.245  17.991  0.00  0.00    +0.000 C 
BRANCH  21  22
ATOM     22  C   UNL     1      -6.765  10.547  19.199  0.00  0.00    +0.000 A 
ATOM     23  C   UNL     1      -7.275  11.294  20.269  0.00  0.00    +0.000 A 
ATOM     24  C   UNL     1      -7.821  10.622  21.353  0.00  0.00    +0.000 A 
ATOM     25  N   UNL     1      -7.896   9.279  21.445  0.00  0.00    +0.000 NA
ATOM     26  C   UNL     1      -7.394   8.576  20.404  0.00  0.00    +0.000 A 
ATOM     27  C   UNL     1      -6.831   9.153  19.277  0.00  0.00    +0.000 A 
ENDBRANCH  21  22
ENDBRANCH   8  21
TORSDOF 4
ENDMDL
MODEL 5
REMARK VINA RESULT:      -7.6      4.656      8.481
REMARK  Name = 
REMARK  4 active torsions:
REMARK  status: ('A' for Active; 'I' for Inactive)
REMARK    1  A    between atoms: S_2  and  C_4
REMARK    2  A    between atoms: S_2  and  N_10
REMARK    3  A    between atoms: N_17  and  C_18
REMARK    4  A    between atoms: C_18  and  C_19
REMARK                            x       y       z     vdW  Elec       q    Type
REMARK                         _______ _______ _______ _____ _____    ______ ____
ROOT
ATOM      1  N   UNL     1       0.716   9.967  19.913  0.00  0.00    +0.000 NA
ATOM      2  C   UNL     1       1.338  11.036  20.721  0.00  0.00    +0.000 C 
ATOM      3  C   UNL     1       0.822  12.409  20.324  0.00  0.00    +0.000 C 
ATOM      4  C   UNL     1      -0.722  12.531  20.406  0.00  0.00    +0.000 C 
ATOM      5  C   UNL     1      -1.215  12.594  21.872  0.00  0.00    +0.000 C 
ATOM      6  C   UNL     1      -0.735  13.862  22.575  0.00  0.00    +0.000 C 
ATOM      7  C   UNL     1      -1.070  15.117  21.766  0.00  0.00    +0.000 C 
ATOM      8  N   UNL     1      -0.625  15.046  20.361  0.00  0.00    +0.000 NA
ATOM      9  C   UNL     1      -1.171  13.844  19.703  0.00  0.00    +0.000 C 
ATOM     10  C   UNL     1      -1.373  11.325  19.677  0.00  0.00    +0.000 C 
ATOM     11  C   UNL     1      -0.763   9.968  20.030  0.00  0.00    +0.000 C 
ENDROOT
BRANCH   1  13
ATOM     12  O   UNL     1       2.306  10.695  18.046  0.00  0.00    +0.000 OA
ATOM     13  S   UNL     1       1.345   9.661  18.362  0.00  0.00    +0.000 S 
ATOM     14  O   UNL     1       0.231   9.384  17.470  0.00  0.00    +0.000 OA
BRANCH  13  15
ATOM     15  C   UNL     1       2.226   8.125  18.560  0.00  0.00    +0.000 A 
ATOM     16  C   UNL     1       3.154   7.743  17.587  0.00  0.00    +0.000 A 
ATOM     17  C   UNL     1       3.894   6.574  17.764  0.00  0.00    +0.000 A 
ATOM     18  C   UNL     1       3.708   5.795  18.907  0.00  0.00    +0.000 A 
ATOM     19  C   UNL     1       2.765   6.169  19.868  0.00  0.00    +0.000 A 
ATOM     20  C   UNL     1       2.016   7.334  19.695  0.00  0.00    +0.000 A 
ENDBRANCH  13  15
ENDBRANCH   1  13
BRANCH   8  21
ATOM     21  C   UNL     1      -1.034  16.289  19.671  0.00  0.00    +0.000 C 
BRANCH  21  22
ATOM     22  C   UNL     1      -0.015  16.868  18.714  0.00  0.00    +0.000 A 
ATOM     23  C   UNL     1      -0.400  17.823  17.765  0.00  0.00    +0.000 A 
ATOM     24  C   UNL     1       0.563  18.347  16.915  0.00  0.00    +0.000 A 
ATOM     25  N   UNL     1       1.864  17.994  16.946  0.00  0.00    +0.000 NA
ATOM     26  C   UNL     1       2.215  17.068  17.867  0.00  0.00    +0.000 A 
ATOM     27  C   UNL     1       1.329  16.488  18.761  0.00  0.00    +0.000 A 
ENDBRANCH  21  22
ENDBRANCH   8  21
TORSDOF 4
ENDMDL
MODEL 6
REMARK VINA RESULT:      -7.6      1.635      2.302
REMARK  Name = 
REMARK  4 active torsions:
REMARK  status: ('A' for Active; 'I' for Inactive)
REMARK    1  A    between atoms: S_2  and  C_4
REMARK    2  A    between atoms: S_2  and  N_10
REMARK    3  A    between atoms: N_17  and  C_18
REMARK    4  A    between atoms: C_18  and  C_19
REMARK                            x       y       z     vdW  Elec       q    Type
REMARK                         _______ _______ _______ _____ _____    ______ ____
ROOT
ATOM      1  N   UNL     1       5.737   4.005  17.556  0.00  0.00    +0.000 NA
ATOM      2  C   UNL     1       5.425   4.217  18.985  0.00  0.00    +0.000 C 
ATOM      3  C   UNL     1       4.571   5.457  19.191  0.00  0.00    +0.000 C 
ATOM      4  C   UNL     1       3.254   5.438  18.370  0.00  0.00    +0.000 C 
ATOM      5  C   UNL     1       2.228   4.439  18.956  0.00  0.00    +0.000 C 
ATOM      6  C   UNL     1       1.757   4.862  20.345  0.00  0.00    +0.000 C 
ATOM      7  C   UNL     1       1.271   6.312  20.359  0.00  0.00    +0.000 C 
ATOM      8  N   UNL     1       2.237   7.262  19.776  0.00  0.00    +0.000 NA
ATOM      9  C   UNL     1       2.607   6.853  18.408  0.00  0.00    +0.000 C 
ATOM     10  C   UNL     1       3.573   5.073  16.896  0.00  0.00    +0.000 C 
ATOM     11  C   UNL     1       4.513   3.878  16.728  0.00  0.00    +0.000 C 
ENDROOT
BRANCH   1  13
ATOM     12  O   UNL     1       8.266   4.306  17.300  0.00  0.00    +0.000 OA
ATOM     13  S   UNL     1       7.016   4.895  16.871  0.00  0.00    +0.000 S 
ATOM     14  O   UNL     1       6.747   6.308  17.089  0.00  0.00    +0.000 OA
BRANCH  13  15
ATOM     15  C   UNL     1       6.837   4.613  15.122  0.00  0.00    +0.000 A 
ATOM     16  C   UNL     1       7.649   5.322  14.232  0.00  0.00    +0.000 A 
ATOM     17  C   UNL     1       7.562   5.062  12.864  0.00  0.00    +0.000 A 
ATOM     18  C   UNL     1       6.670   4.098  12.391  0.00  0.00    +0.000 A 
ATOM     19  C   UNL     1       5.845   3.406  13.282  0.00  0.00    +0.000 A 
ATOM     20  C   UNL     1       5.922   3.664  14.651  0.00  0.00    +0.000 A 
ENDBRANCH  13  15
ENDBRANCH   1  13
BRANCH   8  21
ATOM     21  C   UNL     1       1.646   8.618  19.807  0.00  0.00    +0.000 C 
BRANCH  21  22
ATOM     22  C   UNL     1       1.038   9.032  21.129  0.00  0.00    +0.000 A 
ATOM     23  C   UNL     1       1.788   8.953  22.309  0.00  0.00    +0.000 A 
ATOM     24  C   UNL     1       1.206   9.358  23.501  0.00  0.00    +0.000 A 
ATOM     25  N   UNL     1      -0.052   9.833  23.599  0.00  0.00    +0.000 NA
ATOM     26  C   UNL     1      -0.762   9.899  22.450  0.00  0.00    +0.000 A 
ATOM     27  C   UNL     1      -0.270   9.521  21.211  0.00  0.00    +0.000 A 
ENDBRANCH  21  22
ENDBRANCH   8  21
TORSDOF 4
ENDMDL
MODEL 7
REMARK VINA RESULT:      -7.5      7.026     10.834
REMARK  Name = 
REMARK  4 active torsions:
REMARK  status: ('A' for Active; 'I' for Inactive)
REMARK    1  A    between atoms: S_2  and  C_4
REMARK    2  A    between atoms: S_2  and  N_10
REMARK    3  A    between atoms: N_17  and  C_18
REMARK    4  A    between atoms: C_18  and  C_19
REMARK                            x       y       z     vdW  Elec       q    Type
REMARK                         _______ _______ _______ _____ _____    ______ ____
ROOT
ATOM      1  N   UNL     1       0.874  13.722  20.118  0.00  0.00    +0.000 NA
ATOM      2  C   UNL     1       2.094  13.836  20.945  0.00  0.00    +0.000 C 
ATOM      3  C   UNL     1       3.343  13.948  20.086  0.00  0.00    +0.000 C 
ATOM      4  C   UNL     1       3.289  15.125  19.077  0.00  0.00    +0.000 C 
ATOM      5  C   UNL     1       3.458  16.492  19.782  0.00  0.00    +0.000 C 
ATOM      6  C   UNL     1       4.844  16.639  20.404  0.00  0.00    +0.000 C 
ATOM      7  C   UNL     1       5.952  16.335  19.393  0.00  0.00    +0.000 C 
ATOM      8  N   UNL     1       5.776  15.045  18.701  0.00  0.00    +0.000 NA
ATOM      9  C   UNL     1       4.452  14.976  18.055  0.00  0.00    +0.000 C 
ATOM     10  C   UNL     1       1.940  15.084  18.310  0.00  0.00    +0.000 C 
ATOM     11  C   UNL     1       0.713  14.873  19.198  0.00  0.00    +0.000 C 
ENDROOT
BRANCH   1  13
ATOM     12  O   UNL     1       1.620  11.678  18.771  0.00  0.00    +0.000 OA
ATOM     13  S   UNL     1       0.473  12.194  19.485  0.00  0.00    +0.000 S 
ATOM     14  O   UNL     1      -0.822  12.303  18.831  0.00  0.00    +0.000 OA
BRANCH  13  15
ATOM     15  C   UNL     1       0.221  11.189  20.935  0.00  0.00    +0.000 A 
ATOM     16  C   UNL     1      -0.681  11.619  21.912  0.00  0.00    +0.000 A 
ATOM     17  C   UNL     1      -0.932  10.810  23.020  0.00  0.00    +0.000 A 
ATOM     18  C   UNL     1      -0.287   9.579  23.147  0.00  0.00    +0.000 A 
ATOM     19  C   UNL     1       0.629   9.161  22.178  0.00  0.00    +0.000 A 
ATOM     20  C   UNL     1       0.890   9.968  21.070  0.00  0.00    +0.000 A 
ENDBRANCH  13  15
ENDBRANCH   1  13
BRANCH   8  21
ATOM     21  C   UNL     1       6.877  14.877  17.726  0.00  0.00    +0.000 C 
BRANCH  21  22
ATOM     22  C   UNL     1       7.981  13.932  18.148  0.00  0.00    +0.000 A 
ATOM     23  C   UNL     1       8.131  12.691  17.515  0.00  0.00    +0.000 A 
ATOM     24  C   UNL     1       9.164  11.857  17.913  0.00  0.00    +0.000 A 
ATOM     25  N   UNL     1      10.049  12.167  18.883  0.00  0.00    +0.000 NA
ATOM     26  C   UNL     1       9.886  13.367  19.485  0.00  0.00    +0.000 A 
ATOM     27  C   UNL     1       8.887  14.271  19.157  0.00  0.00    +0.000 A 
ENDBRANCH  21  22
ENDBRANCH   8  21
TORSDOF 4
ENDMDL
MODEL 8
REMARK VINA RESULT:      -7.4      1.173      1.599
REMARK  Name = 
REMARK  4 active torsions:
REMARK  status: ('A' for Active; 'I' for Inactive)
REMARK    1  A    between atoms: S_2  and  C_4
REMARK    2  A    between atoms: S_2  and  N_10
REMARK    3  A    between atoms: N_17  and  C_18
REMARK    4  A    between atoms: C_18  and  C_19
REMARK                            x       y       z     vdW  Elec       q    Type
REMARK                         _______ _______ _______ _____ _____    ______ ____
ROOT
ATOM      1  N   UNL     1       5.368   4.111  17.402  0.00  0.00    +0.000 NA
ATOM      2  C   UNL     1       5.123   3.983  18.854  0.00  0.00    +0.000 C 
ATOM      3  C   UNL     1       4.423   5.210  19.413  0.00  0.00    +0.000 C 
ATOM      4  C   UNL     1       3.090   5.538  18.690  0.00  0.00    +0.000 C 
ATOM      5  C   UNL     1       1.974   4.533  19.064  0.00  0.00    +0.000 C 
ATOM      6  C   UNL     1       1.595   4.635  20.540  0.00  0.00    +0.000 C 
ATOM      7  C   UNL     1       1.277   6.075  20.944  0.00  0.00    +0.000 C 
ATOM      8  N   UNL     1       2.329   7.037  20.563  0.00  0.00    +0.000 NA
ATOM      9  C   UNL     1       2.610   6.955  19.117  0.00  0.00    +0.000 C 
ATOM     10  C   UNL     1       3.321   5.529  17.155  0.00  0.00    +0.000 C 
ATOM     11  C   UNL     1       4.113   4.327  16.641  0.00  0.00    +0.000 C 
ENDROOT
BRANCH   1  13
ATOM     12  O   UNL     1       7.907   4.424  17.474  0.00  0.00    +0.000 OA
ATOM     13  S   UNL     1       6.719   5.010  16.891  0.00  0.00    +0.000 S 
ATOM     14  O   UNL     1       6.418   6.421  17.076  0.00  0.00    +0.000 OA
BRANCH  13  15
ATOM     15  C   UNL     1       6.768   4.733  15.131  0.00  0.00    +0.000 A 
ATOM     16  C   UNL     1       7.670   5.464  14.353  0.00  0.00    +0.000 A 
ATOM     17  C   UNL     1       7.762   5.211  12.985  0.00  0.00    +0.000 A 
ATOM     18  C   UNL     1       6.957   4.230  12.400  0.00  0.00    +0.000 A 
ATOM     19  C   UNL     1       6.042   3.516  13.178  0.00  0.00    +0.000 A 
ATOM     20  C   UNL     1       5.941   3.768  14.547  0.00  0.00    +0.000 A 
ENDBRANCH  13  15
ENDBRANCH   1  13
BRANCH   8  21
ATOM     21  C   UNL     1       1.898   8.394  20.966  0.00  0.00    +0.000 C 
BRANCH  21  22
ATOM     22  C   UNL     1       0.975   9.099  19.996  0.00  0.00    +0.000 A 
ATOM     23  C   UNL     1       1.348   9.260  18.656  0.00  0.00    +0.000 A 
ATOM     24  C   UNL     1       0.470   9.894  17.789  0.00  0.00    +0.000 A 
ATOM     25  N   UNL     1      -0.737  10.370  18.157  0.00  0.00    +0.000 NA
ATOM     26  C   UNL     1      -1.078  10.208  19.456  0.00  0.00    +0.000 A 
ATOM     27  C   UNL     1      -0.272   9.587  20.397  0.00  0.00    +0.000 A 
ENDBRANCH  21  22
ENDBRANCH   8  21
TORSDOF 4
ENDMDL
MODEL 9
REMARK VINA RESULT:      -7.4      2.583      3.606
REMARK  Name = 
REMARK  4 active torsions:
REMARK  status: ('A' for Active; 'I' for Inactive)
REMARK    1  A    between atoms: S_2  and  C_4
REMARK    2  A    between atoms: S_2  and  N_10
REMARK    3  A    between atoms: N_17  and  C_18
REMARK    4  A    between atoms: C_18  and  C_19
REMARK                            x       y       z     vdW  Elec       q    Type
REMARK                         _______ _______ _______ _____ _____    ______ ____
ROOT
ATOM      1  N   UNL     1       4.783   3.837  17.514  0.00  0.00    +0.000 NA
ATOM      2  C   UNL     1       4.856   4.352  18.897  0.00  0.00    +0.000 C 
ATOM      3  C   UNL     1       4.072   5.645  19.053  0.00  0.00    +0.000 C 
ATOM      4  C   UNL     1       2.586   5.516  18.626  0.00  0.00    +0.000 C 
ATOM      5  C   UNL     1       1.763   4.705  19.655  0.00  0.00    +0.000 C 
ATOM      6  C   UNL     1       1.670   5.426  20.998  0.00  0.00    +0.000 C 
ATOM      7  C   UNL     1       1.187   6.868  20.833  0.00  0.00    +0.000 C 
ATOM      8  N   UNL     1       1.954   7.633  19.832  0.00  0.00    +0.000 NA
ATOM      9  C   UNL     1       1.956   6.935  18.533  0.00  0.00    +0.000 C 
ATOM     10  C   UNL     1       2.509   4.841  17.231  0.00  0.00    +0.000 C 
ATOM     11  C   UNL     1       3.386   3.597  17.079  0.00  0.00    +0.000 C 
ENDROOT
BRANCH   1  13
ATOM     12  O   UNL     1       5.023   5.191  15.356  0.00  0.00    +0.000 OA
ATOM     13  S   UNL     1       5.825   4.510  16.349  0.00  0.00    +0.000 S 
ATOM     14  O   UNL     1       6.783   3.488  15.957  0.00  0.00    +0.000 OA
BRANCH  13  15
ATOM     15  C   UNL     1       6.742   5.736  17.261  0.00  0.00    +0.000 A 
ATOM     16  C   UNL     1       7.538   5.330  18.335  0.00  0.00    +0.000 A 
ATOM     17  C   UNL     1       8.309   6.272  19.016  0.00  0.00    +0.000 A 
ATOM     18  C   UNL     1       8.283   7.611  18.622  0.00  0.00    +0.000 A 
ATOM     19  C   UNL     1       7.470   8.017  17.561  0.00  0.00    +0.000 A 
ATOM     20  C   UNL     1       6.692   7.081  16.879  0.00  0.00    +0.000 A 
ENDBRANCH  13  15
ENDBRANCH   1  13
BRANCH   8  21
ATOM     21  C   UNL     1       1.377   8.992  19.731  0.00  0.00    +0.000 C 
BRANCH  21  22
ATOM     22  C   UNL     1       0.739   9.524  20.995  0.00  0.00    +0.000 A 
ATOM     23  C   UNL     1      -0.223  10.540  20.929  0.00  0.00    +0.000 A 
ATOM     24  C   UNL     1      -0.801  10.991  22.106  0.00  0.00    +0.000 A 
ATOM     25  N   UNL     1      -0.496  10.507  23.327  0.00  0.00    +0.000 NA
ATOM     26  C   UNL     1       0.437   9.529  23.371  0.00  0.00    +0.000 A 
ATOM     27  C   UNL     1       1.070   9.010  22.253  0.00  0.00    +0.000 A 
ENDBRANCH  21  22
ENDBRANCH   8  21
TORSDOF 4
ENDMDL
