MODEL 1
REMARK VINA RESULT:      -8.1      0.000      0.000
REMARK  Name = 
REMARK  9 active torsions:
REMARK  status: ('A' for Active; 'I' for Inactive)
REMARK    1  A    between atoms: C_1  and  C_2
REMARK    2  A    between atoms: C_2  and  O_3
REMARK    3  A    between atoms: O_3  and  N_4
REMARK    4  A    between atoms: N_7  and  C_8
REMARK    5  A    between atoms: C_17  and  C_18
REMARK    6  A    between atoms: C_18  and  O_20
REMARK    7  A    between atoms: N_22  and  C_23
REMARK    8  A    between atoms: C_27  and  C_28
REMARK    9  A    between atoms: N_30  and  O_31
REMARK                            x       y       z     vdW  Elec       q    Type
REMARK                         _______ _______ _______ _____ _____    ______ ____
ROOT
ATOM      1  C   UNL     1       1.954   7.544  19.224  0.00  0.00    +0.000 A 
ATOM      2  N   UNL     1       1.642   8.852  19.044  0.00  0.00    +0.000 NA
ATOM      3  C   UNL     1       1.030   9.564  20.023  0.00  0.00    +0.000 A 
ATOM      4  C   UNL     1       0.714   8.973  21.249  0.00  0.00    +0.000 A 
ATOM      5  C   UNL     1       1.033   7.637  21.466  0.00  0.00    +0.000 A 
ATOM      6  C   UNL     1       1.649   6.923  20.444  0.00  0.00    +0.000 A 
ATOM      7  F   UNL     1       1.905   5.621  20.646  0.00  0.00    +0.000 F 
ATOM      8  C   UNL     1       0.020   9.766  22.288  0.00  0.00    +0.000 A 
ATOM      9  O   UNL     1      -0.293   9.272  23.366  0.00  0.00    +0.000 OA
ATOM     10  C   UNL     1      -0.297  11.185  22.004  0.00  0.00    +0.000 A 
ATOM     11  C   UNL     1       0.061  11.656  20.804  0.00  0.00    +0.000 A 
ATOM     12  N   UNL     1       0.670  10.922  19.805  0.00  0.00    +0.000 N 
ENDROOT
BRANCH   1  16
ATOM     13  N   UNL     1       5.866   5.816  17.468  0.00  0.00    +0.000 NA
ATOM     14  C   UNL     1       4.576   5.963  17.571  0.00  0.00    +0.000 C 
ATOM     15  C   UNL     1       3.839   7.270  17.691  0.00  0.00    +0.000 C 
ATOM     16  N   UNL     1       2.514   6.862  18.154  0.00  0.00    +0.000 N 
ATOM     17  C   UNL     1       2.310   5.413  17.998  0.00  0.00    +0.000 C 
ATOM     18  C   UNL     1       3.632   4.796  17.505  0.00  0.00    +0.000 C 
BRANCH  18  19
ATOM     19  C   UNL     1       4.002   3.550  18.295  0.00  0.00    +0.000 C 
ATOM     20  N   UNL     1       5.056   3.579  19.174  0.00  0.00    +0.000 N 
ATOM     21  N   UNL     1       3.381   2.407  18.158  0.00  0.00    +0.000 NA
ATOM     22  H   UNL     1       5.796   4.243  18.942  0.00  0.00    +0.000 HD
ATOM     23  H   UNL     1       5.409   2.653  19.386  0.00  0.00    +0.000 HD
BRANCH  21  24
ATOM     24  O   UNL     1       2.353   2.477  17.215  0.00  0.00    +0.000 OA
ATOM     25  H   UNL     1       2.841   2.406  16.372  0.00  0.00    +0.000 HD
ENDBRANCH  21  24
ENDBRANCH  18  19
BRANCH  13  26
ATOM     26  O   UNL     1       6.502   7.067  17.522  0.00  0.00    +0.000 OA
BRANCH  26  28
ATOM     27  C   UNL     1       7.826   5.916  19.150  0.00  0.00    +0.000 C 
ATOM     28  C   UNL     1       7.839   6.890  17.987  0.00  0.00    +0.000 C 
ENDBRANCH  26  28
ENDBRANCH  13  26
ENDBRANCH   1  16
BRANCH  12  29
ATOM     29  C   UNL     1       0.984  11.583  18.526  0.00  0.00    +0.000 C 
ATOM     30  C   UNL     1       0.964  13.082  18.361  0.00  0.00    +0.000 C 
ATOM     31  C   UNL     1       2.271  12.356  18.348  0.00  0.00    +0.000 C 
ENDBRANCH  12  29
BRANCH  10  32
ATOM     32  C   UNL     1      -1.005  12.082  22.943  0.00  0.00    +0.000 C 
ATOM     33  O   UNL     1      -0.550  13.152  23.320  0.00  0.00    +0.000 OA
BRANCH  32  34
ATOM     34  O   UNL     1      -2.215  11.632  23.338  0.00  0.00    +0.000 OA
ATOM     35  H   UNL     1      -2.191  11.019  24.112  0.00  0.00    +0.000 HD
ENDBRANCH  32  34
ENDBRANCH  10  32
TORSDOF 8
ENDMDL
MODEL 2
REMARK VINA RESULT:      -7.9      0.969      1.376
REMARK  Name = 
REMARK  9 active torsions:
REMARK  status: ('A' for Active; 'I' for Inactive)
REMARK    1  A    between atoms: C_1  and  C_2
REMARK    2  A    between atoms: C_2  and  O_3
REMARK    3  A    between atoms: O_3  and  N_4
REMARK    4  A    between atoms: N_7  and  C_8
REMARK    5  A    between atoms: C_17  and  C_18
REMARK    6  A    between atoms: C_18  and  O_20
REMARK    7  A    between atoms: N_22  and  C_23
REMARK    8  A    between atoms: C_27  and  C_28
REMARK    9  A    between atoms: N_30  and  O_31
REMARK                            x       y       z     vdW  Elec       q    Type
REMARK                         _______ _______ _______ _____ _____    ______ ____
ROOT
ATOM      1  C   UNL     1       1.980   7.553  19.126  0.00  0.00    +0.000 A 
ATOM      2  N   UNL     1       1.215   8.645  18.871  0.00  0.00    +0.000 NA
ATOM      3  C   UNL     1       0.692   9.381  19.883  0.00  0.00    +0.000 A 
ATOM      4  C   UNL     1       0.935   9.043  21.216  0.00  0.00    +0.000 A 
ATOM      5  C   UNL     1       1.725   7.936  21.508  0.00  0.00    +0.000 A 
ATOM      6  C   UNL     1       2.241   7.189  20.455  0.00  0.00    +0.000 A 
ATOM      7  F   UNL     1       2.959   6.093  20.748  0.00  0.00    +0.000 F 
ATOM      8  C   UNL     1       0.326   9.847  22.299  0.00  0.00    +0.000 A 
ATOM      9  O   UNL     1       0.500   9.564  23.480  0.00  0.00    +0.000 OA
ATOM     10  C   UNL     1      -0.508  11.015  21.933  0.00  0.00    +0.000 A 
ATOM     11  C   UNL     1      -0.666  11.259  20.627  0.00  0.00    +0.000 A 
ATOM     12  N   UNL     1      -0.144  10.496  19.601  0.00  0.00    +0.000 N 
ENDROOT
BRANCH   1  16
ATOM     13  N   UNL     1       5.691   5.782  17.013  0.00  0.00    +0.000 NA
ATOM     14  C   UNL     1       4.420   5.911  17.267  0.00  0.00    +0.000 C 
ATOM     15  C   UNL     1       3.667   7.209  17.390  0.00  0.00    +0.000 C 
ATOM     16  N   UNL     1       2.422   6.809  18.042  0.00  0.00    +0.000 N 
ATOM     17  C   UNL     1       2.241   5.349  18.011  0.00  0.00    +0.000 C 
ATOM     18  C   UNL     1       3.508   4.725  17.398  0.00  0.00    +0.000 C 
BRANCH  18  19
ATOM     19  C   UNL     1       4.008   3.544  18.218  0.00  0.00    +0.000 C 
ATOM     20  N   UNL     1       5.120   3.678  19.011  0.00  0.00    +0.000 N 
ATOM     21  N   UNL     1       3.447   2.363  18.184  0.00  0.00    +0.000 NA
ATOM     22  H   UNL     1       5.800   4.368  18.691  0.00  0.00    +0.000 HD
ATOM     23  H   UNL     1       5.542   2.785  19.241  0.00  0.00    +0.000 HD
BRANCH  21  24
ATOM     24  O   UNL     1       2.350   2.326  17.320  0.00  0.00    +0.000 OA
ATOM     25  H   UNL     1       1.669   2.803  17.830  0.00  0.00    +0.000 HD
ENDBRANCH  21  24
ENDBRANCH  18  19
BRANCH  13  26
ATOM     26  O   UNL     1       6.293   7.046  16.902  0.00  0.00    +0.000 OA
BRANCH  26  28
ATOM     27  C   UNL     1       7.975   8.495  17.797  0.00  0.00    +0.000 C 
ATOM     28  C   UNL     1       7.483   7.065  17.690  0.00  0.00    +0.000 C 
ENDBRANCH  26  28
ENDBRANCH  13  26
ENDBRANCH   1  16
BRANCH  12  29
ATOM     29  C   UNL     1      -0.426  10.887  18.209  0.00  0.00    +0.000 C 
ATOM     30  C   UNL     1      -1.581  10.318  17.424  0.00  0.00    +0.000 C 
ATOM     31  C   UNL     1      -1.624  11.745  17.871  0.00  0.00    +0.000 C 
ENDBRANCH  12  29
BRANCH  10  32
ATOM     32  C   UNL     1      -1.191  11.888  22.913  0.00  0.00    +0.000 C 
ATOM     33  O   UNL     1      -2.275  11.620  23.408  0.00  0.00    +0.000 OA
BRANCH  32  34
ATOM     34  O   UNL     1      -0.506  13.006  23.234  0.00  0.00    +0.000 OA
ATOM     35  H   UNL     1      -0.660  13.769  22.627  0.00  0.00    +0.000 HD
ENDBRANCH  32  34
ENDBRANCH  10  32
TORSDOF 8
ENDMDL
MODEL 3
REMARK VINA RESULT:      -7.8      2.560      8.343
REMARK  Name = 
REMARK  9 active torsions:
REMARK  status: ('A' for Active; 'I' for Inactive)
REMARK    1  A    between atoms: C_1  and  C_2
REMARK    2  A    between atoms: C_2  and  O_3
REMARK    3  A    between atoms: O_3  and  N_4
REMARK    4  A    between atoms: N_7  and  C_8
REMARK    5  A    between atoms: C_17  and  C_18
REMARK    6  A    between atoms: C_18  and  O_20
REMARK    7  A    between atoms: N_22  and  C_23
REMARK    8  A    between atoms: C_27  and  C_28
REMARK    9  A    between atoms: N_30  and  O_31
REMARK                            x       y       z     vdW  Elec       q    Type
REMARK                         _______ _______ _______ _____ _____    ______ ____
ROOT
ATOM      1  C   UNL     1       1.462   8.494  19.822  0.00  0.00    +0.000 A 
ATOM      2  N   UNL     1       2.388   7.937  19.001  0.00  0.00    +0.000 NA
ATOM      3  C   UNL     1       2.774   6.647  19.161  0.00  0.00    +0.000 A 
ATOM      4  C   UNL     1       2.222   5.852  20.169  0.00  0.00    +0.000 A 
ATOM      5  C   UNL     1       1.262   6.394  21.018  0.00  0.00    +0.000 A 
ATOM      6  C   UNL     1       0.891   7.722  20.843  0.00  0.00    +0.000 A 
ATOM      7  F   UNL     1       0.002   8.249  21.700  0.00  0.00    +0.000 F 
ATOM      8  C   UNL     1       2.685   4.457  20.339  0.00  0.00    +0.000 A 
ATOM      9  O   UNL     1       2.238   3.739  21.228  0.00  0.00    +0.000 OA
ATOM     10  C   UNL     1       3.709   3.930  19.408  0.00  0.00    +0.000 A 
ATOM     11  C   UNL     1       4.162   4.771  18.470  0.00  0.00    +0.000 A 
ATOM     12  N   UNL     1       3.777   6.088  18.321  0.00  0.00    +0.000 N 
ENDROOT
BRANCH   1  16
ATOM     13  N   UNL     1      -1.934  11.606  19.420  0.00  0.00    +0.000 NA
ATOM     14  C   UNL     1      -0.710  11.205  19.618  0.00  0.00    +0.000 C 
ATOM     15  C   UNL     1       0.036  10.191  18.791  0.00  0.00    +0.000 C 
ATOM     16  N   UNL     1       1.169   9.838  19.643  0.00  0.00    +0.000 N 
ATOM     17  C   UNL     1       1.332  10.796  20.749  0.00  0.00    +0.000 C 
ATOM     18  C   UNL     1       0.156  11.789  20.696  0.00  0.00    +0.000 C 
BRANCH  18  19
ATOM     19  C   UNL     1      -0.472  11.991  22.067  0.00  0.00    +0.000 C 
ATOM     20  N   UNL     1      -1.393  11.092  22.542  0.00  0.00    +0.000 N 
ATOM     21  N   UNL     1      -0.207  13.021  22.829  0.00  0.00    +0.000 NA
ATOM     22  H   UNL     1      -1.938  10.610  21.826  0.00  0.00    +0.000 HD
ATOM     23  H   UNL     1      -1.969  11.480  23.281  0.00  0.00    +0.000 HD
BRANCH  21  24
ATOM     24  O   UNL     1       0.712  13.891  22.236  0.00  0.00    +0.000 OA
ATOM     25  H   UNL     1       1.066  14.374  23.007  0.00  0.00    +0.000 HD
ENDBRANCH  21  24
ENDBRANCH  18  19
BRANCH  13  26
ATOM     26  O   UNL     1      -2.496  10.924  18.328  0.00  0.00    +0.000 OA
BRANCH  26  28
ATOM     27  C   UNL     1      -4.243  11.167  16.710  0.00  0.00    +0.000 C 
ATOM     28  C   UNL     1      -3.849  11.347  18.163  0.00  0.00    +0.000 C 
ENDBRANCH  26  28
ENDBRANCH  13  26
ENDBRANCH   1  16
BRANCH  12  29
ATOM     29  C   UNL     1       4.385   6.892  17.246  0.00  0.00    +0.000 C 
ATOM     30  C   UNL     1       5.877   6.998  17.058  0.00  0.00    +0.000 C 
ATOM     31  C   UNL     1       5.062   6.228  16.069  0.00  0.00    +0.000 C 
ENDBRANCH  12  29
BRANCH  10  32
ATOM     32  C   UNL     1       4.274   2.565  19.478  0.00  0.00    +0.000 C 
ATOM     33  O   UNL     1       4.960   2.171  20.409  0.00  0.00    +0.000 OA
BRANCH  32  34
ATOM     34  O   UNL     1       3.950   1.774  18.433  0.00  0.00    +0.000 OA
ATOM     35  H   UNL     1       3.505   0.928  18.683  0.00  0.00    +0.000 HD
ENDBRANCH  32  34
ENDBRANCH  10  32
TORSDOF 8
ENDMDL
MODEL 4
REMARK VINA RESULT:      -7.7      0.926      1.155
REMARK  Name = 
REMARK  9 active torsions:
REMARK  status: ('A' for Active; 'I' for Inactive)
REMARK    1  A    between atoms: C_1  and  C_2
REMARK    2  A    between atoms: C_2  and  O_3
REMARK    3  A    between atoms: O_3  and  N_4
REMARK    4  A    between atoms: N_7  and  C_8
REMARK    5  A    between atoms: C_17  and  C_18
REMARK    6  A    between atoms: C_18  and  O_20
REMARK    7  A    between atoms: N_22  and  C_23
REMARK    8  A    between atoms: C_27  and  C_28
REMARK    9  A    between atoms: N_30  and  O_31
REMARK                            x       y       z     vdW  Elec       q    Type
REMARK                         _______ _______ _______ _____ _____    ______ ____
ROOT
ATOM      1  C   UNL     1       2.089   7.384  19.563  0.00  0.00    +0.000 A 
ATOM      2  N   UNL     1       1.809   8.674  19.249  0.00  0.00    +0.000 NA
ATOM      3  C   UNL     1       1.113   9.464  20.104  0.00  0.00    +0.000 A 
ATOM      4  C   UNL     1       0.675   8.975  21.337  0.00  0.00    +0.000 A 
ATOM      5  C   UNL     1       0.958   7.660  21.691  0.00  0.00    +0.000 A 
ATOM      6  C   UNL     1       1.662   6.865  20.793  0.00  0.00    +0.000 A 
ATOM      7  F   UNL     1       1.885   5.583  21.124  0.00  0.00    +0.000 F 
ATOM      8  C   UNL     1      -0.108   9.852  22.237  0.00  0.00    +0.000 A 
ATOM      9  O   UNL     1      -0.528   9.447  23.316  0.00  0.00    +0.000 OA
ATOM     10  C   UNL     1      -0.382  11.243  21.811  0.00  0.00    +0.000 A 
ATOM     11  C   UNL     1       0.095  11.614  20.617  0.00  0.00    +0.000 A 
ATOM     12  N   UNL     1       0.789  10.801  19.743  0.00  0.00    +0.000 N 
ENDROOT
BRANCH   1  16
ATOM     13  N   UNL     1       5.450   4.291  18.850  0.00  0.00    +0.000 NA
ATOM     14  C   UNL     1       4.380   4.969  18.549  0.00  0.00    +0.000 C 
ATOM     15  C   UNL     1       4.189   6.452  18.728  0.00  0.00    +0.000 C 
ATOM     16  N   UNL     1       2.743   6.616  18.610  0.00  0.00    +0.000 N 
ATOM     17  C   UNL     1       2.106   5.413  18.051  0.00  0.00    +0.000 C 
ATOM     18  C   UNL     1       3.189   4.330  17.893  0.00  0.00    +0.000 C 
BRANCH  18  19
ATOM     19  C   UNL     1       2.726   2.987  18.437  0.00  0.00    +0.000 C 
ATOM     20  N   UNL     1       1.671   2.925  19.312  0.00  0.00    +0.000 N 
ATOM     21  N   UNL     1       3.313   1.856  18.140  0.00  0.00    +0.000 NA
ATOM     22  H   UNL     1       1.540   3.754  19.893  0.00  0.00    +0.000 HD
ATOM     23  H   UNL     1       1.660   2.063  19.846  0.00  0.00    +0.000 HD
BRANCH  21  24
ATOM     24  O   UNL     1       4.395   2.036  17.275  0.00  0.00    +0.000 OA
ATOM     25  H   UNL     1       5.077   1.464  17.676  0.00  0.00    +0.000 HD
ENDBRANCH  21  24
ENDBRANCH  18  19
BRANCH  13  26
ATOM     26  O   UNL     1       6.418   5.139  19.413  0.00  0.00    +0.000 OA
BRANCH  26  28
ATOM     27  C   UNL     1       7.825   6.730  18.309  0.00  0.00    +0.000 C 
ATOM     28  C   UNL     1       7.515   5.259  18.508  0.00  0.00    +0.000 C 
ENDBRANCH  26  28
ENDBRANCH  13  26
ENDBRANCH   1  16
BRANCH  12  29
ATOM     29  C   UNL     1       1.231  11.356  18.452  0.00  0.00    +0.000 C 
ATOM     30  C   UNL     1       1.179  12.830  18.142  0.00  0.00    +0.000 C 
ATOM     31  C   UNL     1       2.503  12.166  18.350  0.00  0.00    +0.000 C 
ENDBRANCH  12  29
BRANCH  10  32
ATOM     32  C   UNL     1      -1.168  12.215  22.602  0.00  0.00    +0.000 C 
ATOM     33  O   UNL     1      -0.803  13.364  22.805  0.00  0.00    +0.000 OA
BRANCH  32  34
ATOM     34  O   UNL     1      -2.340  11.736  23.067  0.00  0.00    +0.000 OA
ATOM     35  H   UNL     1      -3.124  12.300  22.860  0.00  0.00    +0.000 HD
ENDBRANCH  32  34
ENDBRANCH  10  32
TORSDOF 8
ENDMDL
MODEL 5
REMARK VINA RESULT:      -7.7      1.005      1.234
REMARK  Name = 
REMARK  9 active torsions:
REMARK  status: ('A' for Active; 'I' for Inactive)
REMARK    1  A    between atoms: C_1  and  C_2
REMARK    2  A    between atoms: C_2  and  O_3
REMARK    3  A    between atoms: O_3  and  N_4
REMARK    4  A    between atoms: N_7  and  C_8
REMARK    5  A    between atoms: C_17  and  C_18
REMARK    6  A    between atoms: C_18  and  O_20
REMARK    7  A    between atoms: N_22  and  C_23
REMARK    8  A    between atoms: C_27  and  C_28
REMARK    9  A    between atoms: N_30  and  O_31
REMARK                            x       y       z     vdW  Elec       q    Type
REMARK                         _______ _______ _______ _____ _____    ______ ____
ROOT
ATOM      1  C   UNL     1       2.115   7.564  19.100  0.00  0.00    +0.000 A 
ATOM      2  N   UNL     1       1.769   8.866  18.940  0.00  0.00    +0.000 NA
ATOM      3  C   UNL     1       1.151   9.550  19.934  0.00  0.00    +0.000 A 
ATOM      4  C   UNL     1       0.862   8.936  21.156  0.00  0.00    +0.000 A 
ATOM      5  C   UNL     1       1.216   7.605  21.352  0.00  0.00    +0.000 A 
ATOM      6  C   UNL     1       1.838   6.920  20.314  0.00  0.00    +0.000 A 
ATOM      7  F   UNL     1       2.129   5.623  20.497  0.00  0.00    +0.000 F 
ATOM      8  C   UNL     1       0.159   9.699  22.212  0.00  0.00    +0.000 A 
ATOM      9  O   UNL     1      -0.130   9.183  23.287  0.00  0.00    +0.000 OA
ATOM     10  C   UNL     1      -0.196  11.112  21.950  0.00  0.00    +0.000 A 
ATOM     11  C   UNL     1       0.138  11.607  20.752  0.00  0.00    +0.000 A 
ATOM     12  N   UNL     1       0.754  10.901  19.737  0.00  0.00    +0.000 N 
ENDROOT
BRANCH   1  16
ATOM     13  N   UNL     1       6.080   6.238  17.127  0.00  0.00    +0.000 NA
ATOM     14  C   UNL     1       4.792   6.236  17.316  0.00  0.00    +0.000 C 
ATOM     15  C   UNL     1       3.912   7.452  17.446  0.00  0.00    +0.000 C 
ATOM     16  N   UNL     1       2.681   6.910  18.015  0.00  0.00    +0.000 N 
ATOM     17  C   UNL     1       2.642   5.442  17.921  0.00  0.00    +0.000 C 
ATOM     18  C   UNL     1       3.993   4.965  17.356  0.00  0.00    +0.000 C 
BRANCH  18  19
ATOM     19  C   UNL     1       4.562   3.804  18.158  0.00  0.00    +0.000 C 
ATOM     20  N   UNL     1       4.425   2.518  17.699  0.00  0.00    +0.000 N 
ATOM     21  N   UNL     1       5.159   3.958  19.311  0.00  0.00    +0.000 NA
ATOM     22  H   UNL     1       3.601   2.349  17.119  0.00  0.00    +0.000 HD
ATOM     23  H   UNL     1       4.536   1.830  18.435  0.00  0.00    +0.000 HD
BRANCH  21  24
ATOM     24  O   UNL     1       5.211   5.298  19.702  0.00  0.00    +0.000 OA
ATOM     25  H   UNL     1       6.163   5.426  19.873  0.00  0.00    +0.000 HD
ENDBRANCH  21  24
ENDBRANCH  18  19
BRANCH  13  26
ATOM     26  O   UNL     1       6.563   7.557  17.095  0.00  0.00    +0.000 OA
BRANCH  26  28
ATOM     27  C   UNL     1       8.176   9.078  17.997  0.00  0.00    +0.000 C 
ATOM     28  C   UNL     1       7.785   7.623  17.829  0.00  0.00    +0.000 C 
ENDBRANCH  26  28
ENDBRANCH  13  26
ENDBRANCH   1  16
BRANCH  12  29
ATOM     29  C   UNL     1       1.039  11.587  18.464  0.00  0.00    +0.000 C 
ATOM     30  C   UNL     1       0.987  13.087  18.321  0.00  0.00    +0.000 C 
ATOM     31  C   UNL     1       2.308  12.386  18.280  0.00  0.00    +0.000 C 
ENDBRANCH  12  29
BRANCH  10  32
ATOM     32  C   UNL     1      -0.916  11.980  22.908  0.00  0.00    +0.000 C 
ATOM     33  O   UNL     1      -0.508  13.079  23.252  0.00  0.00    +0.000 OA
BRANCH  32  34
ATOM     34  O   UNL     1      -2.080  11.466  23.358  0.00  0.00    +0.000 OA
ATOM     35  H   UNL     1      -2.710  12.136  23.718  0.00  0.00    +0.000 HD
ENDBRANCH  32  34
ENDBRANCH  10  32
TORSDOF 8
ENDMDL
MODEL 6
REMARK VINA RESULT:      -7.7      2.629      8.436
REMARK  Name = 
REMARK  9 active torsions:
REMARK  status: ('A' for Active; 'I' for Inactive)
REMARK    1  A    between atoms: C_1  and  C_2
REMARK    2  A    between atoms: C_2  and  O_3
REMARK    3  A    between atoms: O_3  and  N_4
REMARK    4  A    between atoms: N_7  and  C_8
REMARK    5  A    between atoms: C_17  and  C_18
REMARK    6  A    between atoms: C_18  and  O_20
REMARK    7  A    between atoms: N_22  and  C_23
REMARK    8  A    between atoms: C_27  and  C_28
REMARK    9  A    between atoms: N_30  and  O_31
REMARK                            x       y       z     vdW  Elec       q    Type
REMARK                         _______ _______ _______ _____ _____    ______ ____
ROOT
ATOM      1  C   UNL     1       1.426   8.863  19.273  0.00  0.00    +0.000 A 
ATOM      2  N   UNL     1       1.726   7.623  19.736  0.00  0.00    +0.000 NA
ATOM      3  C   UNL     1       2.667   6.862  19.125  0.00  0.00    +0.000 A 
ATOM      4  C   UNL     1       3.362   7.336  18.010  0.00  0.00    +0.000 A 
ATOM      5  C   UNL     1       3.083   8.608  17.521  0.00  0.00    +0.000 A 
ATOM      6  C   UNL     1       2.106   9.367  18.156  0.00  0.00    +0.000 A 
ATOM      7  F   UNL     1       1.809  10.572  17.644  0.00  0.00    +0.000 F 
ATOM      8  C   UNL     1       4.363   6.470  17.347  0.00  0.00    +0.000 A 
ATOM      9  O   UNL     1       4.974   6.847  16.351  0.00  0.00    +0.000 OA
ATOM     10  C   UNL     1       4.620   5.124  17.908  0.00  0.00    +0.000 A 
ATOM     11  C   UNL     1       3.910   4.773  18.986  0.00  0.00    +0.000 A 
ATOM     12  N   UNL     1       2.941   5.547  19.594  0.00  0.00    +0.000 N 
ENDROOT
BRANCH   1  16
ATOM     13  N   UNL     1      -0.033  13.025  20.661  0.00  0.00    +0.000 NA
ATOM     14  C   UNL     1      -0.158  11.763  20.364  0.00  0.00    +0.000 C 
ATOM     15  C   UNL     1       0.761  10.653  20.800  0.00  0.00    +0.000 C 
ATOM     16  N   UNL     1       0.403   9.556  19.905  0.00  0.00    +0.000 N 
ATOM     17  C   UNL     1      -0.866   9.819  19.209  0.00  0.00    +0.000 C 
ATOM     18  C   UNL     1      -1.327  11.241  19.579  0.00  0.00    +0.000 C 
BRANCH  18  19
ATOM     19  C   UNL     1      -1.756  12.032  18.351  0.00  0.00    +0.000 C 
ATOM     20  N   UNL     1      -0.879  12.900  17.751  0.00  0.00    +0.000 N 
ATOM     21  N   UNL     1      -2.958  11.960  17.840  0.00  0.00    +0.000 NA
ATOM     22  H   UNL     1      -0.181  13.311  18.372  0.00  0.00    +0.000 HD
ATOM     23  H   UNL     1      -1.350  13.590  17.175  0.00  0.00    +0.000 HD
BRANCH  21  24
ATOM     24  O   UNL     1      -3.778  11.079  18.549  0.00  0.00    +0.000 OA
ATOM     25  H   UNL     1      -3.700  10.258  18.026  0.00  0.00    +0.000 HD
ENDBRANCH  21  24
ENDBRANCH  18  19
BRANCH  13  26
ATOM     26  O   UNL     1       1.124  13.228  21.432  0.00  0.00    +0.000 OA
BRANCH  26  28
ATOM     27  C   UNL     1       1.779  14.852  19.800  0.00  0.00    +0.000 C 
ATOM     28  C   UNL     1       1.556  14.579  21.275  0.00  0.00    +0.000 C 
ENDBRANCH  26  28
ENDBRANCH  13  26
ENDBRANCH   1  16
BRANCH  12  29
ATOM     29  C   UNL     1       2.231   5.008  20.767  0.00  0.00    +0.000 C 
ATOM     30  C   UNL     1       1.024   4.113  20.644  0.00  0.00    +0.000 C 
ATOM     31  C   UNL     1       2.321   3.541  21.122  0.00  0.00    +0.000 C 
ENDBRANCH  12  29
BRANCH  10  32
ATOM     32  C   UNL     1       5.576   4.153  17.332  0.00  0.00    +0.000 C 
ATOM     33  O   UNL     1       5.377   3.559  16.282  0.00  0.00    +0.000 OA
BRANCH  32  34
ATOM     34  O   UNL     1       6.704   3.988  18.053  0.00  0.00    +0.000 OA
ATOM     35  H   UNL     1       7.509   4.395  17.652  0.00  0.00    +0.000 HD
ENDBRANCH  32  34
ENDBRANCH  10  32
TORSDOF 8
ENDMDL
MODEL 7
REMARK VINA RESULT:      -7.7      2.644      8.230
REMARK  Name = 
REMARK  9 active torsions:
REMARK  status: ('A' for Active; 'I' for Inactive)
REMARK    1  A    between atoms: C_1  and  C_2
REMARK    2  A    between atoms: C_2  and  O_3
REMARK    3  A    between atoms: O_3  and  N_4
REMARK    4  A    between atoms: N_7  and  C_8
REMARK    5  A    between atoms: C_17  and  C_18
REMARK    6  A    between atoms: C_18  and  O_20
REMARK    7  A    between atoms: N_22  and  C_23
REMARK    8  A    between atoms: C_27  and  C_28
REMARK    9  A    between atoms: N_30  and  O_31
REMARK                            x       y       z     vdW  Elec       q    Type
REMARK                         _______ _______ _______ _____ _____    ______ ____
ROOT
ATOM      1  C   UNL     1       1.689   8.098  19.609  0.00  0.00    +0.000 A 
ATOM      2  N   UNL     1       2.646   7.497  18.859  0.00  0.00    +0.000 NA
ATOM      3  C   UNL     1       3.019   6.216  19.101  0.00  0.00    +0.000 A 
ATOM      4  C   UNL     1       2.420   5.475  20.123  0.00  0.00    +0.000 A 
ATOM      5  C   UNL     1       1.427   6.062  20.901  0.00  0.00    +0.000 A 
ATOM      6  C   UNL     1       1.069   7.381  20.642  0.00  0.00    +0.000 A 
ATOM      7  F   UNL     1       0.147   7.953  21.432  0.00  0.00    +0.000 F 
ATOM      8  C   UNL     1       2.868   4.089  20.384  0.00  0.00    +0.000 A 
ATOM      9  O   UNL     1       2.380   3.419  21.288  0.00  0.00    +0.000 OA
ATOM     10  C   UNL     1       3.929   3.513  19.526  0.00  0.00    +0.000 A 
ATOM     11  C   UNL     1       4.426   4.303  18.568  0.00  0.00    +0.000 A 
ATOM     12  N   UNL     1       4.054   5.613  18.335  0.00  0.00    +0.000 N 
ENDROOT
BRANCH   1  16
ATOM     13  N   UNL     1      -1.608  11.112  18.416  0.00  0.00    +0.000 NA
ATOM     14  C   UNL     1      -0.450  10.747  18.886  0.00  0.00    +0.000 C 
ATOM     15  C   UNL     1       0.486   9.746  18.261  0.00  0.00    +0.000 C 
ATOM     16  N   UNL     1       1.409   9.432  19.349  0.00  0.00    +0.000 N 
ATOM     17  C   UNL     1       1.299  10.404  20.449  0.00  0.00    +0.000 C 
ATOM     18  C   UNL     1       0.140  11.364  20.121  0.00  0.00    +0.000 C 
BRANCH  18  19
ATOM     19  C   UNL     1      -0.782  11.562  21.315  0.00  0.00    +0.000 C 
ATOM     20  N   UNL     1      -0.852  10.605  22.297  0.00  0.00    +0.000 N 
ATOM     21  N   UNL     1      -1.562  12.603  21.450  0.00  0.00    +0.000 NA
ATOM     22  H   UNL     1      -0.657   9.652  21.988  0.00  0.00    +0.000 HD
ATOM     23  H   UNL     1      -1.702  10.675  22.846  0.00  0.00    +0.000 HD
BRANCH  21  24
ATOM     24  O   UNL     1      -1.440  13.493  20.381  0.00  0.00    +0.000 OA
ATOM     25  H   UNL     1      -1.634  12.921  19.613  0.00  0.00    +0.000 HD
ENDBRANCH  21  24
ENDBRANCH  18  19
BRANCH  13  26
ATOM     26  O   UNL     1      -1.897  10.405  17.236  0.00  0.00    +0.000 OA
BRANCH  26  28
ATOM     27  C   UNL     1      -3.002  10.581  15.120  0.00  0.00    +0.000 C 
ATOM     28  C   UNL     1      -2.980  11.045  16.564  0.00  0.00    +0.000 C 
ENDBRANCH  26  28
ENDBRANCH  13  26
ENDBRANCH   1  16
BRANCH  12  29
ATOM     29  C   UNL     1       4.713   6.358  17.248  0.00  0.00    +0.000 C 
ATOM     30  C   UNL     1       6.172   6.183  16.912  0.00  0.00    +0.000 C 
ATOM     31  C   UNL     1       5.130   5.664  15.973  0.00  0.00    +0.000 C 
ENDBRANCH  12  29
BRANCH  10  32
ATOM     32  C   UNL     1       4.484   2.152  19.691  0.00  0.00    +0.000 C 
ATOM     33  O   UNL     1       5.201   1.829  20.626  0.00  0.00    +0.000 OA
BRANCH  32  34
ATOM     34  O   UNL     1       4.114   1.280  18.729  0.00  0.00    +0.000 OA
ATOM     35  H   UNL     1       3.503   0.567  19.037  0.00  0.00    +0.000 HD
ENDBRANCH  32  34
ENDBRANCH  10  32
TORSDOF 8
ENDMDL
MODEL 8
REMARK VINA RESULT:      -7.7      5.222     10.263
REMARK  Name = 
REMARK  9 active torsions:
REMARK  status: ('A' for Active; 'I' for Inactive)
REMARK    1  A    between atoms: C_1  and  C_2
REMARK    2  A    between atoms: C_2  and  O_3
REMARK    3  A    between atoms: O_3  and  N_4
REMARK    4  A    between atoms: N_7  and  C_8
REMARK    5  A    between atoms: C_17  and  C_18
REMARK    6  A    between atoms: C_18  and  O_20
REMARK    7  A    between atoms: N_22  and  C_23
REMARK    8  A    between atoms: C_27  and  C_28
REMARK    9  A    between atoms: N_30  and  O_31
REMARK                            x       y       z     vdW  Elec       q    Type
REMARK                         _______ _______ _______ _____ _____    ______ ____
ROOT
ATOM      1  C   UNL     1      -2.848  12.705  21.526  0.00  0.00    +0.000 A 
ATOM      2  N   UNL     1      -2.719  12.253  20.253  0.00  0.00    +0.000 NA
ATOM      3  C   UNL     1      -1.661  11.486  19.890  0.00  0.00    +0.000 A 
ATOM      4  C   UNL     1      -0.680  11.131  20.818  0.00  0.00    +0.000 A 
ATOM      5  C   UNL     1      -0.792  11.571  22.133  0.00  0.00    +0.000 A 
ATOM      6  C   UNL     1      -1.878  12.366  22.480  0.00  0.00    +0.000 A 
ATOM      7  F   UNL     1      -1.949  12.826  23.739  0.00  0.00    +0.000 F 
ATOM      8  C   UNL     1       0.479  10.318  20.386  0.00  0.00    +0.000 A 
ATOM      9  O   UNL     1       1.371  10.009  21.170  0.00  0.00    +0.000 OA
ATOM     10  C   UNL     1       0.550   9.878  18.974  0.00  0.00    +0.000 A 
ATOM     11  C   UNL     1      -0.449  10.261  18.171  0.00  0.00    +0.000 A 
ATOM     12  N   UNL     1      -1.516  11.055  18.542  0.00  0.00    +0.000 N 
ENDROOT
BRANCH   1  16
ATOM     13  N   UNL     1      -7.088  13.997  20.214  0.00  0.00    +0.000 NA
ATOM     14  C   UNL     1      -6.078  13.899  21.030  0.00  0.00    +0.000 C 
ATOM     15  C   UNL     1      -4.633  14.149  20.688  0.00  0.00    +0.000 C 
ATOM     16  N   UNL     1      -3.918  13.541  21.807  0.00  0.00    +0.000 N 
ATOM     17  C   UNL     1      -4.822  13.251  22.932  0.00  0.00    +0.000 C 
ATOM     18  C   UNL     1      -6.258  13.582  22.487  0.00  0.00    +0.000 C 
BRANCH  18  19
ATOM     19  C   UNL     1      -7.231  12.469  22.848  0.00  0.00    +0.000 C 
ATOM     20  N   UNL     1      -7.453  11.438  21.970  0.00  0.00    +0.000 N 
ATOM     21  N   UNL     1      -7.916  12.453  23.962  0.00  0.00    +0.000 NA
ATOM     22  H   UNL     1      -7.330  11.673  20.984  0.00  0.00    +0.000 HD
ATOM     23  H   UNL     1      -8.325  10.953  22.154  0.00  0.00    +0.000 HD
BRANCH  21  24
ATOM     24  O   UNL     1      -7.643  13.564  24.763  0.00  0.00    +0.000 OA
ATOM     25  H   UNL     1      -8.520  13.766  25.142  0.00  0.00    +0.000 HD
ENDBRANCH  21  24
ENDBRANCH  18  19
BRANCH  13  26
ATOM     26  O   UNL     1      -6.640  14.339  18.927  0.00  0.00    +0.000 OA
BRANCH  26  28
ATOM     27  C   UNL     1      -7.134  12.156  18.079  0.00  0.00    +0.000 C 
ATOM     28  C   UNL     1      -7.422  13.640  17.960  0.00  0.00    +0.000 C 
ENDBRANCH  26  28
ENDBRANCH  13  26
ENDBRANCH   1  16
BRANCH  12  29
ATOM     29  C   UNL     1      -2.528  11.408  17.531  0.00  0.00    +0.000 C 
ATOM     30  C   UNL     1      -2.635  10.694  16.207  0.00  0.00    +0.000 C 
ATOM     31  C   UNL     1      -3.692  10.487  17.244  0.00  0.00    +0.000 C 
ENDBRANCH  12  29
BRANCH  10  32
ATOM     32  C   UNL     1       1.660   9.082  18.406  0.00  0.00    +0.000 C 
ATOM     33  O   UNL     1       2.181   9.332  17.329  0.00  0.00    +0.000 OA
BRANCH  32  34
ATOM     34  O   UNL     1       2.069   8.060  19.187  0.00  0.00    +0.000 OA
ATOM     35  H   UNL     1       3.028   7.838  19.100  0.00  0.00    +0.000 HD
ENDBRANCH  32  34
ENDBRANCH  10  32
TORSDOF 8
ENDMDL
MODEL 9
REMARK VINA RESULT:      -7.0      2.542      8.145
REMARK  Name = 
REMARK  9 active torsions:
REMARK  status: ('A' for Active; 'I' for Inactive)
REMARK    1  A    between atoms: C_1  and  C_2
REMARK    2  A    between atoms: C_2  and  O_3
REMARK    3  A    between atoms: O_3  and  N_4
REMARK    4  A    between atoms: N_7  and  C_8
REMARK    5  A    between atoms: C_17  and  C_18
REMARK    6  A    between atoms: C_18  and  O_20
REMARK    7  A    between atoms: N_22  and  C_23
REMARK    8  A    between atoms: C_27  and  C_28
REMARK    9  A    between atoms: N_30  and  O_31
REMARK                            x       y       z     vdW  Elec       q    Type
REMARK                         _______ _______ _______ _____ _____    ______ ____
ROOT
ATOM      1  C   UNL     1       1.848   7.827  19.899  0.00  0.00    +0.000 A 
ATOM      2  N   UNL     1       2.900   7.299  19.223  0.00  0.00    +0.000 NA
ATOM      3  C   UNL     1       3.224   5.989  19.353  0.00  0.00    +0.000 A 
ATOM      4  C   UNL     1       2.479   5.143  20.178  0.00  0.00    +0.000 A 
ATOM      5  C   UNL     1       1.388   5.655  20.874  0.00  0.00    +0.000 A 
ATOM      6  C   UNL     1       1.081   7.004  20.734  0.00  0.00    +0.000 A 
ATOM      7  F   UNL     1       0.058   7.497  21.450  0.00  0.00    +0.000 F 
ATOM      8  C   UNL     1       2.875   3.725  20.324  0.00  0.00    +0.000 A 
ATOM      9  O   UNL     1       2.256   2.961  21.058  0.00  0.00    +0.000 OA
ATOM     10  C   UNL     1       4.045   3.232  19.561  0.00  0.00    +0.000 A 
ATOM     11  C   UNL     1       4.681   4.122  18.790  0.00  0.00    +0.000 A 
ATOM     12  N   UNL     1       4.356   5.459  18.673  0.00  0.00    +0.000 N 
ENDROOT
BRANCH   1  16
ATOM     13  N   UNL     1      -1.292  11.056  18.857  0.00  0.00    +0.000 NA
ATOM     14  C   UNL     1      -0.174  10.605  19.350  0.00  0.00    +0.000 C 
ATOM     15  C   UNL     1       0.772   9.648  18.673  0.00  0.00    +0.000 C 
ATOM     16  N   UNL     1       1.619   9.190  19.771  0.00  0.00    +0.000 N 
ATOM     17  C   UNL     1       1.467  10.039  20.963  0.00  0.00    +0.000 C 
ATOM     18  C   UNL     1       0.355  11.066  20.677  0.00  0.00    +0.000 C 
BRANCH  18  19
ATOM     19  C   UNL     1      -0.632  11.163  21.831  0.00  0.00    +0.000 C 
ATOM     20  N   UNL     1      -1.813  11.844  21.671  0.00  0.00    +0.000 N 
ATOM     21  N   UNL     1      -0.401  10.653  23.013  0.00  0.00    +0.000 NA
ATOM     22  H   UNL     1      -1.787  12.604  20.990  0.00  0.00    +0.000 HD
ATOM     23  H   UNL     1      -2.224  12.121  22.555  0.00  0.00    +0.000 HD
BRANCH  21  24
ATOM     24  O   UNL     1       0.841  10.018  23.078  0.00  0.00    +0.000 OA
ATOM     25  H   UNL     1       0.758   9.484  23.891  0.00  0.00    +0.000 HD
ENDBRANCH  21  24
ENDBRANCH  18  19
BRANCH  13  26
ATOM     26  O   UNL     1      -1.527  10.490  17.592  0.00  0.00    +0.000 OA
BRANCH  26  28
ATOM     27  C   UNL     1      -3.325  10.140  16.052  0.00  0.00    +0.000 C 
ATOM     28  C   UNL     1      -2.896  10.097  17.505  0.00  0.00    +0.000 C 
ENDBRANCH  26  28
ENDBRANCH  13  26
ENDBRANCH   1  16
BRANCH  12  29
ATOM     29  C   UNL     1       5.169   6.316  17.793  0.00  0.00    +0.000 C 
ATOM     30  C   UNL     1       6.205   5.759  16.849  0.00  0.00    +0.000 C 
ATOM     31  C   UNL     1       4.939   6.336  16.300  0.00  0.00    +0.000 C 
ENDBRANCH  12  29
BRANCH  10  32
ATOM     32  C   UNL     1       4.560   1.847  19.630  0.00  0.00    +0.000 C 
ATOM     33  O   UNL     1       5.262   1.439  20.543  0.00  0.00    +0.000 OA
BRANCH  32  34
ATOM     34  O   UNL     1       4.171   1.057  18.608  0.00  0.00    +0.000 OA
ATOM     35  H   UNL     1       4.746   1.113  17.807  0.00  0.00    +0.000 HD
ENDBRANCH  32  34
ENDBRANCH  10  32
TORSDOF 8
ENDMDL
