MODEL 1
REMARK VINA RESULT:      -6.3      0.000      0.000
REMARK  Name = 
REMARK  8 active torsions:
REMARK  status: ('A' for Active; 'I' for Inactive)
REMARK    1  A    between atoms: C_1  and  C_2
REMARK    2  A    between atoms: C_2  and  C_3
REMARK    3  A    between atoms: C_3  and  C_4
REMARK    4  A    between atoms: C_3  and  C_6
REMARK    5  A    between atoms: C_4  and  C_5
REMARK    6  A    between atoms: N_8  and  C_9
REMARK    7  A    between atoms: N_13  and  C_14
REMARK    8  A    between atoms: N_17  and  C_18
REMARK                            x       y       z     vdW  Elec       q    Type
REMARK                         _______ _______ _______ _____ _____    ______ ____
ROOT
ATOM      1  C   UNL     1       4.344   3.972  19.141  0.00  0.00    +0.000 A 
ATOM      2  C   UNL     1       4.600   3.003  20.027  0.00  0.00    +0.000 A 
ATOM      3  C   UNL     1       3.576   2.506  20.944  0.00  0.00    +0.000 A 
ATOM      4  O   UNL     1       3.857   1.584  21.703  0.00  0.00    +0.000 OA
ATOM      5  N   UNL     1       2.356   3.132  20.875  0.00  0.00    +0.000 N 
ATOM      6  C   UNL     1       1.297   2.672  21.753  0.00  0.00    +0.000 C 
ATOM      7  C   UNL     1       2.064   4.171  20.001  0.00  0.00    +0.000 A 
ATOM      8  O   UNL     1       0.952   4.707  19.996  0.00  0.00    +0.000 OA
ATOM      9  N   UNL     1       3.088   4.562  19.128  0.00  0.00    +0.000 N 
ATOM     10  C   UNL     1       2.749   5.587  18.146  0.00  0.00    +0.000 C 
ENDROOT
BRANCH   1  13
ATOM     11  C   UNL     1       6.446   5.136  18.598  0.00  0.00    +0.000 C 
ATOM     12  O   UNL     1       6.770   5.383  19.762  0.00  0.00    +0.000 OA
ATOM     13  N   UNL     1       5.326   4.399  18.253  0.00  0.00    +0.000 N 
ATOM     14  H   UNL     1       5.283   4.051  17.306  0.00  0.00    +0.000 HD
BRANCH  11  15
ATOM     15  C   UNL     1       7.333   5.587  17.436  0.00  0.00    +0.000 C 
BRANCH  15  17
ATOM     16  C   UNL     1       6.681   5.038  14.982  0.00  0.00    +0.000 C 
ATOM     17  C   UNL     1       7.202   4.530  16.312  0.00  0.00    +0.000 C 
ENDBRANCH  15  17
BRANCH  15  18
ATOM     18  C   UNL     1       6.997   7.025  17.009  0.00  0.00    +0.000 C 
ATOM     19  C   UNL     1       7.835   8.101  17.686  0.00  0.00    +0.000 C 
ENDBRANCH  15  18
ENDBRANCH  11  15
ENDBRANCH   1  13
TORSDOF 4
ENDMDL
MODEL 2
REMARK VINA RESULT:      -6.2      2.596      4.272
REMARK  Name = 
REMARK  8 active torsions:
REMARK  status: ('A' for Active; 'I' for Inactive)
REMARK    1  A    between atoms: C_1  and  C_2
REMARK    2  A    between atoms: C_2  and  C_3
REMARK    3  A    between atoms: C_3  and  C_4
REMARK    4  A    between atoms: C_3  and  C_6
REMARK    5  A    between atoms: C_4  and  C_5
REMARK    6  A    between atoms: N_8  and  C_9
REMARK    7  A    between atoms: N_13  and  C_14
REMARK    8  A    between atoms: N_17  and  C_18
REMARK                            x       y       z     vdW  Elec       q    Type
REMARK                         _______ _______ _______ _____ _____    ______ ____
ROOT
ATOM      1  C   UNL     1       5.264   3.962  16.532  0.00  0.00    +0.000 A 
ATOM      2  C   UNL     1       3.938   3.822  16.646  0.00  0.00    +0.000 A 
ATOM      3  C   UNL     1       3.230   4.161  17.879  0.00  0.00    +0.000 A 
ATOM      4  O   UNL     1       2.008   4.055  17.910  0.00  0.00    +0.000 OA
ATOM      5  N   UNL     1       4.014   4.579  18.925  0.00  0.00    +0.000 N 
ATOM      6  C   UNL     1       3.364   4.942  20.170  0.00  0.00    +0.000 C 
ATOM      7  C   UNL     1       5.397   4.696  18.862  0.00  0.00    +0.000 A 
ATOM      8  O   UNL     1       6.052   5.061  19.841  0.00  0.00    +0.000 OA
ATOM      9  N   UNL     1       5.996   4.388  17.632  0.00  0.00    +0.000 N 
ATOM     10  C   UNL     1       7.436   4.603  17.538  0.00  0.00    +0.000 C 
ENDROOT
BRANCH   1  13
ATOM     11  C   UNL     1       6.121   4.567  14.304  0.00  0.00    +0.000 C 
ATOM     12  O   UNL     1       5.880   5.774  14.388  0.00  0.00    +0.000 OA
ATOM     13  N   UNL     1       5.907   3.668  15.335  0.00  0.00    +0.000 N 
ATOM     14  H   UNL     1       6.356   2.767  15.255  0.00  0.00    +0.000 HD
BRANCH  11  15
ATOM     15  C   UNL     1       6.754   3.991  13.036  0.00  0.00    +0.000 C 
BRANCH  15  17
ATOM     16  C   UNL     1       6.116   2.001  11.492  0.00  0.00    +0.000 C 
ATOM     17  C   UNL     1       5.652   3.213  12.277  0.00  0.00    +0.000 C 
ENDBRANCH  15  17
BRANCH  15  18
ATOM     18  C   UNL     1       7.447   5.090  12.215  0.00  0.00    +0.000 C 
ATOM     19  C   UNL     1       8.653   5.726  12.896  0.00  0.00    +0.000 C 
ENDBRANCH  15  18
ENDBRANCH  11  15
ENDBRANCH   1  13
TORSDOF 4
ENDMDL
MODEL 3
REMARK VINA RESULT:      -6.1      2.223      2.910
REMARK  Name = 
REMARK  8 active torsions:
REMARK  status: ('A' for Active; 'I' for Inactive)
REMARK    1  A    between atoms: C_1  and  C_2
REMARK    2  A    between atoms: C_2  and  C_3
REMARK    3  A    between atoms: C_3  and  C_4
REMARK    4  A    between atoms: C_3  and  C_6
REMARK    5  A    between atoms: C_4  and  C_5
REMARK    6  A    between atoms: N_8  and  C_9
REMARK    7  A    between atoms: N_13  and  C_14
REMARK    8  A    between atoms: N_17  and  C_18
REMARK                            x       y       z     vdW  Elec       q    Type
REMARK                         _______ _______ _______ _____ _____    ______ ____
ROOT
ATOM      1  C   UNL     1       4.113   4.207  17.191  0.00  0.00    +0.000 A 
ATOM      2  C   UNL     1       3.705   3.094  17.811  0.00  0.00    +0.000 A 
ATOM      3  C   UNL     1       2.971   3.140  19.074  0.00  0.00    +0.000 A 
ATOM      4  O   UNL     1       2.583   2.088  19.572  0.00  0.00    +0.000 OA
ATOM      5  N   UNL     1       2.775   4.389  19.608  0.00  0.00    +0.000 N 
ATOM      6  C   UNL     1       2.041   4.496  20.854  0.00  0.00    +0.000 C 
ATOM      7  C   UNL     1       3.220   5.565  19.019  0.00  0.00    +0.000 A 
ATOM      8  O   UNL     1       3.029   6.659  19.555  0.00  0.00    +0.000 OA
ATOM      9  N   UNL     1       3.882   5.438  17.789  0.00  0.00    +0.000 N 
ATOM     10  C   UNL     1       4.264   6.680  17.125  0.00  0.00    +0.000 C 
ENDROOT
BRANCH   1  13
ATOM     11  C   UNL     1       6.149   4.189  15.805  0.00  0.00    +0.000 C 
ATOM     12  O   UNL     1       6.952   4.167  16.741  0.00  0.00    +0.000 OA
ATOM     13  N   UNL     1       4.776   4.137  15.970  0.00  0.00    +0.000 N 
ATOM     14  H   UNL     1       4.226   3.917  15.152  0.00  0.00    +0.000 HD
BRANCH  11  15
ATOM     15  C   UNL     1       6.648   4.204  14.359  0.00  0.00    +0.000 C 
BRANCH  15  17
ATOM     16  C   UNL     1       5.659   3.140  12.205  0.00  0.00    +0.000 C 
ATOM     17  C   UNL     1       5.421   3.987  13.440  0.00  0.00    +0.000 C 
ENDBRANCH  15  17
BRANCH  15  18
ATOM     18  C   UNL     1       7.454   5.479  14.065  0.00  0.00    +0.000 C 
ATOM     19  C   UNL     1       8.183   5.476  12.727  0.00  0.00    +0.000 C 
ENDBRANCH  15  18
ENDBRANCH  11  15
ENDBRANCH   1  13
TORSDOF 4
ENDMDL
MODEL 4
REMARK VINA RESULT:      -6.1      3.183      5.298
REMARK  Name = 
REMARK  8 active torsions:
REMARK  status: ('A' for Active; 'I' for Inactive)
REMARK    1  A    between atoms: C_1  and  C_2
REMARK    2  A    between atoms: C_2  and  C_3
REMARK    3  A    between atoms: C_3  and  C_4
REMARK    4  A    between atoms: C_3  and  C_6
REMARK    5  A    between atoms: C_4  and  C_5
REMARK    6  A    between atoms: N_8  and  C_9
REMARK    7  A    between atoms: N_13  and  C_14
REMARK    8  A    between atoms: N_17  and  C_18
REMARK                            x       y       z     vdW  Elec       q    Type
REMARK                         _______ _______ _______ _____ _____    ______ ____
ROOT
ATOM      1  C   UNL     1       2.627   6.702  18.564  0.00  0.00    +0.000 A 
ATOM      2  C   UNL     1       2.524   7.784  17.783  0.00  0.00    +0.000 A 
ATOM      3  C   UNL     1       1.933   9.030  18.266  0.00  0.00    +0.000 A 
ATOM      4  O   UNL     1       1.907  10.004  17.520  0.00  0.00    +0.000 OA
ATOM      5  N   UNL     1       1.444   9.004  19.549  0.00  0.00    +0.000 N 
ATOM      6  C   UNL     1       0.858  10.217  20.087  0.00  0.00    +0.000 C 
ATOM      7  C   UNL     1       1.492   7.889  20.376  0.00  0.00    +0.000 A 
ATOM      8  O   UNL     1       1.020   7.919  21.516  0.00  0.00    +0.000 OA
ATOM      9  N   UNL     1       2.110   6.745  19.851  0.00  0.00    +0.000 N 
ATOM     10  C   UNL     1       2.245   5.607  20.753  0.00  0.00    +0.000 C 
ENDROOT
BRANCH   1  13
ATOM     11  C   UNL     1       2.555   4.434  17.609  0.00  0.00    +0.000 C 
ATOM     12  O   UNL     1       1.336   4.404  17.419  0.00  0.00    +0.000 OA
ATOM     13  N   UNL     1       3.229   5.542  18.091  0.00  0.00    +0.000 N 
ATOM     14  H   UNL     1       4.234   5.548  17.981  0.00  0.00    +0.000 HD
BRANCH  11  15
ATOM     15  C   UNL     1       3.424   3.228  17.245  0.00  0.00    +0.000 C 
BRANCH  15  17
ATOM     16  C   UNL     1       5.280   4.093  15.646  0.00  0.00    +0.000 C 
ATOM     17  C   UNL     1       4.874   3.737  17.064  0.00  0.00    +0.000 C 
ENDBRANCH  15  17
BRANCH  15  18
ATOM     18  C   UNL     1       3.262   2.098  18.275  0.00  0.00    +0.000 C 
ATOM     19  C   UNL     1       4.023   2.313  19.578  0.00  0.00    +0.000 C 
ENDBRANCH  15  18
ENDBRANCH  11  15
ENDBRANCH   1  13
TORSDOF 4
ENDMDL
MODEL 5
REMARK VINA RESULT:      -6.0      1.431      2.154
REMARK  Name = 
REMARK  8 active torsions:
REMARK  status: ('A' for Active; 'I' for Inactive)
REMARK    1  A    between atoms: C_1  and  C_2
REMARK    2  A    between atoms: C_2  and  C_3
REMARK    3  A    between atoms: C_3  and  C_4
REMARK    4  A    between atoms: C_3  and  C_6
REMARK    5  A    between atoms: C_4  and  C_5
REMARK    6  A    between atoms: N_8  and  C_9
REMARK    7  A    between atoms: N_13  and  C_14
REMARK    8  A    between atoms: N_17  and  C_18
REMARK                            x       y       z     vdW  Elec       q    Type
REMARK                         _______ _______ _______ _____ _____    ______ ____
ROOT
ATOM      1  C   UNL     1       3.740   3.544  18.580  0.00  0.00    +0.000 A 
ATOM      2  C   UNL     1       4.342   2.891  19.581  0.00  0.00    +0.000 A 
ATOM      3  C   UNL     1       3.608   2.455  20.768  0.00  0.00    +0.000 A 
ATOM      4  O   UNL     1       4.202   1.819  21.633  0.00  0.00    +0.000 OA
ATOM      5  N   UNL     1       2.281   2.803  20.813  0.00  0.00    +0.000 N 
ATOM      6  C   UNL     1       1.499   2.384  21.961  0.00  0.00    +0.000 C 
ATOM      7  C   UNL     1       1.630   3.518  19.816  0.00  0.00    +0.000 A 
ATOM      8  O   UNL     1       0.438   3.817  19.920  0.00  0.00    +0.000 OA
ATOM      9  N   UNL     1       2.395   3.866  18.694  0.00  0.00    +0.000 N 
ATOM     10  C   UNL     1       1.687   4.532  17.606  0.00  0.00    +0.000 C 
ENDROOT
BRANCH   1  13
ATOM     11  C   UNL     1       4.932   5.186  17.184  0.00  0.00    +0.000 C 
ATOM     12  O   UNL     1       4.894   6.112  18.000  0.00  0.00    +0.000 OA
ATOM     13  N   UNL     1       4.454   3.914  17.446  0.00  0.00    +0.000 N 
ATOM     14  H   UNL     1       4.747   3.179  16.818  0.00  0.00    +0.000 HD
BRANCH  11  15
ATOM     15  C   UNL     1       5.595   5.385  15.820  0.00  0.00    +0.000 C 
BRANCH  15  17
ATOM     16  C   UNL     1       7.683   4.583  17.140  0.00  0.00    +0.000 C 
ATOM     17  C   UNL     1       7.122   5.479  16.053  0.00  0.00    +0.000 C 
ENDBRANCH  15  17
BRANCH  15  18
ATOM     18  C   UNL     1       5.161   4.291  14.830  0.00  0.00    +0.000 C 
ATOM     19  C   UNL     1       6.197   3.952  13.765  0.00  0.00    +0.000 C 
ENDBRANCH  15  18
ENDBRANCH  11  15
ENDBRANCH   1  13
TORSDOF 4
ENDMDL
MODEL 6
REMARK VINA RESULT:      -6.0      1.943      2.887
REMARK  Name = 
REMARK  8 active torsions:
REMARK  status: ('A' for Active; 'I' for Inactive)
REMARK    1  A    between atoms: C_1  and  C_2
REMARK    2  A    between atoms: C_2  and  C_3
REMARK    3  A    between atoms: C_3  and  C_4
REMARK    4  A    between atoms: C_3  and  C_6
REMARK    5  A    between atoms: C_4  and  C_5
REMARK    6  A    between atoms: N_8  and  C_9
REMARK    7  A    between atoms: N_13  and  C_14
REMARK    8  A    between atoms: N_17  and  C_18
REMARK                            x       y       z     vdW  Elec       q    Type
REMARK                         _______ _______ _______ _____ _____    ______ ____
ROOT
ATOM      1  C   UNL     1       4.141   4.827  18.680  0.00  0.00    +0.000 A 
ATOM      2  C   UNL     1       3.510   5.516  19.639  0.00  0.00    +0.000 A 
ATOM      3  C   UNL     1       2.273   5.032  20.248  0.00  0.00    +0.000 A 
ATOM      4  O   UNL     1       1.764   5.683  21.154  0.00  0.00    +0.000 OA
ATOM      5  N   UNL     1       1.774   3.858  19.739  0.00  0.00    +0.000 N 
ATOM      6  C   UNL     1       0.554   3.323  20.315  0.00  0.00    +0.000 C 
ATOM      7  C   UNL     1       2.374   3.137  18.716  0.00  0.00    +0.000 A 
ATOM      8  O   UNL     1       1.869   2.096  18.287  0.00  0.00    +0.000 OA
ATOM      9  N   UNL     1       3.578   3.648  18.212  0.00  0.00    +0.000 N 
ATOM     10  C   UNL     1       4.257   2.840  17.205  0.00  0.00    +0.000 C 
ENDROOT
BRANCH   1  13
ATOM     11  C   UNL     1       5.448   6.238  17.142  0.00  0.00    +0.000 C 
ATOM     12  O   UNL     1       4.492   6.880  16.700  0.00  0.00    +0.000 OA
ATOM     13  N   UNL     1       5.338   5.291  18.145  0.00  0.00    +0.000 N 
ATOM     14  H   UNL     1       6.194   5.004  18.598  0.00  0.00    +0.000 HD
BRANCH  11  15
ATOM     15  C   UNL     1       6.865   6.514  16.635  0.00  0.00    +0.000 C 
BRANCH  15  17
ATOM     16  C   UNL     1       7.982   8.547  17.804  0.00  0.00    +0.000 C 
ATOM     17  C   UNL     1       7.688   7.059  17.827  0.00  0.00    +0.000 C 
ENDBRANCH  15  17
BRANCH  15  18
ATOM     18  C   UNL     1       7.461   5.270  15.957  0.00  0.00    +0.000 C 
ATOM     19  C   UNL     1       6.658   4.745  14.773  0.00  0.00    +0.000 C 
ENDBRANCH  15  18
ENDBRANCH  11  15
ENDBRANCH   1  13
TORSDOF 4
ENDMDL
MODEL 7
REMARK VINA RESULT:      -5.9      1.386      1.519
REMARK  Name = 
REMARK  8 active torsions:
REMARK  status: ('A' for Active; 'I' for Inactive)
REMARK    1  A    between atoms: C_1  and  C_2
REMARK    2  A    between atoms: C_2  and  C_3
REMARK    3  A    between atoms: C_3  and  C_4
REMARK    4  A    between atoms: C_3  and  C_6
REMARK    5  A    between atoms: C_4  and  C_5
REMARK    6  A    between atoms: N_8  and  C_9
REMARK    7  A    between atoms: N_13  and  C_14
REMARK    8  A    between atoms: N_17  and  C_18
REMARK                            x       y       z     vdW  Elec       q    Type
REMARK                         _______ _______ _______ _____ _____    ______ ____
ROOT
ATOM      1  C   UNL     1       3.797   3.573  18.551  0.00  0.00    +0.000 A 
ATOM      2  C   UNL     1       4.416   2.839  19.483  0.00  0.00    +0.000 A 
ATOM      3  C   UNL     1       3.738   2.415  20.707  0.00  0.00    +0.000 A 
ATOM      4  O   UNL     1       4.342   1.704  21.504  0.00  0.00    +0.000 OA
ATOM      5  N   UNL     1       2.449   2.862  20.863  0.00  0.00    +0.000 N 
ATOM      6  C   UNL     1       1.722   2.462  22.053  0.00  0.00    +0.000 C 
ATOM      7  C   UNL     1       1.787   3.662  19.941  0.00  0.00    +0.000 A 
ATOM      8  O   UNL     1       0.632   4.048  20.144  0.00  0.00    +0.000 OA
ATOM      9  N   UNL     1       2.493   3.992  18.776  0.00  0.00    +0.000 N 
ATOM     10  C   UNL     1       1.763   4.751  17.767  0.00  0.00    +0.000 C 
ENDROOT
BRANCH   1  13
ATOM     11  C   UNL     1       5.742   4.429  17.307  0.00  0.00    +0.000 C 
ATOM     12  O   UNL     1       6.507   4.489  18.272  0.00  0.00    +0.000 OA
ATOM     13  N   UNL     1       4.453   3.930  17.379  0.00  0.00    +0.000 N 
ATOM     14  H   UNL     1       4.003   3.701  16.504  0.00  0.00    +0.000 HD
BRANCH  11  15
ATOM     15  C   UNL     1       6.217   4.856  15.916  0.00  0.00    +0.000 C 
BRANCH  15  17
ATOM     16  C   UNL     1       6.159   3.851  13.522  0.00  0.00    +0.000 C 
ATOM     17  C   UNL     1       6.213   3.597  15.016  0.00  0.00    +0.000 C 
ENDBRANCH  15  17
BRANCH  15  18
ATOM     18  C   UNL     1       5.382   6.031  15.383  0.00  0.00    +0.000 C 
ATOM     19  C   UNL     1       4.964   7.046  16.440  0.00  0.00    +0.000 C 
ENDBRANCH  15  18
ENDBRANCH  11  15
ENDBRANCH   1  13
TORSDOF 4
ENDMDL
MODEL 8
REMARK VINA RESULT:      -5.9      1.344      1.381
REMARK  Name = 
REMARK  8 active torsions:
REMARK  status: ('A' for Active; 'I' for Inactive)
REMARK    1  A    between atoms: C_1  and  C_2
REMARK    2  A    between atoms: C_2  and  C_3
REMARK    3  A    between atoms: C_3  and  C_4
REMARK    4  A    between atoms: C_3  and  C_6
REMARK    5  A    between atoms: C_4  and  C_5
REMARK    6  A    between atoms: N_8  and  C_9
REMARK    7  A    between atoms: N_13  and  C_14
REMARK    8  A    between atoms: N_17  and  C_18
REMARK                            x       y       z     vdW  Elec       q    Type
REMARK                         _______ _______ _______ _____ _____    ______ ____
ROOT
ATOM      1  C   UNL     1       3.839   4.498  18.317  0.00  0.00    +0.000 A 
ATOM      2  C   UNL     1       3.650   3.175  18.373  0.00  0.00    +0.000 A 
ATOM      3  C   UNL     1       2.637   2.577  19.240  0.00  0.00    +0.000 A 
ATOM      4  O   UNL     1       2.477   1.361  19.215  0.00  0.00    +0.000 OA
ATOM      5  N   UNL     1       1.932   3.452  20.029  0.00  0.00    +0.000 N 
ATOM      6  C   UNL     1       0.904   2.916  20.901  0.00  0.00    +0.000 C 
ATOM      7  C   UNL     1       2.129   4.827  20.034  0.00  0.00    +0.000 A 
ATOM      8  O   UNL     1       1.476   5.562  20.779  0.00  0.00    +0.000 OA
ATOM      9  N   UNL     1       3.092   5.324  19.145  0.00  0.00    +0.000 N 
ATOM     10  C   UNL     1       3.229   6.775  19.081  0.00  0.00    +0.000 C 
ENDROOT
BRANCH   1  13
ATOM     11  C   UNL     1       6.154   5.000  17.642  0.00  0.00    +0.000 C 
ATOM     12  O   UNL     1       6.701   4.349  18.536  0.00  0.00    +0.000 OA
ATOM     13  N   UNL     1       4.784   5.044  17.454  0.00  0.00    +0.000 N 
ATOM     14  H   UNL     1       4.456   5.397  16.567  0.00  0.00    +0.000 HD
BRANCH  11  15
ATOM     15  C   UNL     1       6.994   5.763  16.617  0.00  0.00    +0.000 C 
BRANCH  15  17
ATOM     16  C   UNL     1       6.567   4.201  14.586  0.00  0.00    +0.000 C 
ATOM     17  C   UNL     1       6.339   5.555  15.230  0.00  0.00    +0.000 C 
ENDBRANCH  15  17
BRANCH  15  18
ATOM     18  C   UNL     1       7.171   7.233  17.031  0.00  0.00    +0.000 C 
ATOM     19  C   UNL     1       8.067   7.448  18.244  0.00  0.00    +0.000 C 
ENDBRANCH  15  18
ENDBRANCH  11  15
ENDBRANCH   1  13
TORSDOF 4
ENDMDL
MODEL 9
REMARK VINA RESULT:      -5.9      1.328      2.010
REMARK  Name = 
REMARK  8 active torsions:
REMARK  status: ('A' for Active; 'I' for Inactive)
REMARK    1  A    between atoms: C_1  and  C_2
REMARK    2  A    between atoms: C_2  and  C_3
REMARK    3  A    between atoms: C_3  and  C_4
REMARK    4  A    between atoms: C_3  and  C_6
REMARK    5  A    between atoms: C_4  and  C_5
REMARK    6  A    between atoms: N_8  and  C_9
REMARK    7  A    between atoms: N_13  and  C_14
REMARK    8  A    between atoms: N_17  and  C_18
REMARK                            x       y       z     vdW  Elec       q    Type
REMARK                         _______ _______ _______ _____ _____    ______ ____
ROOT
ATOM      1  C   UNL     1       4.013   4.490  18.700  0.00  0.00    +0.000 A 
ATOM      2  C   UNL     1       3.382   5.360  19.497  0.00  0.00    +0.000 A 
ATOM      3  C   UNL     1       2.207   4.979  20.277  0.00  0.00    +0.000 A 
ATOM      4  O   UNL     1       1.698   5.807  21.026  0.00  0.00    +0.000 OA
ATOM      5  N   UNL     1       1.762   3.692  20.101  0.00  0.00    +0.000 N 
ATOM      6  C   UNL     1       0.606   3.254  20.860  0.00  0.00    +0.000 C 
ATOM      7  C   UNL     1       2.361   2.772  19.250  0.00  0.00    +0.000 A 
ATOM      8  O   UNL     1       1.905   1.634  19.119  0.00  0.00    +0.000 OA
ATOM      9  N   UNL     1       3.506   3.204  18.567  0.00  0.00    +0.000 N 
ATOM     10  C   UNL     1       4.190   2.208  17.749  0.00  0.00    +0.000 C 
ENDROOT
BRANCH   1  13
ATOM     11  C   UNL     1       6.358   5.232  18.573  0.00  0.00    +0.000 C 
ATOM     12  O   UNL     1       6.599   5.132  19.779  0.00  0.00    +0.000 OA
ATOM     13  N   UNL     1       5.152   4.868  17.998  0.00  0.00    +0.000 N 
ATOM     14  H   UNL     1       5.140   4.759  16.994  0.00  0.00    +0.000 HD
BRANCH  11  15
ATOM     15  C   UNL     1       7.440   5.716  17.606  0.00  0.00    +0.000 C 
BRANCH  15  17
ATOM     16  C   UNL     1       6.978   5.104  15.124  0.00  0.00    +0.000 C 
ATOM     17  C   UNL     1       7.544   4.676  16.464  0.00  0.00    +0.000 C 
ENDBRANCH  15  17
BRANCH  15  18
ATOM     18  C   UNL     1       7.163   7.155  17.141  0.00  0.00    +0.000 C 
ATOM     19  C   UNL     1       7.997   8.221  17.842  0.00  0.00    +0.000 C 
ENDBRANCH  15  18
ENDBRANCH  11  15
ENDBRANCH   1  13
TORSDOF 4
ENDMDL
