MODEL 1
REMARK VINA RESULT:      -6.6      0.000      0.000
REMARK  Name = 
REMARK  8 active torsions:
REMARK  status: ('A' for Active; 'I' for Inactive)
REMARK    1  A    between atoms: C_1  and  C_2
REMARK    2  A    between atoms: C_2  and  N_3
REMARK    3  A    between atoms: C_4  and  S_5
REMARK    4  A    between atoms: S_5  and  C_6
REMARK    5  A    between atoms: C_6  and  C_7
REMARK    6  A    between atoms: N_9  and  C_10
REMARK    7  A    between atoms: C_10  and  C_11
REMARK    8  A    between atoms: C_18  and  C_19
REMARK                            x       y       z     vdW  Elec       q    Type
REMARK                         _______ _______ _______ _____ _____    ______ ____
ROOT
ATOM      1  N   UNL     1       4.843   5.283  17.844  0.00  0.00    +0.000 N 
ATOM      2  C   UNL     1       6.216   5.222  17.784  0.00  0.00    +0.000 A 
ATOM      3  N   UNL     1       6.663   4.349  18.652  0.00  0.00    +0.000 NA
ATOM      4  N   UNL     1       5.587   3.836  19.331  0.00  0.00    +0.000 NA
ATOM      5  C   UNL     1       4.485   4.390  18.855  0.00  0.00    +0.000 A 
ENDROOT
BRANCH   5   6
ATOM      6  C   UNL     1       3.165   4.111  19.371  0.00  0.00    +0.000 A 
ATOM      7  C   UNL     1       2.339   3.021  19.151  0.00  0.00    +0.000 A 
ATOM      8  C   UNL     1       1.076   3.132  19.808  0.00  0.00    +0.000 A 
ATOM      9  C   UNL     1       0.985   4.284  20.551  0.00  0.00    +0.000 A 
ATOM     10  S   UNL     1       2.410   5.221  20.449  0.00  0.00    +0.000 S 
ENDBRANCH   5   6
BRANCH   1  12
ATOM     11  C   UNL     1       3.453   7.451  17.584  0.00  0.00    +0.000 C 
ATOM     12  C   UNL     1       3.877   6.072  17.108  0.00  0.00    +0.000 C 
ENDBRANCH   1  12
BRANCH   2  13
ATOM     13  S   UNL     1       7.227   6.150  16.728  0.00  0.00    +0.000 S 
BRANCH  13  14
ATOM     14  C   UNL     1       6.938   7.853  17.280  0.00  0.00    +0.000 C 
BRANCH  14  15
ATOM     15  C   UNL     1       8.058   8.252  18.235  0.00  0.00    +0.000 C 
ATOM     16  O   UNL     1       8.663   7.430  18.920  0.00  0.00    +0.000 OA
ATOM     17  N   UNL     1       8.334   9.605  18.283  0.00  0.00    +0.000 N 
ATOM     18  H   UNL     1       7.644  10.251  17.922  0.00  0.00    +0.000 HD
BRANCH  17  19
ATOM     19  C   UNL     1       9.294  10.123  19.236  0.00  0.00    +0.000 C 
BRANCH  19  20
ATOM     20  C   UNL     1      10.006  11.295  18.638  0.00  0.00    +0.000 A 
ATOM     21  C   UNL     1       9.524  12.201  17.710  0.00  0.00    +0.000 A 
ATOM     22  C   UNL     1      10.507  13.156  17.321  0.00  0.00    +0.000 A 
ATOM     23  C   UNL     1      11.705  12.957  17.970  0.00  0.00    +0.000 A 
ATOM     24  S   UNL     1      11.635  11.633  19.051  0.00  0.00    +0.000 S 
ENDBRANCH  19  20
ENDBRANCH  17  19
ENDBRANCH  14  15
ENDBRANCH  13  14
ENDBRANCH   2  13
TORSDOF 7
ENDMDL
MODEL 2
REMARK VINA RESULT:      -6.5      4.979      7.546
REMARK  Name = 
REMARK  8 active torsions:
REMARK  status: ('A' for Active; 'I' for Inactive)
REMARK    1  A    between atoms: C_1  and  C_2
REMARK    2  A    between atoms: C_2  and  N_3
REMARK    3  A    between atoms: C_4  and  S_5
REMARK    4  A    between atoms: S_5  and  C_6
REMARK    5  A    between atoms: C_6  and  C_7
REMARK    6  A    between atoms: N_9  and  C_10
REMARK    7  A    between atoms: C_10  and  C_11
REMARK    8  A    between atoms: C_18  and  C_19
REMARK                            x       y       z     vdW  Elec       q    Type
REMARK                         _______ _______ _______ _____ _____    ______ ____
ROOT
ATOM      1  N   UNL     1       1.638   8.246  19.946  0.00  0.00    +0.000 N 
ATOM      2  C   UNL     1       2.213   7.086  19.481  0.00  0.00    +0.000 A 
ATOM      3  N   UNL     1       2.448   7.188  18.195  0.00  0.00    +0.000 NA
ATOM      4  N   UNL     1       1.998   8.415  17.779  0.00  0.00    +0.000 NA
ATOM      5  C   UNL     1       1.508   9.061  18.822  0.00  0.00    +0.000 A 
ENDROOT
BRANCH   5   6
ATOM      6  C   UNL     1       0.908  10.373  18.738  0.00  0.00    +0.000 A 
ATOM      7  C   UNL     1       1.490  11.625  18.847  0.00  0.00    +0.000 A 
ATOM      8  C   UNL     1       0.549  12.694  18.752  0.00  0.00    +0.000 A 
ATOM      9  C   UNL     1      -0.726  12.234  18.527  0.00  0.00    +0.000 A 
ATOM     10  S   UNL     1      -0.781  10.528  18.437  0.00  0.00    +0.000 S 
ENDBRANCH   5   6
BRANCH   1  12
ATOM     11  C   UNL     1      -0.269   8.544  21.672  0.00  0.00    +0.000 C 
ATOM     12  C   UNL     1       1.192   8.642  21.267  0.00  0.00    +0.000 C 
ENDBRANCH   1  12
BRANCH   2  13
ATOM     13  S   UNL     1       2.582   5.685  20.429  0.00  0.00    +0.000 S 
BRANCH  13  14
ATOM     14  C   UNL     1       1.321   4.494  19.903  0.00  0.00    +0.000 C 
BRANCH  14  15
ATOM     15  C   UNL     1       1.800   3.808  18.629  0.00  0.00    +0.000 C 
ATOM     16  O   UNL     1       1.050   3.141  17.918  0.00  0.00    +0.000 OA
ATOM     17  N   UNL     1       3.141   3.978  18.339  0.00  0.00    +0.000 N 
ATOM     18  H   UNL     1       3.758   4.290  19.077  0.00  0.00    +0.000 HD
BRANCH  17  19
ATOM     19  C   UNL     1       3.743   3.279  17.222  0.00  0.00    +0.000 C 
BRANCH  19  20
ATOM     20  C   UNL     1       5.043   3.930  16.871  0.00  0.00    +0.000 A 
ATOM     21  C   UNL     1       5.695   3.927  15.651  0.00  0.00    +0.000 A 
ATOM     22  C   UNL     1       6.948   4.603  15.702  0.00  0.00    +0.000 A 
ATOM     23  C   UNL     1       7.211   5.109  16.955  0.00  0.00    +0.000 A 
ATOM     24  S   UNL     1       5.944   4.779  18.057  0.00  0.00    +0.000 S 
ENDBRANCH  19  20
ENDBRANCH  17  19
ENDBRANCH  14  15
ENDBRANCH  13  14
ENDBRANCH   2  13
TORSDOF 7
ENDMDL
MODEL 3
REMARK VINA RESULT:      -6.4      1.864      2.225
REMARK  Name = 
REMARK  8 active torsions:
REMARK  status: ('A' for Active; 'I' for Inactive)
REMARK    1  A    between atoms: C_1  and  C_2
REMARK    2  A    between atoms: C_2  and  N_3
REMARK    3  A    between atoms: C_4  and  S_5
REMARK    4  A    between atoms: S_5  and  C_6
REMARK    5  A    between atoms: C_6  and  C_7
REMARK    6  A    between atoms: N_9  and  C_10
REMARK    7  A    between atoms: C_10  and  C_11
REMARK    8  A    between atoms: C_18  and  C_19
REMARK                            x       y       z     vdW  Elec       q    Type
REMARK                         _______ _______ _______ _____ _____    ______ ____
ROOT
ATOM      1  N   UNL     1       4.857   5.739  18.094  0.00  0.00    +0.000 N 
ATOM      2  C   UNL     1       6.228   5.789  18.202  0.00  0.00    +0.000 A 
ATOM      3  N   UNL     1       6.644   4.876  19.045  0.00  0.00    +0.000 NA
ATOM      4  N   UNL     1       5.544   4.223  19.538  0.00  0.00    +0.000 NA
ATOM      5  C   UNL     1       4.462   4.732  18.975  0.00  0.00    +0.000 A 
ENDROOT
BRANCH   5   6
ATOM      6  C   UNL     1       3.120   4.306  19.297  0.00  0.00    +0.000 A 
ATOM      7  C   UNL     1       2.263   4.748  20.292  0.00  0.00    +0.000 A 
ATOM      8  C   UNL     1       1.023   4.042  20.320  0.00  0.00    +0.000 A 
ATOM      9  C   UNL     1       0.943   3.107  19.316  0.00  0.00    +0.000 A 
ATOM     10  S   UNL     1       2.356   3.082  18.356  0.00  0.00    +0.000 S 
ENDBRANCH   5   6
BRANCH   1  12
ATOM     11  C   UNL     1       3.134   7.664  17.923  0.00  0.00    +0.000 C 
ATOM     12  C   UNL     1       3.920   6.517  17.310  0.00  0.00    +0.000 C 
ENDBRANCH   1  12
BRANCH   2  13
ATOM     13  S   UNL     1       7.272   6.885  17.361  0.00  0.00    +0.000 S 
BRANCH  13  14
ATOM     14  C   UNL     1       8.247   7.626  18.698  0.00  0.00    +0.000 C 
BRANCH  14  15
ATOM     15  C   UNL     1       8.466   9.102  18.381  0.00  0.00    +0.000 C 
ATOM     16  O   UNL     1       7.843   9.684  17.496  0.00  0.00    +0.000 OA
ATOM     17  N   UNL     1       9.425   9.731  19.151  0.00  0.00    +0.000 N 
ATOM     18  H   UNL     1      10.087   9.160  19.659  0.00  0.00    +0.000 HD
BRANCH  17  19
ATOM     19  C   UNL     1       9.810  11.099  18.867  0.00  0.00    +0.000 C 
BRANCH  19  20
ATOM     20  C   UNL     1       9.402  11.977  20.008  0.00  0.00    +0.000 A 
ATOM     21  C   UNL     1       9.485  11.707  21.362  0.00  0.00    +0.000 A 
ATOM     22  C   UNL     1       8.945  12.756  22.160  0.00  0.00    +0.000 A 
ATOM     23  C   UNL     1       8.475  13.798  21.394  0.00  0.00    +0.000 A 
ATOM     24  S   UNL     1       8.698  13.513  19.721  0.00  0.00    +0.000 S 
ENDBRANCH  19  20
ENDBRANCH  17  19
ENDBRANCH  14  15
ENDBRANCH  13  14
ENDBRANCH   2  13
TORSDOF 7
ENDMDL
MODEL 4
REMARK VINA RESULT:      -6.4      4.075      7.023
REMARK  Name = 
REMARK  8 active torsions:
REMARK  status: ('A' for Active; 'I' for Inactive)
REMARK    1  A    between atoms: C_1  and  C_2
REMARK    2  A    between atoms: C_2  and  N_3
REMARK    3  A    between atoms: C_4  and  S_5
REMARK    4  A    between atoms: S_5  and  C_6
REMARK    5  A    between atoms: C_6  and  C_7
REMARK    6  A    between atoms: N_9  and  C_10
REMARK    7  A    between atoms: C_10  and  C_11
REMARK    8  A    between atoms: C_18  and  C_19
REMARK                            x       y       z     vdW  Elec       q    Type
REMARK                         _______ _______ _______ _____ _____    ______ ____
ROOT
ATOM      1  N   UNL     1       1.579   8.386  19.896  0.00  0.00    +0.000 N 
ATOM      2  C   UNL     1       2.068   7.188  19.428  0.00  0.00    +0.000 A 
ATOM      3  N   UNL     1       2.339   7.284  18.150  0.00  0.00    +0.000 NA
ATOM      4  N   UNL     1       2.002   8.548  17.739  0.00  0.00    +0.000 NA
ATOM      5  C   UNL     1       1.543   9.222  18.780  0.00  0.00    +0.000 A 
ENDROOT
BRANCH   5   6
ATOM      6  C   UNL     1       1.055  10.579  18.699  0.00  0.00    +0.000 A 
ATOM      7  C   UNL     1       1.755  11.775  18.685  0.00  0.00    +0.000 A 
ATOM      8  C   UNL     1       0.907  12.922  18.642  0.00  0.00    +0.000 A 
ATOM      9  C   UNL     1      -0.421  12.575  18.578  0.00  0.00    +0.000 A 
ATOM     10  S   UNL     1      -0.636  10.880  18.576  0.00  0.00    +0.000 S 
ENDBRANCH   5   6
BRANCH   1  12
ATOM     11  C   UNL     1      -0.295   8.593  21.670  0.00  0.00    +0.000 C 
ATOM     12  C   UNL     1       1.139   8.803  21.211  0.00  0.00    +0.000 C 
ENDBRANCH   1  12
BRANCH   2  13
ATOM     13  S   UNL     1       2.298   5.751  20.367  0.00  0.00    +0.000 S 
BRANCH  13  14
ATOM     14  C   UNL     1       1.891   4.429  19.194  0.00  0.00    +0.000 C 
BRANCH  14  15
ATOM     15  C   UNL     1       3.189   3.873  18.618  0.00  0.00    +0.000 C 
ATOM     16  O   UNL     1       3.897   3.081  19.236  0.00  0.00    +0.000 OA
ATOM     17  N   UNL     1       3.517   4.334  17.357  0.00  0.00    +0.000 N 
ATOM     18  H   UNL     1       3.062   5.172  17.017  0.00  0.00    +0.000 HD
BRANCH  17  19
ATOM     19  C   UNL     1       4.782   3.973  16.752  0.00  0.00    +0.000 C 
BRANCH  19  20
ATOM     20  C   UNL     1       5.827   4.965  17.154  0.00  0.00    +0.000 A 
ATOM     21  C   UNL     1       6.954   4.750  17.927  0.00  0.00    +0.000 A 
ATOM     22  C   UNL     1       7.694   5.945  18.156  0.00  0.00    +0.000 A 
ATOM     23  C   UNL     1       7.116   7.035  17.545  0.00  0.00    +0.000 A 
ATOM     24  S   UNL     1       5.697   6.610  16.689  0.00  0.00    +0.000 S 
ENDBRANCH  19  20
ENDBRANCH  17  19
ENDBRANCH  14  15
ENDBRANCH  13  14
ENDBRANCH   2  13
TORSDOF 7
ENDMDL
MODEL 5
REMARK VINA RESULT:      -6.3      4.874      6.470
REMARK  Name = 
REMARK  8 active torsions:
REMARK  status: ('A' for Active; 'I' for Inactive)
REMARK    1  A    between atoms: C_1  and  C_2
REMARK    2  A    between atoms: C_2  and  N_3
REMARK    3  A    between atoms: C_4  and  S_5
REMARK    4  A    between atoms: S_5  and  C_6
REMARK    5  A    between atoms: C_6  and  C_7
REMARK    6  A    between atoms: N_9  and  C_10
REMARK    7  A    between atoms: C_10  and  C_11
REMARK    8  A    between atoms: C_18  and  C_19
REMARK                            x       y       z     vdW  Elec       q    Type
REMARK                         _______ _______ _______ _____ _____    ______ ____
ROOT
ATOM      1  N   UNL     1       2.308   6.075  19.390  0.00  0.00    +0.000 N 
ATOM      2  C   UNL     1       3.081   5.651  18.333  0.00  0.00    +0.000 A 
ATOM      3  N   UNL     1       3.499   6.684  17.643  0.00  0.00    +0.000 NA
ATOM      4  N   UNL     1       2.978   7.816  18.216  0.00  0.00    +0.000 NA
ATOM      5  C   UNL     1       2.259   7.463  19.268  0.00  0.00    +0.000 A 
ENDROOT
BRANCH   5   6
ATOM      6  C   UNL     1       1.529   8.404  20.086  0.00  0.00    +0.000 A 
ATOM      7  C   UNL     1       1.316   8.412  21.455  0.00  0.00    +0.000 A 
ATOM      8  C   UNL     1       0.495   9.496  21.890  0.00  0.00    +0.000 A 
ATOM      9  C   UNL     1       0.136  10.316  20.848  0.00  0.00    +0.000 A 
ATOM     10  S   UNL     1       0.782   9.777  19.361  0.00  0.00    +0.000 S 
ENDBRANCH   5   6
BRANCH   1  12
ATOM     11  C   UNL     1       2.336   4.305  21.279  0.00  0.00    +0.000 C 
ATOM     12  C   UNL     1       1.620   5.348  20.437  0.00  0.00    +0.000 C 
ENDBRANCH   1  12
BRANCH   2  13
ATOM     13  S   UNL     1       3.461   4.006  17.950  0.00  0.00    +0.000 S 
BRANCH  13  14
ATOM     14  C   UNL     1       5.025   3.735  18.827  0.00  0.00    +0.000 C 
BRANCH  14  15
ATOM     15  C   UNL     1       6.152   4.373  18.022  0.00  0.00    +0.000 C 
ATOM     16  O   UNL     1       7.187   4.778  18.547  0.00  0.00    +0.000 OA
ATOM     17  N   UNL     1       5.918   4.476  16.664  0.00  0.00    +0.000 N 
ATOM     18  H   UNL     1       4.967   4.388  16.331  0.00  0.00    +0.000 HD
BRANCH  17  19
ATOM     19  C   UNL     1       6.860   5.170  15.810  0.00  0.00    +0.000 C 
BRANCH  19  20
ATOM     20  C   UNL     1       6.732   4.657  14.410  0.00  0.00    +0.000 A 
ATOM     21  C   UNL     1       5.775   3.797  13.902  0.00  0.00    +0.000 A 
ATOM     22  C   UNL     1       6.002   3.478  12.533  0.00  0.00    +0.000 A 
ATOM     23  C   UNL     1       7.118   4.110  12.034  0.00  0.00    +0.000 A 
ATOM     24  S   UNL     1       7.877   5.093  13.211  0.00  0.00    +0.000 S 
ENDBRANCH  19  20
ENDBRANCH  17  19
ENDBRANCH  14  15
ENDBRANCH  13  14
ENDBRANCH   2  13
TORSDOF 7
ENDMDL
MODEL 6
REMARK VINA RESULT:      -6.3      4.990      7.567
REMARK  Name = 
REMARK  8 active torsions:
REMARK  status: ('A' for Active; 'I' for Inactive)
REMARK    1  A    between atoms: C_1  and  C_2
REMARK    2  A    between atoms: C_2  and  N_3
REMARK    3  A    between atoms: C_4  and  S_5
REMARK    4  A    between atoms: S_5  and  C_6
REMARK    5  A    between atoms: C_6  and  C_7
REMARK    6  A    between atoms: N_9  and  C_10
REMARK    7  A    between atoms: C_10  and  C_11
REMARK    8  A    between atoms: C_18  and  C_19
REMARK                            x       y       z     vdW  Elec       q    Type
REMARK                         _______ _______ _______ _____ _____    ______ ____
ROOT
ATOM      1  N   UNL     1       1.579   8.618  19.670  0.00  0.00    +0.000 N 
ATOM      2  C   UNL     1       2.265   7.588  19.069  0.00  0.00    +0.000 A 
ATOM      3  N   UNL     1       2.391   7.823  17.786  0.00  0.00    +0.000 NA
ATOM      4  N   UNL     1       1.756   9.007  17.508  0.00  0.00    +0.000 NA
ATOM      5  C   UNL     1       1.263   9.495  18.632  0.00  0.00    +0.000 A 
ENDROOT
BRANCH   5   6
ATOM      6  C   UNL     1       0.492  10.715  18.701  0.00  0.00    +0.000 A 
ATOM      7  C   UNL     1      -0.855  10.929  18.458  0.00  0.00    +0.000 A 
ATOM      8  C   UNL     1      -1.239  12.298  18.586  0.00  0.00    +0.000 A 
ATOM      9  C   UNL     1      -0.185  13.092  18.968  0.00  0.00    +0.000 A 
ATOM     10  S   UNL     1       1.253  12.190  19.164  0.00  0.00    +0.000 S 
ENDBRANCH   5   6
BRANCH   1  12
ATOM     11  C   UNL     1      -0.251   8.628  21.502  0.00  0.00    +0.000 C 
ATOM     12  C   UNL     1       1.182   8.844  21.045  0.00  0.00    +0.000 C 
ENDBRANCH   1  12
BRANCH   2  13
ATOM     13  S   UNL     1       2.881   6.180  19.866  0.00  0.00    +0.000 S 
BRANCH  13  14
ATOM     14  C   UNL     1       1.628   4.922  19.497  0.00  0.00    +0.000 C 
BRANCH  14  15
ATOM     15  C   UNL     1       2.118   4.076  18.327  0.00  0.00    +0.000 C 
ATOM     16  O   UNL     1       1.355   3.399  17.640  0.00  0.00    +0.000 OA
ATOM     17  N   UNL     1       3.481   4.115  18.104  0.00  0.00    +0.000 N 
ATOM     18  H   UNL     1       4.081   4.454  18.844  0.00  0.00    +0.000 HD
BRANCH  17  19
ATOM     19  C   UNL     1       4.083   3.263  17.099  0.00  0.00    +0.000 C 
BRANCH  19  20
ATOM     20  C   UNL     1       5.201   3.997  16.429  0.00  0.00    +0.000 A 
ATOM     21  C   UNL     1       5.376   4.233  15.077  0.00  0.00    +0.000 A 
ATOM     22  C   UNL     1       6.593   4.919  14.797  0.00  0.00    +0.000 A 
ATOM     23  C   UNL     1       7.305   5.194  15.942  0.00  0.00    +0.000 A 
ATOM     24  S   UNL     1       6.500   4.639  17.346  0.00  0.00    +0.000 S 
ENDBRANCH  19  20
ENDBRANCH  17  19
ENDBRANCH  14  15
ENDBRANCH  13  14
ENDBRANCH   2  13
TORSDOF 7
ENDMDL
MODEL 7
REMARK VINA RESULT:      -6.2      1.127      1.282
REMARK  Name = 
REMARK  8 active torsions:
REMARK  status: ('A' for Active; 'I' for Inactive)
REMARK    1  A    between atoms: C_1  and  C_2
REMARK    2  A    between atoms: C_2  and  N_3
REMARK    3  A    between atoms: C_4  and  S_5
REMARK    4  A    between atoms: S_5  and  C_6
REMARK    5  A    between atoms: C_6  and  C_7
REMARK    6  A    between atoms: N_9  and  C_10
REMARK    7  A    between atoms: C_10  and  C_11
REMARK    8  A    between atoms: C_18  and  C_19
REMARK                            x       y       z     vdW  Elec       q    Type
REMARK                         _______ _______ _______ _____ _____    ______ ____
ROOT
ATOM      1  N   UNL     1       4.853   5.550  18.116  0.00  0.00    +0.000 N 
ATOM      2  C   UNL     1       6.214   5.752  18.114  0.00  0.00    +0.000 A 
ATOM      3  N   UNL     1       6.795   4.886  18.908  0.00  0.00    +0.000 NA
ATOM      4  N   UNL     1       5.817   4.112  19.479  0.00  0.00    +0.000 NA
ATOM      5  C   UNL     1       4.644   4.501  19.011  0.00  0.00    +0.000 A 
ENDROOT
BRANCH   5   6
ATOM      6  C   UNL     1       3.387   3.927  19.433  0.00  0.00    +0.000 A 
ATOM      7  C   UNL     1       2.771   2.752  19.036  0.00  0.00    +0.000 A 
ATOM      8  C   UNL     1       1.499   2.548  19.652  0.00  0.00    +0.000 A 
ATOM      9  C   UNL     1       1.195   3.551  20.540  0.00  0.00    +0.000 A 
ATOM     10  S   UNL     1       2.431   4.727  20.622  0.00  0.00    +0.000 S 
ENDBRANCH   5   6
BRANCH   1  12
ATOM     11  C   UNL     1       3.214   7.545  17.918  0.00  0.00    +0.000 C 
ATOM     12  C   UNL     1       3.775   6.223  17.420  0.00  0.00    +0.000 C 
ENDBRANCH   1  12
BRANCH   2  13
ATOM     13  S   UNL     1       7.059   6.961  17.208  0.00  0.00    +0.000 S 
BRANCH  13  14
ATOM     14  C   UNL     1       8.339   7.517  18.366  0.00  0.00    +0.000 C 
BRANCH  14  15
ATOM     15  C   UNL     1       8.233   9.030  18.521  0.00  0.00    +0.000 C 
ATOM     16  O   UNL     1       7.563   9.724  17.759  0.00  0.00    +0.000 OA
ATOM     17  N   UNL     1       8.954   9.565  19.572  0.00  0.00    +0.000 N 
ATOM     18  H   UNL     1       9.689   9.006  19.986  0.00  0.00    +0.000 HD
BRANCH  17  19
ATOM     19  C   UNL     1       9.030  11.000  19.752  0.00  0.00    +0.000 C 
BRANCH  19  20
ATOM     20  C   UNL     1      10.173  11.541  18.954  0.00  0.00    +0.000 A 
ATOM     21  C   UNL     1      11.525  11.314  19.141  0.00  0.00    +0.000 A 
ATOM     22  C   UNL     1      12.332  12.045  18.223  0.00  0.00    +0.000 A 
ATOM     23  C   UNL     1      11.574  12.801  17.358  0.00  0.00    +0.000 A 
ATOM     24  S   UNL     1       9.897  12.616  17.647  0.00  0.00    +0.000 S 
ENDBRANCH  19  20
ENDBRANCH  17  19
ENDBRANCH  14  15
ENDBRANCH  13  14
ENDBRANCH   2  13
TORSDOF 7
ENDMDL
MODEL 8
REMARK VINA RESULT:      -6.2      1.457      1.608
REMARK  Name = 
REMARK  8 active torsions:
REMARK  status: ('A' for Active; 'I' for Inactive)
REMARK    1  A    between atoms: C_1  and  C_2
REMARK    2  A    between atoms: C_2  and  N_3
REMARK    3  A    between atoms: C_4  and  S_5
REMARK    4  A    between atoms: S_5  and  C_6
REMARK    5  A    between atoms: C_6  and  C_7
REMARK    6  A    between atoms: N_9  and  C_10
REMARK    7  A    between atoms: C_10  and  C_11
REMARK    8  A    between atoms: C_18  and  C_19
REMARK                            x       y       z     vdW  Elec       q    Type
REMARK                         _______ _______ _______ _____ _____    ______ ____
ROOT
ATOM      1  N   UNL     1       3.779   5.618  18.317  0.00  0.00    +0.000 N 
ATOM      2  C   UNL     1       5.044   5.796  17.806  0.00  0.00    +0.000 A 
ATOM      3  N   UNL     1       5.787   4.751  18.078  0.00  0.00    +0.000 NA
ATOM      4  N   UNL     1       5.029   3.871  18.808  0.00  0.00    +0.000 NA
ATOM      5  C   UNL     1       3.819   4.380  18.960  0.00  0.00    +0.000 A 
ENDROOT
BRANCH   5   6
ATOM      6  C   UNL     1       2.772   3.735  19.717  0.00  0.00    +0.000 A 
ATOM      7  C   UNL     1       2.539   3.729  21.083  0.00  0.00    +0.000 A 
ATOM      8  C   UNL     1       1.418   2.929  21.459  0.00  0.00    +0.000 A 
ATOM      9  C   UNL     1       0.793   2.380  20.366  0.00  0.00    +0.000 A 
ATOM     10  S   UNL     1       1.559   2.823  18.904  0.00  0.00    +0.000 S 
ENDBRANCH   5   6
BRANCH   1  12
ATOM     11  C   UNL     1       2.270   7.396  19.441  0.00  0.00    +0.000 C 
ATOM     12  C   UNL     1       2.599   6.458  18.292  0.00  0.00    +0.000 C 
ENDBRANCH   1  12
BRANCH   2  13
ATOM     13  S   UNL     1       5.598   7.183  16.930  0.00  0.00    +0.000 S 
BRANCH  13  14
ATOM     14  C   UNL     1       7.389   6.917  16.838  0.00  0.00    +0.000 C 
BRANCH  14  15
ATOM     15  C   UNL     1       8.046   7.615  18.024  0.00  0.00    +0.000 C 
ATOM     16  O   UNL     1       8.307   7.027  19.072  0.00  0.00    +0.000 OA
ATOM     17  N   UNL     1       8.314   8.958  17.840  0.00  0.00    +0.000 N 
ATOM     18  H   UNL     1       7.841   9.446  17.091  0.00  0.00    +0.000 HD
BRANCH  17  19
ATOM     19  C   UNL     1       8.827   9.759  18.934  0.00  0.00    +0.000 C 
BRANCH  19  20
ATOM     20  C   UNL     1       9.509  10.971  18.384  0.00  0.00    +0.000 A 
ATOM     21  C   UNL     1      10.868  11.216  18.291  0.00  0.00    +0.000 A 
ATOM     22  C   UNL     1      11.154  12.509  17.765  0.00  0.00    +0.000 A 
ATOM     23  C   UNL     1      10.007  13.208  17.464  0.00  0.00    +0.000 A 
ATOM     24  S   UNL     1       8.596  12.301  17.802  0.00  0.00    +0.000 S 
ENDBRANCH  19  20
ENDBRANCH  17  19
ENDBRANCH  14  15
ENDBRANCH  13  14
ENDBRANCH   2  13
TORSDOF 7
ENDMDL
MODEL 9
REMARK VINA RESULT:      -6.1      5.562      8.528
REMARK  Name = 
REMARK  8 active torsions:
REMARK  status: ('A' for Active; 'I' for Inactive)
REMARK    1  A    between atoms: C_1  and  C_2
REMARK    2  A    between atoms: C_2  and  N_3
REMARK    3  A    between atoms: C_4  and  S_5
REMARK    4  A    between atoms: S_5  and  C_6
REMARK    5  A    between atoms: C_6  and  C_7
REMARK    6  A    between atoms: N_9  and  C_10
REMARK    7  A    between atoms: C_10  and  C_11
REMARK    8  A    between atoms: C_18  and  C_19
REMARK                            x       y       z     vdW  Elec       q    Type
REMARK                         _______ _______ _______ _____ _____    ______ ____
ROOT
ATOM      1  N   UNL     1       2.221   6.528  19.874  0.00  0.00    +0.000 N 
ATOM      2  C   UNL     1       1.567   7.730  20.019  0.00  0.00    +0.000 A 
ATOM      3  N   UNL     1       1.863   8.524  19.020  0.00  0.00    +0.000 NA
ATOM      4  N   UNL     1       2.751   7.867  18.206  0.00  0.00    +0.000 NA
ATOM      5  C   UNL     1       2.975   6.666  18.709  0.00  0.00    +0.000 A 
ENDROOT
BRANCH   5   6
ATOM      6  C   UNL     1       3.897   5.718  18.127  0.00  0.00    +0.000 A 
ATOM      7  C   UNL     1       5.282   5.734  18.090  0.00  0.00    +0.000 A 
ATOM      8  C   UNL     1       5.838   4.631  17.375  0.00  0.00    +0.000 A 
ATOM      9  C   UNL     1       4.866   3.773  16.920  0.00  0.00    +0.000 A 
ATOM     10  S   UNL     1       3.299   4.301  17.350  0.00  0.00    +0.000 S 
ENDBRANCH   5   6
BRANCH   1  12
ATOM     11  C   UNL     1       1.136   4.286  20.579  0.00  0.00    +0.000 C 
ATOM     12  C   UNL     1       2.235   5.330  20.688  0.00  0.00    +0.000 C 
ENDBRANCH   1  12
BRANCH   2  13
ATOM     13  S   UNL     1       0.506   8.156  21.320  0.00  0.00    +0.000 S 
BRANCH  13  14
ATOM     14  C   UNL     1       1.210   9.713  21.926  0.00  0.00    +0.000 C 
BRANCH  14  15
ATOM     15  C   UNL     1       0.367  10.868  21.396  0.00  0.00    +0.000 C 
ATOM     16  O   UNL     1       0.376  11.981  21.916  0.00  0.00    +0.000 OA
ATOM     17  N   UNL     1      -0.417  10.567  20.299  0.00  0.00    +0.000 N 
ATOM     18  H   UNL     1      -0.597   9.594  20.087  0.00  0.00    +0.000 HD
BRANCH  17  19
ATOM     19  C   UNL     1      -1.351  11.544  19.777  0.00  0.00    +0.000 C 
BRANCH  19  20
ATOM     20  C   UNL     1      -2.009  10.996  18.550  0.00  0.00    +0.000 A 
ATOM     21  C   UNL     1      -1.460  10.166  17.588  0.00  0.00    +0.000 A 
ATOM     22  C   UNL     1      -2.367   9.893  16.524  0.00  0.00    +0.000 A 
ATOM     23  C   UNL     1      -3.581  10.514  16.708  0.00  0.00    +0.000 A 
ATOM     24  S   UNL     1      -3.627  11.410  18.166  0.00  0.00    +0.000 S 
ENDBRANCH  19  20
ENDBRANCH  17  19
ENDBRANCH  14  15
ENDBRANCH  13  14
ENDBRANCH   2  13
TORSDOF 7
ENDMDL
