MODEL 1
REMARK VINA RESULT:      -7.8      0.000      0.000
REMARK  Name = 
REMARK  8 active torsions:
REMARK  status: ('A' for Active; 'I' for Inactive)
REMARK    1  A    between atoms: C_1  and  C_2
REMARK    2  A    between atoms: C_2  and  O_3
REMARK    3  A    between atoms: O_3  and  C_4
REMARK    4  A    between atoms: C_4  and  C_6
REMARK    5  A    between atoms: C_10  and  C_12
REMARK    6  A    between atoms: C_17  and  N_18
REMARK    7  A    between atoms: N_18  and  S_19
REMARK    8  A    between atoms: S_19  and  C_22
REMARK                            x       y       z     vdW  Elec       q    Type
REMARK                         _______ _______ _______ _____ _____    ______ ____
ROOT
ATOM      1  C   UNL     1       4.006   4.088  19.727  0.00  0.00    +0.000 A 
ATOM      2  C   UNL     1       3.726   2.709  19.692  0.00  0.00    +0.000 A 
ATOM      3  C   UNL     1       2.517   2.211  20.187  0.00  0.00    +0.000 A 
ATOM      4  C   UNL     1       1.550   3.084  20.664  0.00  0.00    +0.000 A 
ATOM      5  C   UNL     1       1.780   4.457  20.614  0.00  0.00    +0.000 A 
ATOM      6  C   UNL     1       2.985   4.975  20.121  0.00  0.00    +0.000 A 
ENDROOT
BRANCH   1  11
ATOM      7  C   UNL     1       5.942   5.688  15.098  0.00  0.00    +0.000 C 
ATOM      8  C   UNL     1       6.621   6.396  16.275  0.00  0.00    +0.000 C 
ATOM      9  C   UNL     1       6.779   5.467  17.485  0.00  0.00    +0.000 C 
ATOM     10  N   UNL     1       5.502   4.872  17.876  0.00  0.00    +0.000 N 
ATOM     11  C   UNL     1       5.337   4.551  19.241  0.00  0.00    +0.000 C 
ATOM     12  O   UNL     1       6.223   4.713  20.082  0.00  0.00    +0.000 OA
ATOM     13  C   UNL     1       4.786   4.182  16.791  0.00  0.00    +0.000 C 
ATOM     14  C   UNL     1       4.612   5.083  15.564  0.00  0.00    +0.000 C 
BRANCH   7  15
ATOM     15  C   UNL     1       6.850   4.630  14.498  0.00  0.00    +0.000 C 
ATOM     16  O   UNL     1       8.076   4.636  14.581  0.00  0.00    +0.000 OA
BRANCH  15  17
ATOM     17  O   UNL     1       6.121   3.659  13.893  0.00  0.00    +0.000 OA
BRANCH  17  19
ATOM     18  C   UNL     1       4.903   3.252  11.855  0.00  0.00    +0.000 C 
ATOM     19  C   UNL     1       6.247   3.598  12.465  0.00  0.00    +0.000 C 
ENDBRANCH  17  19
ENDBRANCH  15  17
ENDBRANCH   7  15
ENDBRANCH   1  11
BRANCH   6  20
ATOM     20  N   UNL     1       3.010   6.393  19.960  0.00  0.00    +0.000 N 
ATOM     21  H   UNL     1       2.860   6.952  20.799  0.00  0.00    +0.000 HD
BRANCH  20  22
ATOM     22  S   UNL     1       2.602   7.107  18.496  0.00  0.00    +0.000 S 
ATOM     23  O   UNL     1       3.819   7.666  17.946  0.00  0.00    +0.000 OA
ATOM     24  O   UNL     1       1.762   6.219  17.722  0.00  0.00    +0.000 OA
BRANCH  22  25
ATOM     25  C   UNL     1       1.613   8.492  19.019  0.00  0.00    +0.000 A 
ATOM     26  C   UNL     1       1.309   8.625  20.381  0.00  0.00    +0.000 A 
ATOM     27  C   UNL     1       0.473   9.661  20.798  0.00  0.00    +0.000 A 
ATOM     28  C   UNL     1      -0.022  10.561  19.859  0.00  0.00    +0.000 A 
ATOM     29  F   UNL     1      -0.846  11.539  20.258  0.00  0.00    +0.000 F 
ATOM     30  C   UNL     1       0.324  10.464  18.513  0.00  0.00    +0.000 A 
ATOM     31  C   UNL     1       1.153   9.425  18.085  0.00  0.00    +0.000 A 
ENDBRANCH  22  25
ENDBRANCH  20  22
ENDBRANCH   6  20
TORSDOF 7
ENDMDL
MODEL 2
REMARK VINA RESULT:      -7.6      1.002      1.437
REMARK  Name = 
REMARK  8 active torsions:
REMARK  status: ('A' for Active; 'I' for Inactive)
REMARK    1  A    between atoms: C_1  and  C_2
REMARK    2  A    between atoms: C_2  and  O_3
REMARK    3  A    between atoms: O_3  and  C_4
REMARK    4  A    between atoms: C_4  and  C_6
REMARK    5  A    between atoms: C_10  and  C_12
REMARK    6  A    between atoms: C_17  and  N_18
REMARK    7  A    between atoms: N_18  and  S_19
REMARK    8  A    between atoms: S_19  and  C_22
REMARK                            x       y       z     vdW  Elec       q    Type
REMARK                         _______ _______ _______ _____ _____    ______ ____
ROOT
ATOM      1  C   UNL     1       3.206   3.400  19.472  0.00  0.00    +0.000 A 
ATOM      2  C   UNL     1       2.623   2.191  19.045  0.00  0.00    +0.000 A 
ATOM      3  C   UNL     1       1.261   1.943  19.244  0.00  0.00    +0.000 A 
ATOM      4  C   UNL     1       0.454   2.918  19.813  0.00  0.00    +0.000 A 
ATOM      5  C   UNL     1       1.004   4.152  20.151  0.00  0.00    +0.000 A 
ATOM      6  C   UNL     1       2.366   4.420  19.958  0.00  0.00    +0.000 A 
ENDROOT
BRANCH   1  11
ATOM      7  C   UNL     1       6.246   6.037  16.076  0.00  0.00    +0.000 C 
ATOM      8  C   UNL     1       6.880   5.962  17.469  0.00  0.00    +0.000 C 
ATOM      9  C   UNL     1       6.581   4.626  18.160  0.00  0.00    +0.000 C 
ATOM     10  N   UNL     1       5.145   4.354  18.204  0.00  0.00    +0.000 N 
ATOM     11  C   UNL     1       4.674   3.579  19.287  0.00  0.00    +0.000 C 
ATOM     12  O   UNL     1       5.416   3.105  20.148  0.00  0.00    +0.000 OA
ATOM     13  C   UNL     1       4.466   4.420  16.900  0.00  0.00    +0.000 C 
ATOM     14  C   UNL     1       4.745   5.743  16.181  0.00  0.00    +0.000 C 
BRANCH   7  15
ATOM     15  C   UNL     1       6.930   5.086  15.112  0.00  0.00    +0.000 C 
ATOM     16  O   UNL     1       7.942   4.439  15.371  0.00  0.00    +0.000 OA
BRANCH  15  17
ATOM     17  O   UNL     1       6.248   5.017  13.941  0.00  0.00    +0.000 OA
BRANCH  17  19
ATOM     18  C   UNL     1       6.636   3.546  12.073  0.00  0.00    +0.000 C 
ATOM     19  C   UNL     1       6.011   3.692  13.446  0.00  0.00    +0.000 C 
ENDBRANCH  17  19
ENDBRANCH  15  17
ENDBRANCH   7  15
ENDBRANCH   1  11
BRANCH   6  20
ATOM     20  N   UNL     1       2.750   5.778  20.176  0.00  0.00    +0.000 N 
ATOM     21  H   UNL     1       2.740   6.107  21.141  0.00  0.00    +0.000 HD
BRANCH  20  22
ATOM     22  S   UNL     1       2.546   6.940  18.982  0.00  0.00    +0.000 S 
ATOM     23  O   UNL     1       3.851   7.508  18.719  0.00  0.00    +0.000 OA
ATOM     24  O   UNL     1       1.719   6.421  17.913  0.00  0.00    +0.000 OA
BRANCH  22  25
ATOM     25  C   UNL     1       1.621   8.197  19.839  0.00  0.00    +0.000 A 
ATOM     26  C   UNL     1       1.264   9.361  19.145  0.00  0.00    +0.000 A 
ATOM     27  C   UNL     1       0.606  10.387  19.822  0.00  0.00    +0.000 A 
ATOM     28  C   UNL     1       0.289  10.227  21.168  0.00  0.00    +0.000 A 
ATOM     29  F   UNL     1      -0.319  11.225  21.823  0.00  0.00    +0.000 F 
ATOM     30  C   UNL     1       0.593   9.049  21.846  0.00  0.00    +0.000 A 
ATOM     31  C   UNL     1       1.260   8.019  21.179  0.00  0.00    +0.000 A 
ENDBRANCH  22  25
ENDBRANCH  20  22
ENDBRANCH   6  20
TORSDOF 7
ENDMDL
MODEL 3
REMARK VINA RESULT:      -7.2      2.080      3.477
REMARK  Name = 
REMARK  8 active torsions:
REMARK  status: ('A' for Active; 'I' for Inactive)
REMARK    1  A    between atoms: C_1  and  C_2
REMARK    2  A    between atoms: C_2  and  O_3
REMARK    3  A    between atoms: O_3  and  C_4
REMARK    4  A    between atoms: C_4  and  C_6
REMARK    5  A    between atoms: C_10  and  C_12
REMARK    6  A    between atoms: C_17  and  N_18
REMARK    7  A    between atoms: N_18  and  S_19
REMARK    8  A    between atoms: S_19  and  C_22
REMARK                            x       y       z     vdW  Elec       q    Type
REMARK                         _______ _______ _______ _____ _____    ______ ____
ROOT
ATOM      1  C   UNL     1       2.809   3.836  18.679  0.00  0.00    +0.000 A 
ATOM      2  C   UNL     1       2.773   2.549  19.248  0.00  0.00    +0.000 A 
ATOM      3  C   UNL     1       1.946   2.272  20.342  0.00  0.00    +0.000 A 
ATOM      4  C   UNL     1       1.104   3.254  20.841  0.00  0.00    +0.000 A 
ATOM      5  C   UNL     1       1.064   4.502  20.224  0.00  0.00    +0.000 A 
ATOM      6  C   UNL     1       1.883   4.798  19.126  0.00  0.00    +0.000 A 
ENDROOT
BRANCH   1  11
ATOM      7  C   UNL     1       7.769   5.559  18.285  0.00  0.00    +0.000 C 
ATOM      8  C   UNL     1       7.430   4.544  17.188  0.00  0.00    +0.000 C 
ATOM      9  C   UNL     1       5.979   4.681  16.714  0.00  0.00    +0.000 C 
ATOM     10  N   UNL     1       5.039   4.604  17.832  0.00  0.00    +0.000 N 
ATOM     11  C   UNL     1       3.755   4.084  17.555  0.00  0.00    +0.000 C 
ATOM     12  O   UNL     1       3.398   3.742  16.427  0.00  0.00    +0.000 OA
ATOM     13  C   UNL     1       5.310   5.545  18.931  0.00  0.00    +0.000 C 
ATOM     14  C   UNL     1       6.755   5.435  19.428  0.00  0.00    +0.000 C 
BRANCH   7  15
ATOM     15  C   UNL     1       7.808   6.971  17.731  0.00  0.00    +0.000 C 
ATOM     16  O   UNL     1       7.305   7.315  16.664  0.00  0.00    +0.000 OA
BRANCH  15  17
ATOM     17  O   UNL     1       8.438   7.808  18.593  0.00  0.00    +0.000 OA
BRANCH  17  19
ATOM     18  C   UNL     1       9.179  10.001  19.260  0.00  0.00    +0.000 C 
ATOM     19  C   UNL     1       8.419   9.195  18.226  0.00  0.00    +0.000 C 
ENDBRANCH  17  19
ENDBRANCH  15  17
ENDBRANCH   7  15
ENDBRANCH   1  11
BRANCH   6  20
ATOM     20  N   UNL     1       1.606   6.044  18.486  0.00  0.00    +0.000 N 
ATOM     21  H   UNL     1       1.184   5.999  17.559  0.00  0.00    +0.000 HD
BRANCH  20  22
ATOM     22  S   UNL     1       2.502   7.419  18.840  0.00  0.00    +0.000 S 
ATOM     23  O   UNL     1       3.105   7.207  20.139  0.00  0.00    +0.000 OA
ATOM     24  O   UNL     1       3.296   7.809  17.694  0.00  0.00    +0.000 OA
BRANCH  22  25
ATOM     25  C   UNL     1       1.230   8.642  19.077  0.00  0.00    +0.000 A 
ATOM     26  C   UNL     1       0.770   8.891  20.377  0.00  0.00    +0.000 A 
ATOM     27  C   UNL     1      -0.278   9.791  20.573  0.00  0.00    +0.000 A 
ATOM     28  C   UNL     1      -0.829  10.447  19.476  0.00  0.00    +0.000 A 
ATOM     29  F   UNL     1      -1.854  11.290  19.663  0.00  0.00    +0.000 F 
ATOM     30  C   UNL     1      -0.337  10.243  18.189  0.00  0.00    +0.000 A 
ATOM     31  C   UNL     1       0.706   9.338  17.983  0.00  0.00    +0.000 A 
ENDBRANCH  22  25
ENDBRANCH  20  22
ENDBRANCH   6  20
TORSDOF 7
ENDMDL
MODEL 4
REMARK VINA RESULT:      -7.2      0.662      1.298
REMARK  Name = 
REMARK  8 active torsions:
REMARK  status: ('A' for Active; 'I' for Inactive)
REMARK    1  A    between atoms: C_1  and  C_2
REMARK    2  A    between atoms: C_2  and  O_3
REMARK    3  A    between atoms: O_3  and  C_4
REMARK    4  A    between atoms: C_4  and  C_6
REMARK    5  A    between atoms: C_10  and  C_12
REMARK    6  A    between atoms: C_17  and  N_18
REMARK    7  A    between atoms: N_18  and  S_19
REMARK    8  A    between atoms: S_19  and  C_22
REMARK                            x       y       z     vdW  Elec       q    Type
REMARK                         _______ _______ _______ _____ _____    ______ ____
ROOT
ATOM      1  C   UNL     1       3.686   3.942  19.642  0.00  0.00    +0.000 A 
ATOM      2  C   UNL     1       3.253   2.606  19.537  0.00  0.00    +0.000 A 
ATOM      3  C   UNL     1       1.968   2.235  19.943  0.00  0.00    +0.000 A 
ATOM      4  C   UNL     1       1.079   3.198  20.400  0.00  0.00    +0.000 A 
ATOM      5  C   UNL     1       1.466   4.535  20.418  0.00  0.00    +0.000 A 
ATOM      6  C   UNL     1       2.750   4.927  20.014  0.00  0.00    +0.000 A 
ENDROOT
BRANCH   1  11
ATOM      7  C   UNL     1       6.016   5.811  15.306  0.00  0.00    +0.000 C 
ATOM      8  C   UNL     1       6.739   6.260  16.580  0.00  0.00    +0.000 C 
ATOM      9  C   UNL     1       6.715   5.174  17.662  0.00  0.00    +0.000 C 
ATOM     10  N   UNL     1       5.352   4.726  17.943  0.00  0.00    +0.000 N 
ATOM     11  C   UNL     1       5.087   4.264  19.251  0.00  0.00    +0.000 C 
ATOM     12  O   UNL     1       5.951   4.189  20.125  0.00  0.00    +0.000 OA
ATOM     13  C   UNL     1       4.591   4.289  16.762  0.00  0.00    +0.000 C 
ATOM     14  C   UNL     1       4.596   5.352  15.659  0.00  0.00    +0.000 C 
BRANCH   7  15
ATOM     15  C   UNL     1       6.789   4.717  14.594  0.00  0.00    +0.000 C 
ATOM     16  O   UNL     1       6.377   3.572  14.420  0.00  0.00    +0.000 OA
BRANCH  15  17
ATOM     17  O   UNL     1       7.980   5.186  14.143  0.00  0.00    +0.000 OA
BRANCH  17  19
ATOM     18  C   UNL     1       7.268   4.470  11.955  0.00  0.00    +0.000 C 
ATOM     19  C   UNL     1       8.017   5.523  12.749  0.00  0.00    +0.000 C 
ENDBRANCH  17  19
ENDBRANCH  15  17
ENDBRANCH   7  15
ENDBRANCH   1  11
BRANCH   6  20
ATOM     20  N   UNL     1       2.945   6.338  19.911  0.00  0.00    +0.000 N 
ATOM     21  H   UNL     1       2.880   6.873  20.776  0.00  0.00    +0.000 HD
BRANCH  20  22
ATOM     22  S   UNL     1       2.599   7.160  18.488  0.00  0.00    +0.000 S 
ATOM     23  O   UNL     1       3.850   7.704  18.002  0.00  0.00    +0.000 OA
ATOM     24  O   UNL     1       1.745   6.357  17.640  0.00  0.00    +0.000 OA
BRANCH  22  25
ATOM     25  C   UNL     1       1.652   8.546  19.080  0.00  0.00    +0.000 A 
ATOM     26  C   UNL     1       1.333   9.575  18.183  0.00  0.00    +0.000 A 
ATOM     27  C   UNL     1       0.657  10.703  18.647  0.00  0.00    +0.000 A 
ATOM     28  C   UNL     1       0.285  10.776  19.986  0.00  0.00    +0.000 A 
ATOM     29  F   UNL     1      -0.340  11.872  20.436  0.00  0.00    +0.000 F 
ATOM     30  C   UNL     1       0.552   9.730  20.868  0.00  0.00    +0.000 A 
ATOM     31  C   UNL     1       1.236   8.601  20.414  0.00  0.00    +0.000 A 
ENDBRANCH  22  25
ENDBRANCH  20  22
ENDBRANCH   6  20
TORSDOF 7
ENDMDL
MODEL 5
REMARK VINA RESULT:      -7.0      2.047      3.442
REMARK  Name = 
REMARK  8 active torsions:
REMARK  status: ('A' for Active; 'I' for Inactive)
REMARK    1  A    between atoms: C_1  and  C_2
REMARK    2  A    between atoms: C_2  and  O_3
REMARK    3  A    between atoms: O_3  and  C_4
REMARK    4  A    between atoms: C_4  and  C_6
REMARK    5  A    between atoms: C_10  and  C_12
REMARK    6  A    between atoms: C_17  and  N_18
REMARK    7  A    between atoms: N_18  and  S_19
REMARK    8  A    between atoms: S_19  and  C_22
REMARK                            x       y       z     vdW  Elec       q    Type
REMARK                         _______ _______ _______ _____ _____    ______ ____
ROOT
ATOM      1  C   UNL     1       2.924   3.865  18.786  0.00  0.00    +0.000 A 
ATOM      2  C   UNL     1       2.273   2.618  18.866  0.00  0.00    +0.000 A 
ATOM      3  C   UNL     1       1.421   2.323  19.935  0.00  0.00    +0.000 A 
ATOM      4  C   UNL     1       1.159   3.284  20.900  0.00  0.00    +0.000 A 
ATOM      5  C   UNL     1       1.723   4.551  20.777  0.00  0.00    +0.000 A 
ATOM      6  C   UNL     1       2.579   4.867  19.714  0.00  0.00    +0.000 A 
ENDROOT
BRANCH   1  11
ATOM      7  C   UNL     1       7.876   5.600  18.355  0.00  0.00    +0.000 C 
ATOM      8  C   UNL     1       7.539   4.565  17.277  0.00  0.00    +0.000 C 
ATOM      9  C   UNL     1       6.087   4.688  16.803  0.00  0.00    +0.000 C 
ATOM     10  N   UNL     1       5.149   4.627  17.923  0.00  0.00    +0.000 N 
ATOM     11  C   UNL     1       3.867   4.097  17.657  0.00  0.00    +0.000 C 
ATOM     12  O   UNL     1       3.510   3.734  16.535  0.00  0.00    +0.000 OA
ATOM     13  C   UNL     1       5.418   5.587  19.005  0.00  0.00    +0.000 C 
ATOM     14  C   UNL     1       6.864   5.492  19.502  0.00  0.00    +0.000 C 
BRANCH   7  15
ATOM     15  C   UNL     1       7.909   7.002  17.777  0.00  0.00    +0.000 C 
ATOM     16  O   UNL     1       7.426   7.320  16.692  0.00  0.00    +0.000 OA
BRANCH  15  17
ATOM     17  O   UNL     1       8.507   7.864  18.638  0.00  0.00    +0.000 OA
BRANCH  17  19
ATOM     18  C   UNL     1       9.190  10.080  19.288  0.00  0.00    +0.000 C 
ATOM     19  C   UNL     1       8.519   9.236  18.222  0.00  0.00    +0.000 C 
ENDBRANCH  17  19
ENDBRANCH  15  17
ENDBRANCH   7  15
ENDBRANCH   1  11
BRANCH   6  20
ATOM     20  N   UNL     1       2.934   6.246  19.615  0.00  0.00    +0.000 N 
ATOM     21  H   UNL     1       3.245   6.702  20.473  0.00  0.00    +0.000 HD
BRANCH  20  22
ATOM     22  S   UNL     1       2.255   7.236  18.441  0.00  0.00    +0.000 S 
ATOM     23  O   UNL     1       3.348   7.922  17.784  0.00  0.00    +0.000 OA
ATOM     24  O   UNL     1       1.259   6.506  17.685  0.00  0.00    +0.000 OA
BRANCH  22  25
ATOM     25  C   UNL     1       1.419   8.461  19.424  0.00  0.00    +0.000 A 
ATOM     26  C   UNL     1       1.264   8.231  20.798  0.00  0.00    +0.000 A 
ATOM     27  C   UNL     1       0.546   9.145  21.569  0.00  0.00    +0.000 A 
ATOM     28  C   UNL     1       0.020  10.285  20.966  0.00  0.00    +0.000 A 
ATOM     29  F   UNL     1      -0.693  11.148  21.702  0.00  0.00    +0.000 F 
ATOM     30  C   UNL     1       0.220  10.544  19.612  0.00  0.00    +0.000 A 
ATOM     31  C   UNL     1       0.931   9.630  18.831  0.00  0.00    +0.000 A 
ENDBRANCH  22  25
ENDBRANCH  20  22
ENDBRANCH   6  20
TORSDOF 7
ENDMDL
MODEL 6
REMARK VINA RESULT:      -6.9      2.080      3.563
REMARK  Name = 
REMARK  8 active torsions:
REMARK  status: ('A' for Active; 'I' for Inactive)
REMARK    1  A    between atoms: C_1  and  C_2
REMARK    2  A    between atoms: C_2  and  O_3
REMARK    3  A    between atoms: O_3  and  C_4
REMARK    4  A    between atoms: C_4  and  C_6
REMARK    5  A    between atoms: C_10  and  C_12
REMARK    6  A    between atoms: C_17  and  N_18
REMARK    7  A    between atoms: N_18  and  S_19
REMARK    8  A    between atoms: S_19  and  C_22
REMARK                            x       y       z     vdW  Elec       q    Type
REMARK                         _______ _______ _______ _____ _____    ______ ____
ROOT
ATOM      1  C   UNL     1       2.874   3.812  18.774  0.00  0.00    +0.000 A 
ATOM      2  C   UNL     1       2.839   2.549  19.395  0.00  0.00    +0.000 A 
ATOM      3  C   UNL     1       2.011   2.316  20.497  0.00  0.00    +0.000 A 
ATOM      4  C   UNL     1       1.167   3.316  20.955  0.00  0.00    +0.000 A 
ATOM      5  C   UNL     1       1.126   4.538  20.288  0.00  0.00    +0.000 A 
ATOM      6  C   UNL     1       1.947   4.791  19.181  0.00  0.00    +0.000 A 
ENDROOT
BRANCH   1  11
ATOM      7  C   UNL     1       7.844   5.494  18.321  0.00  0.00    +0.000 C 
ATOM      8  C   UNL     1       7.498   4.443  17.260  0.00  0.00    +0.000 C 
ATOM      9  C   UNL     1       6.048   4.572  16.781  0.00  0.00    +0.000 C 
ATOM     10  N   UNL     1       5.108   4.538  17.901  0.00  0.00    +0.000 N 
ATOM     11  C   UNL     1       3.822   4.016  17.642  0.00  0.00    +0.000 C 
ATOM     12  O   UNL     1       3.463   3.637  16.526  0.00  0.00    +0.000 OA
ATOM     13  C   UNL     1       5.384   5.515  18.967  0.00  0.00    +0.000 C 
ATOM     14  C   UNL     1       6.829   5.415  19.467  0.00  0.00    +0.000 C 
BRANCH   7  15
ATOM     15  C   UNL     1       7.890   6.885  17.718  0.00  0.00    +0.000 C 
ATOM     16  O   UNL     1       7.485   7.172  16.594  0.00  0.00    +0.000 OA
BRANCH  15  17
ATOM     17  O   UNL     1       8.402   7.776  18.604  0.00  0.00    +0.000 OA
BRANCH  17  19
ATOM     18  C   UNL     1       9.284   9.984  18.992  0.00  0.00    +0.000 C 
ATOM     19  C   UNL     1       8.263   9.155  18.237  0.00  0.00    +0.000 C 
ENDBRANCH  17  19
ENDBRANCH  15  17
ENDBRANCH   7  15
ENDBRANCH   1  11
BRANCH   6  20
ATOM     20  N   UNL     1       1.669   6.009  18.490  0.00  0.00    +0.000 N 
ATOM     21  H   UNL     1       1.263   5.926  17.559  0.00  0.00    +0.000 HD
BRANCH  20  22
ATOM     22  S   UNL     1       2.546   7.405  18.808  0.00  0.00    +0.000 S 
ATOM     23  O   UNL     1       3.526   7.067  19.819  0.00  0.00    +0.000 OA
ATOM     24  O   UNL     1       2.929   8.049  17.570  0.00  0.00    +0.000 OA
BRANCH  22  25
ATOM     25  C   UNL     1       1.335   8.430  19.615  0.00  0.00    +0.000 A 
ATOM     26  C   UNL     1       0.747   9.476  18.890  0.00  0.00    +0.000 A 
ATOM     27  C   UNL     1      -0.147  10.335  19.529  0.00  0.00    +0.000 A 
ATOM     28  C   UNL     1      -0.463  10.122  20.868  0.00  0.00    +0.000 A 
ATOM     29  F   UNL     1      -1.301  10.964  21.487  0.00  0.00    +0.000 F 
ATOM     30  C   UNL     1       0.076   9.050  21.575  0.00  0.00    +0.000 A 
ATOM     31  C   UNL     1       0.979   8.190  20.946  0.00  0.00    +0.000 A 
ENDBRANCH  22  25
ENDBRANCH  20  22
ENDBRANCH   6  20
TORSDOF 7
ENDMDL
MODEL 7
REMARK VINA RESULT:      -6.9      1.275      1.428
REMARK  Name = 
REMARK  8 active torsions:
REMARK  status: ('A' for Active; 'I' for Inactive)
REMARK    1  A    between atoms: C_1  and  C_2
REMARK    2  A    between atoms: C_2  and  O_3
REMARK    3  A    between atoms: O_3  and  C_4
REMARK    4  A    between atoms: C_4  and  C_6
REMARK    5  A    between atoms: C_10  and  C_12
REMARK    6  A    between atoms: C_17  and  N_18
REMARK    7  A    between atoms: N_18  and  S_19
REMARK    8  A    between atoms: S_19  and  C_22
REMARK                            x       y       z     vdW  Elec       q    Type
REMARK                         _______ _______ _______ _____ _____    ______ ____
ROOT
ATOM      1  C   UNL     1       3.195   3.349  19.319  0.00  0.00    +0.000 A 
ATOM      2  C   UNL     1       2.713   2.146  18.770  0.00  0.00    +0.000 A 
ATOM      3  C   UNL     1       1.358   1.811  18.855  0.00  0.00    +0.000 A 
ATOM      4  C   UNL     1       0.460   2.696  19.433  0.00  0.00    +0.000 A 
ATOM      5  C   UNL     1       0.912   3.930  19.894  0.00  0.00    +0.000 A 
ATOM      6  C   UNL     1       2.266   4.284  19.816  0.00  0.00    +0.000 A 
ENDROOT
BRANCH   1  11
ATOM      7  C   UNL     1       6.340   6.064  16.084  0.00  0.00    +0.000 C 
ATOM      8  C   UNL     1       6.855   6.081  17.527  0.00  0.00    +0.000 C 
ATOM      9  C   UNL     1       6.585   4.754  18.245  0.00  0.00    +0.000 C 
ATOM     10  N   UNL     1       5.171   4.387  18.180  0.00  0.00    +0.000 N 
ATOM     11  C   UNL     1       4.658   3.621  19.250  0.00  0.00    +0.000 C 
ATOM     12  O   UNL     1       5.353   3.229  20.189  0.00  0.00    +0.000 OA
ATOM     13  C   UNL     1       4.603   4.360  16.823  0.00  0.00    +0.000 C 
ATOM     14  C   UNL     1       4.858   5.673  16.075  0.00  0.00    +0.000 C 
BRANCH   7  15
ATOM     15  C   UNL     1       7.164   5.127  15.220  0.00  0.00    +0.000 C 
ATOM     16  O   UNL     1       7.962   4.299  15.655  0.00  0.00    +0.000 OA
BRANCH  15  17
ATOM     17  O   UNL     1       6.870   5.301  13.907  0.00  0.00    +0.000 OA
BRANCH  17  19
ATOM     18  C   UNL     1       7.863   6.091  11.860  0.00  0.00    +0.000 C 
ATOM     19  C   UNL     1       7.964   5.099  13.002  0.00  0.00    +0.000 C 
ENDBRANCH  17  19
ENDBRANCH  15  17
ENDBRANCH   7  15
ENDBRANCH   1  11
BRANCH   6  20
ATOM     20  N   UNL     1       2.554   5.641  20.156  0.00  0.00    +0.000 N 
ATOM     21  H   UNL     1       2.337   5.930  21.109  0.00  0.00    +0.000 HD
BRANCH  20  22
ATOM     22  S   UNL     1       2.562   6.845  18.986  0.00  0.00    +0.000 S 
ATOM     23  O   UNL     1       3.926   7.318  18.877  0.00  0.00    +0.000 OA
ATOM     24  O   UNL     1       1.817   6.417  17.821  0.00  0.00    +0.000 OA
BRANCH  22  25
ATOM     25  C   UNL     1       1.647   8.146  19.784  0.00  0.00    +0.000 A 
ATOM     26  C   UNL     1       1.316   8.004  21.139  0.00  0.00    +0.000 A 
ATOM     27  C   UNL     1       0.536   8.978  21.760  0.00  0.00    +0.000 A 
ATOM     28  C   UNL     1       0.123  10.091  21.032  0.00  0.00    +0.000 A 
ATOM     29  F   UNL     1      -0.649  11.013  21.622  0.00  0.00    +0.000 F 
ATOM     30  C   UNL     1       0.497  10.263  19.701  0.00  0.00    +0.000 A 
ATOM     31  C   UNL     1       1.271   9.288  19.069  0.00  0.00    +0.000 A 
ENDBRANCH  22  25
ENDBRANCH  20  22
ENDBRANCH   6  20
TORSDOF 7
ENDMDL
MODEL 8
REMARK VINA RESULT:      -6.9      1.750      3.064
REMARK  Name = 
REMARK  8 active torsions:
REMARK  status: ('A' for Active; 'I' for Inactive)
REMARK    1  A    between atoms: C_1  and  C_2
REMARK    2  A    between atoms: C_2  and  O_3
REMARK    3  A    between atoms: O_3  and  C_4
REMARK    4  A    between atoms: C_4  and  C_6
REMARK    5  A    between atoms: C_10  and  C_12
REMARK    6  A    between atoms: C_17  and  N_18
REMARK    7  A    between atoms: N_18  and  S_19
REMARK    8  A    between atoms: S_19  and  C_22
REMARK                            x       y       z     vdW  Elec       q    Type
REMARK                         _______ _______ _______ _____ _____    ______ ____
ROOT
ATOM      1  C   UNL     1       2.536   3.547  19.066  0.00  0.00    +0.000 A 
ATOM      2  C   UNL     1       2.734   2.308  19.704  0.00  0.00    +0.000 A 
ATOM      3  C   UNL     1       2.439   2.146  21.061  0.00  0.00    +0.000 A 
ATOM      4  C   UNL     1       1.887   3.195  21.782  0.00  0.00    +0.000 A 
ATOM      5  C   UNL     1       1.600   4.394  21.136  0.00  0.00    +0.000 A 
ATOM      6  C   UNL     1       1.888   4.576  19.777  0.00  0.00    +0.000 A 
ENDROOT
BRANCH   1  11
ATOM      7  C   UNL     1       7.039   4.455  16.492  0.00  0.00    +0.000 C 
ATOM      8  C   UNL     1       6.100   3.544  15.694  0.00  0.00    +0.000 C 
ATOM      9  C   UNL     1       4.630   3.930  15.890  0.00  0.00    +0.000 C 
ATOM     10  N   UNL     1       4.269   3.970  17.306  0.00  0.00    +0.000 N 
ATOM     11  C   UNL     1       2.927   3.675  17.634  0.00  0.00    +0.000 C 
ATOM     12  O   UNL     1       2.067   3.431  16.787  0.00  0.00    +0.000 OA
ATOM     13  C   UNL     1       5.136   4.819  18.139  0.00  0.00    +0.000 C 
ATOM     14  C   UNL     1       6.615   4.461  17.965  0.00  0.00    +0.000 C 
BRANCH   7  15
ATOM     15  C   UNL     1       7.059   5.859  15.917  0.00  0.00    +0.000 C 
ATOM     16  O   UNL     1       6.421   6.217  14.929  0.00  0.00    +0.000 OA
BRANCH  15  17
ATOM     17  O   UNL     1       7.844   6.674  16.665  0.00  0.00    +0.000 OA
BRANCH  17  19
ATOM     18  C   UNL     1       8.177   8.711  17.907  0.00  0.00    +0.000 C 
ATOM     19  C   UNL     1       7.161   7.751  17.321  0.00  0.00    +0.000 C 
ENDBRANCH  17  19
ENDBRANCH  15  17
ENDBRANCH   7  15
ENDBRANCH   1  11
BRANCH   6  20
ATOM     20  N   UNL     1       1.375   5.782  19.208  0.00  0.00    +0.000 N 
ATOM     21  H   UNL     1       0.601   5.686  18.553  0.00  0.00    +0.000 HD
BRANCH  20  22
ATOM     22  S   UNL     1       2.347   7.140  19.033  0.00  0.00    +0.000 S 
ATOM     23  O   UNL     1       3.587   6.863  19.727  0.00  0.00    +0.000 OA
ATOM     24  O   UNL     1       2.336   7.590  17.658  0.00  0.00    +0.000 OA
BRANCH  22  25
ATOM     25  C   UNL     1       1.485   8.345  20.020  0.00  0.00    +0.000 A 
ATOM     26  C   UNL     1       1.068   9.538  19.413  0.00  0.00    +0.000 A 
ATOM     27  C   UNL     1       0.458  10.524  20.188  0.00  0.00    +0.000 A 
ATOM     28  C   UNL     1       0.248  10.295  21.545  0.00  0.00    +0.000 A 
ATOM     29  F   UNL     1      -0.313  11.254  22.294  0.00  0.00    +0.000 F 
ATOM     30  C   UNL     1       0.611   9.089  22.139  0.00  0.00    +0.000 A 
ATOM     31  C   UNL     1       1.230   8.099  21.373  0.00  0.00    +0.000 A 
ENDBRANCH  22  25
ENDBRANCH  20  22
ENDBRANCH   6  20
TORSDOF 7
ENDMDL
MODEL 9
REMARK VINA RESULT:      -6.8      2.921      5.305
REMARK  Name = 
REMARK  8 active torsions:
REMARK  status: ('A' for Active; 'I' for Inactive)
REMARK    1  A    between atoms: C_1  and  C_2
REMARK    2  A    between atoms: C_2  and  O_3
REMARK    3  A    between atoms: O_3  and  C_4
REMARK    4  A    between atoms: C_4  and  C_6
REMARK    5  A    between atoms: C_10  and  C_12
REMARK    6  A    between atoms: C_17  and  N_18
REMARK    7  A    between atoms: N_18  and  S_19
REMARK    8  A    between atoms: S_19  and  C_22
REMARK                            x       y       z     vdW  Elec       q    Type
REMARK                         _______ _______ _______ _____ _____    ______ ____
ROOT
ATOM      1  C   UNL     1       2.282   6.804  18.365  0.00  0.00    +0.000 A 
ATOM      2  C   UNL     1       1.993   8.007  17.693  0.00  0.00    +0.000 A 
ATOM      3  C   UNL     1       1.570   9.138  18.398  0.00  0.00    +0.000 A 
ATOM      4  C   UNL     1       1.489   9.103  19.782  0.00  0.00    +0.000 A 
ATOM      5  C   UNL     1       1.863   7.947  20.462  0.00  0.00    +0.000 A 
ATOM      6  C   UNL     1       2.291   6.804  19.774  0.00  0.00    +0.000 A 
ENDROOT
BRANCH   1  11
ATOM      7  C   UNL     1       6.815   4.858  16.522  0.00  0.00    +0.000 C 
ATOM      8  C   UNL     1       5.811   3.749  16.854  0.00  0.00    +0.000 C 
ATOM      9  C   UNL     1       4.371   4.171  16.543  0.00  0.00    +0.000 C 
ATOM     10  N   UNL     1       4.025   5.428  17.204  0.00  0.00    +0.000 N 
ATOM     11  C   UNL     1       2.669   5.616  17.553  0.00  0.00    +0.000 C 
ATOM     12  O   UNL     1       1.788   4.797  17.290  0.00  0.00    +0.000 OA
ATOM     13  C   UNL     1       4.953   6.539  16.939  0.00  0.00    +0.000 C 
ATOM     14  C   UNL     1       6.404   6.150  17.239  0.00  0.00    +0.000 C 
BRANCH   7  15
ATOM     15  C   UNL     1       6.922   5.067  15.023  0.00  0.00    +0.000 C 
ATOM     16  O   UNL     1       7.821   5.697  14.471  0.00  0.00    +0.000 OA
BRANCH  15  17
ATOM     17  O   UNL     1       5.914   4.431  14.375  0.00  0.00    +0.000 OA
BRANCH  17  19
ATOM     18  C   UNL     1       5.178   3.512  12.274  0.00  0.00    +0.000 C 
ATOM     19  C   UNL     1       6.317   3.611  13.270  0.00  0.00    +0.000 C 
ENDBRANCH  17  19
ENDBRANCH  15  17
ENDBRANCH   7  15
ENDBRANCH   1  11
BRANCH   6  20
ATOM     20  N   UNL     1       2.815   5.763  20.600  0.00  0.00    +0.000 N 
ATOM     21  H   UNL     1       3.824   5.621  20.573  0.00  0.00    +0.000 HD
BRANCH  20  22
ATOM     22  S   UNL     1       1.877   4.436  21.022  0.00  0.00    +0.000 S 
ATOM     23  O   UNL     1       2.176   4.131  22.405  0.00  0.00    +0.000 OA
ATOM     24  O   UNL     1       0.515   4.619  20.566  0.00  0.00    +0.000 OA
BRANCH  22  25
ATOM     25  C   UNL     1       2.616   3.136  20.056  0.00  0.00    +0.000 A 
ATOM     26  C   UNL     1       3.969   2.831  20.262  0.00  0.00    +0.000 A 
ATOM     27  C   UNL     1       4.583   1.867  19.462  0.00  0.00    +0.000 A 
ATOM     28  C   UNL     1       3.835   1.205  18.493  0.00  0.00    +0.000 A 
ATOM     29  F   UNL     1       4.433   0.299  17.708  0.00  0.00    +0.000 F 
ATOM     30  C   UNL     1       2.478   1.465  18.324  0.00  0.00    +0.000 A 
ATOM     31  C   UNL     1       1.856   2.435  19.115  0.00  0.00    +0.000 A 
ENDBRANCH  22  25
ENDBRANCH  20  22
ENDBRANCH   6  20
TORSDOF 7
ENDMDL
