MODEL 1
REMARK VINA RESULT:      -5.9      0.000      0.000
REMARK  Name = 
REMARK  8 active torsions:
REMARK  status: ('A' for Active; 'I' for Inactive)
REMARK    1  A    between atoms: C_1  and  C_2
REMARK    2  A    between atoms: C_2  and  C_3
REMARK    3  A    between atoms: C_2  and  C_4
REMARK    4  A    between atoms: C_2  and  C_5
REMARK    5  A    between atoms: C_5  and  C_6
REMARK    6  A    between atoms: C_6  and  N_7
REMARK    7  A    between atoms: C_8  and  C_10
REMARK    8  A    between atoms: C_10  and  N_11
REMARK                            x       y       z     vdW  Elec       q    Type
REMARK                         _______ _______ _______ _____ _____    ______ ____
ROOT
ATOM      1  N   UNL     1       4.216   6.123  17.982  0.00  0.00    +0.000 N 
ATOM      2  C   UNL     1       4.443   5.422  19.150  0.00  0.00    +0.000 C 
ATOM      3  O   UNL     1       5.571   5.306  19.661  0.00  0.00    +0.000 OA
ATOM      4  H   UNL     1       3.262   6.115  17.610  0.00  0.00    +0.000 HD
ENDROOT
BRANCH   1   5
ATOM      5  C   UNL     1       5.321   6.639  17.237  0.00  0.00    +0.000 C 
BRANCH   5   6
ATOM      6  C   UNL     1       5.356   6.118  15.805  0.00  0.00    +0.000 C 
BRANCH   6   8
ATOM      7  C   UNL     1       6.879   4.820  14.263  0.00  0.00    +0.000 C 
ATOM      8  C   UNL     1       6.220   4.838  15.653  0.00  0.00    +0.000 C 
ATOM      9  C   UNL     1       5.362   3.569  15.810  0.00  0.00    +0.000 C 
ATOM     10  C   UNL     1       7.332   4.819  16.717  0.00  0.00    +0.000 C 
ENDBRANCH   6   8
ENDBRANCH   5   6
ENDBRANCH   1   5
BRANCH   2  11
ATOM     11  C   UNL     1       3.204   4.819  19.795  0.00  0.00    +0.000 C 
BRANCH  11  12
ATOM     12  N   UNL     1       3.423   3.385  20.115  0.00  0.00    +0.000 NA
ATOM     13  C   UNL     1       2.233   2.805  20.788  0.00  0.00    +0.000 C 
ATOM     14  C   UNL     1       0.988   2.684  19.888  0.00  0.00    +0.000 C 
ATOM     15  N   UNL     1       1.252   1.916  18.666  0.00  0.00    +0.000 NA
ATOM     16  C   UNL     1       2.439   2.428  17.966  0.00  0.00    +0.000 C 
ATOM     17  C   UNL     1       3.672   2.599  18.887  0.00  0.00    +0.000 C 
ATOM     18  H   UNL     1       0.442   1.973  18.051  0.00  0.00    +0.000 HD
ENDBRANCH  11  12
ENDBRANCH   2  11
TORSDOF 5
ENDMDL
MODEL 2
REMARK VINA RESULT:      -5.8      1.028      1.779
REMARK  Name = 
REMARK  8 active torsions:
REMARK  status: ('A' for Active; 'I' for Inactive)
REMARK    1  A    between atoms: C_1  and  C_2
REMARK    2  A    between atoms: C_2  and  C_3
REMARK    3  A    between atoms: C_2  and  C_4
REMARK    4  A    between atoms: C_2  and  C_5
REMARK    5  A    between atoms: C_5  and  C_6
REMARK    6  A    between atoms: C_6  and  N_7
REMARK    7  A    between atoms: C_8  and  C_10
REMARK    8  A    between atoms: C_10  and  N_11
REMARK                            x       y       z     vdW  Elec       q    Type
REMARK                         _______ _______ _______ _____ _____    ______ ____
ROOT
ATOM      1  N   UNL     1       4.386   6.252  17.869  0.00  0.00    +0.000 N 
ATOM      2  C   UNL     1       4.715   5.570  19.024  0.00  0.00    +0.000 C 
ATOM      3  O   UNL     1       5.889   5.412  19.406  0.00  0.00    +0.000 OA
ATOM      4  H   UNL     1       3.397   6.281  17.610  0.00  0.00    +0.000 HD
ENDROOT
BRANCH   1   5
ATOM      5  C   UNL     1       5.420   6.694  16.986  0.00  0.00    +0.000 C 
BRANCH   5   6
ATOM      6  C   UNL     1       5.320   6.059  15.604  0.00  0.00    +0.000 C 
BRANCH   6   8
ATOM      7  C   UNL     1       5.100   3.576  16.013  0.00  0.00    +0.000 C 
ATOM      8  C   UNL     1       6.041   4.687  15.519  0.00  0.00    +0.000 C 
ATOM      9  C   UNL     1       7.315   4.679  16.385  0.00  0.00    +0.000 C 
ATOM     10  C   UNL     1       6.431   4.382  14.062  0.00  0.00    +0.000 C 
ENDBRANCH   6   8
ENDBRANCH   5   6
ENDBRANCH   1   5
BRANCH   2  11
ATOM     11  C   UNL     1       3.533   5.046  19.826  0.00  0.00    +0.000 C 
BRANCH  11  12
ATOM     12  N   UNL     1       3.143   3.690  19.360  0.00  0.00    +0.000 NA
ATOM     13  C   UNL     1       3.323   2.687  20.441  0.00  0.00    +0.000 C 
ATOM     14  C   UNL     1       2.351   2.846  21.625  0.00  0.00    +0.000 C 
ATOM     15  N   UNL     1       0.946   2.829  21.205  0.00  0.00    +0.000 NA
ATOM     16  C   UNL     1       0.709   3.787  20.114  0.00  0.00    +0.000 C 
ATOM     17  C   UNL     1       1.722   3.658  18.951  0.00  0.00    +0.000 C 
ATOM     18  H   UNL     1       0.353   3.063  21.999  0.00  0.00    +0.000 HD
ENDBRANCH  11  12
ENDBRANCH   2  11
TORSDOF 5
ENDMDL
MODEL 3
REMARK VINA RESULT:      -5.6      0.768      1.859
REMARK  Name = 
REMARK  8 active torsions:
REMARK  status: ('A' for Active; 'I' for Inactive)
REMARK    1  A    between atoms: C_1  and  C_2
REMARK    2  A    between atoms: C_2  and  C_3
REMARK    3  A    between atoms: C_2  and  C_4
REMARK    4  A    between atoms: C_2  and  C_5
REMARK    5  A    between atoms: C_5  and  C_6
REMARK    6  A    between atoms: C_6  and  N_7
REMARK    7  A    between atoms: C_8  and  C_10
REMARK    8  A    between atoms: C_10  and  N_11
REMARK                            x       y       z     vdW  Elec       q    Type
REMARK                         _______ _______ _______ _____ _____    ______ ____
ROOT
ATOM      1  N   UNL     1       4.528   6.111  18.193  0.00  0.00    +0.000 N 
ATOM      2  C   UNL     1       4.691   5.064  19.080  0.00  0.00    +0.000 C 
ATOM      3  O   UNL     1       5.785   4.503  19.272  0.00  0.00    +0.000 OA
ATOM      4  H   UNL     1       3.579   6.470  18.064  0.00  0.00    +0.000 HD
ENDROOT
BRANCH   1   5
ATOM      5  C   UNL     1       5.615   6.504  17.352  0.00  0.00    +0.000 C 
BRANCH   5   6
ATOM      6  C   UNL     1       5.447   6.022  15.916  0.00  0.00    +0.000 C 
BRANCH   6   8
ATOM      7  C   UNL     1       7.524   4.743  16.574  0.00  0.00    +0.000 C 
ATOM      8  C   UNL     1       6.351   4.806  15.582  0.00  0.00    +0.000 C 
ATOM      9  C   UNL     1       6.916   4.913  14.153  0.00  0.00    +0.000 C 
ATOM     10  C   UNL     1       5.546   3.498  15.699  0.00  0.00    +0.000 C 
ENDBRANCH   6   8
ENDBRANCH   5   6
ENDBRANCH   1   5
BRANCH   2  11
ATOM     11  C   UNL     1       3.436   4.657  19.838  0.00  0.00    +0.000 C 
BRANCH  11  12
ATOM     12  N   UNL     1       2.285   4.512  18.910  0.00  0.00    +0.000 NA
ATOM     13  C   UNL     1       2.617   3.589  17.795  0.00  0.00    +0.000 C 
ATOM     14  C   UNL     1       2.797   2.118  18.219  0.00  0.00    +0.000 C 
ATOM     15  N   UNL     1       1.625   1.590  18.927  0.00  0.00    +0.000 NA
ATOM     16  C   UNL     1       1.230   2.479  20.031  0.00  0.00    +0.000 C 
ATOM     17  C   UNL     1       1.104   3.964  19.611  0.00  0.00    +0.000 C 
ATOM     18  H   UNL     1       1.841   0.665  19.294  0.00  0.00    +0.000 HD
ENDBRANCH  11  12
ENDBRANCH   2  11
TORSDOF 5
ENDMDL
MODEL 4
REMARK VINA RESULT:      -5.6      1.687      5.428
REMARK  Name = 
REMARK  8 active torsions:
REMARK  status: ('A' for Active; 'I' for Inactive)
REMARK    1  A    between atoms: C_1  and  C_2
REMARK    2  A    between atoms: C_2  and  C_3
REMARK    3  A    between atoms: C_2  and  C_4
REMARK    4  A    between atoms: C_2  and  C_5
REMARK    5  A    between atoms: C_5  and  C_6
REMARK    6  A    between atoms: C_6  and  N_7
REMARK    7  A    between atoms: C_8  and  C_10
REMARK    8  A    between atoms: C_10  and  N_11
REMARK                            x       y       z     vdW  Elec       q    Type
REMARK                         _______ _______ _______ _____ _____    ______ ____
ROOT
ATOM      1  N   UNL     1       5.111   3.204  19.397  0.00  0.00    +0.000 N 
ATOM      2  C   UNL     1       5.238   4.571  19.247  0.00  0.00    +0.000 C 
ATOM      3  O   UNL     1       4.450   5.386  19.761  0.00  0.00    +0.000 OA
ATOM      4  H   UNL     1       5.776   2.615  18.891  0.00  0.00    +0.000 HD
ENDROOT
BRANCH   1   5
ATOM      5  C   UNL     1       3.963   2.667  20.058  0.00  0.00    +0.000 C 
BRANCH   5   6
ATOM      6  C   UNL     1       2.905   2.169  19.079  0.00  0.00    +0.000 C 
BRANCH   6   8
ATOM      7  C   UNL     1       1.697   4.117  18.017  0.00  0.00    +0.000 C 
ATOM      8  C   UNL     1       1.614   3.031  19.101  0.00  0.00    +0.000 C 
ATOM      9  C   UNL     1       1.428   3.711  20.470  0.00  0.00    +0.000 C 
ATOM     10  C   UNL     1       0.384   2.150  18.814  0.00  0.00    +0.000 C 
ENDBRANCH   6   8
ENDBRANCH   5   6
ENDBRANCH   1   5
BRANCH   2  11
ATOM     11  C   UNL     1       6.438   5.024  18.427  0.00  0.00    +0.000 C 
BRANCH  11  12
ATOM     12  N   UNL     1       6.016   5.949  17.345  0.00  0.00    +0.000 NA
ATOM     13  C   UNL     1       7.082   6.088  16.321  0.00  0.00    +0.000 C 
ATOM     14  C   UNL     1       7.337   4.816  15.491  0.00  0.00    +0.000 C 
ATOM     15  N   UNL     1       6.123   4.321  14.833  0.00  0.00    +0.000 NA
ATOM     16  C   UNL     1       5.018   4.187  15.794  0.00  0.00    +0.000 C 
ATOM     17  C   UNL     1       4.801   5.450  16.663  0.00  0.00    +0.000 C 
ATOM     18  H   UNL     1       6.314   3.417  14.405  0.00  0.00    +0.000 HD
ENDBRANCH  11  12
ENDBRANCH   2  11
TORSDOF 5
ENDMDL
MODEL 5
REMARK VINA RESULT:      -5.6      2.325      5.734
REMARK  Name = 
REMARK  8 active torsions:
REMARK  status: ('A' for Active; 'I' for Inactive)
REMARK    1  A    between atoms: C_1  and  C_2
REMARK    2  A    between atoms: C_2  and  C_3
REMARK    3  A    between atoms: C_2  and  C_4
REMARK    4  A    between atoms: C_2  and  C_5
REMARK    5  A    between atoms: C_5  and  C_6
REMARK    6  A    between atoms: C_6  and  N_7
REMARK    7  A    between atoms: C_8  and  C_10
REMARK    8  A    between atoms: C_10  and  N_11
REMARK                            x       y       z     vdW  Elec       q    Type
REMARK                         _______ _______ _______ _____ _____    ______ ____
ROOT
ATOM      1  N   UNL     1       3.018   6.377  19.206  0.00  0.00    +0.000 N 
ATOM      2  C   UNL     1       3.509   5.881  18.014  0.00  0.00    +0.000 C 
ATOM      3  O   UNL     1       2.968   4.947  17.395  0.00  0.00    +0.000 OA
ATOM      4  H   UNL     1       3.564   7.109  19.667  0.00  0.00    +0.000 HD
ENDROOT
BRANCH   1   5
ATOM      5  C   UNL     1       1.918   5.727  19.846  0.00  0.00    +0.000 C 
BRANCH   5   6
ATOM      6  C   UNL     1       2.364   4.752  20.929  0.00  0.00    +0.000 C 
BRANCH   6   8
ATOM      7  C   UNL     1       3.253   2.591  19.969  0.00  0.00    +0.000 C 
ATOM      8  C   UNL     1       2.024   3.277  20.587  0.00  0.00    +0.000 C 
ATOM      9  C   UNL     1       0.857   3.197  19.586  0.00  0.00    +0.000 C 
ATOM     10  C   UNL     1       1.632   2.513  21.865  0.00  0.00    +0.000 C 
ENDBRANCH   6   8
ENDBRANCH   5   6
ENDBRANCH   1   5
BRANCH   2  11
ATOM     11  C   UNL     1       4.753   6.579  17.485  0.00  0.00    +0.000 C 
BRANCH  11  12
ATOM     12  N   UNL     1       5.822   5.592  17.183  0.00  0.00    +0.000 NA
ATOM     13  C   UNL     1       7.074   6.277  16.773  0.00  0.00    +0.000 C 
ATOM     14  C   UNL     1       7.764   7.071  17.899  0.00  0.00    +0.000 C 
ATOM     15  N   UNL     1       8.050   6.244  19.077  0.00  0.00    +0.000 NA
ATOM     16  C   UNL     1       6.849   5.517  19.516  0.00  0.00    +0.000 C 
ATOM     17  C   UNL     1       6.130   4.764  18.370  0.00  0.00    +0.000 C 
ATOM     18  H   UNL     1       8.385   6.837  19.833  0.00  0.00    +0.000 HD
ENDBRANCH  11  12
ENDBRANCH   2  11
TORSDOF 5
ENDMDL
MODEL 6
REMARK VINA RESULT:      -5.5      1.933      2.962
REMARK  Name = 
REMARK  8 active torsions:
REMARK  status: ('A' for Active; 'I' for Inactive)
REMARK    1  A    between atoms: C_1  and  C_2
REMARK    2  A    between atoms: C_2  and  C_3
REMARK    3  A    between atoms: C_2  and  C_4
REMARK    4  A    between atoms: C_2  and  C_5
REMARK    5  A    between atoms: C_5  and  C_6
REMARK    6  A    between atoms: C_6  and  N_7
REMARK    7  A    between atoms: C_8  and  C_10
REMARK    8  A    between atoms: C_10  and  N_11
REMARK                            x       y       z     vdW  Elec       q    Type
REMARK                         _______ _______ _______ _____ _____    ______ ____
ROOT
ATOM      1  N   UNL     1       6.095   3.923  18.724  0.00  0.00    +0.000 N 
ATOM      2  C   UNL     1       4.995   3.676  17.925  0.00  0.00    +0.000 C 
ATOM      3  O   UNL     1       5.003   3.841  16.691  0.00  0.00    +0.000 OA
ATOM      4  H   UNL     1       5.973   3.811  19.733  0.00  0.00    +0.000 HD
ENDROOT
BRANCH   1   5
ATOM      5  C   UNL     1       7.265   4.517  18.157  0.00  0.00    +0.000 C 
BRANCH   5   6
ATOM      6  C   UNL     1       7.428   5.980  18.552  0.00  0.00    +0.000 C 
BRANCH   6   8
ATOM      7  C   UNL     1       7.326   6.323  16.051  0.00  0.00    +0.000 C 
ATOM      8  C   UNL     1       7.020   6.957  17.418  0.00  0.00    +0.000 C 
ATOM      9  C   UNL     1       7.790   8.286  17.530  0.00  0.00    +0.000 C 
ATOM     10  C   UNL     1       5.510   7.252  17.489  0.00  0.00    +0.000 C 
ENDBRANCH   6   8
ENDBRANCH   5   6
ENDBRANCH   1   5
BRANCH   2  11
ATOM     11  C   UNL     1       3.768   3.153  18.656  0.00  0.00    +0.000 C 
BRANCH  11  12
ATOM     12  N   UNL     1       2.776   4.239  18.861  0.00  0.00    +0.000 NA
ATOM     13  C   UNL     1       1.424   3.812  18.419  0.00  0.00    +0.000 C 
ATOM     14  C   UNL     1       0.788   2.711  19.289  0.00  0.00    +0.000 C 
ATOM     15  N   UNL     1       0.718   3.085  20.706  0.00  0.00    +0.000 NA
ATOM     16  C   UNL     1       2.026   3.544  21.197  0.00  0.00    +0.000 C 
ATOM     17  C   UNL     1       2.684   4.612  20.290  0.00  0.00    +0.000 C 
ATOM     18  H   UNL     1       0.411   2.282  21.253  0.00  0.00    +0.000 HD
ENDBRANCH  11  12
ENDBRANCH   2  11
TORSDOF 5
ENDMDL
MODEL 7
REMARK VINA RESULT:      -5.5      1.179      2.022
REMARK  Name = 
REMARK  8 active torsions:
REMARK  status: ('A' for Active; 'I' for Inactive)
REMARK    1  A    between atoms: C_1  and  C_2
REMARK    2  A    between atoms: C_2  and  C_3
REMARK    3  A    between atoms: C_2  and  C_4
REMARK    4  A    between atoms: C_2  and  C_5
REMARK    5  A    between atoms: C_5  and  C_6
REMARK    6  A    between atoms: C_6  and  N_7
REMARK    7  A    between atoms: C_8  and  C_10
REMARK    8  A    between atoms: C_10  and  N_11
REMARK                            x       y       z     vdW  Elec       q    Type
REMARK                         _______ _______ _______ _____ _____    ______ ____
ROOT
ATOM      1  N   UNL     1       5.338   5.188  18.793  0.00  0.00    +0.000 N 
ATOM      2  C   UNL     1       4.059   5.679  18.973  0.00  0.00    +0.000 C 
ATOM      3  O   UNL     1       3.649   6.718  18.425  0.00  0.00    +0.000 OA
ATOM      4  H   UNL     1       5.599   4.357  19.329  0.00  0.00    +0.000 HD
ENDROOT
BRANCH   1   5
ATOM      5  C   UNL     1       6.295   5.953  18.057  0.00  0.00    +0.000 C 
BRANCH   5   6
ATOM      6  C   UNL     1       6.977   5.140  16.963  0.00  0.00    +0.000 C 
BRANCH   6   8
ATOM      7  C   UNL     1       5.336   6.355  15.476  0.00  0.00    +0.000 C 
ATOM      8  C   UNL     1       6.134   5.054  15.664  0.00  0.00    +0.000 C 
ATOM      9  C   UNL     1       5.148   3.873  15.722  0.00  0.00    +0.000 C 
ATOM     10  C   UNL     1       7.056   4.870  14.444  0.00  0.00    +0.000 C 
ENDBRANCH   6   8
ENDBRANCH   5   6
ENDBRANCH   1   5
BRANCH   2  11
ATOM     11  C   UNL     1       3.163   4.837  19.869  0.00  0.00    +0.000 C 
BRANCH  11  12
ATOM     12  N   UNL     1       1.838   4.620  19.233  0.00  0.00    +0.000 NA
ATOM     13  C   UNL     1       1.984   3.919  17.933  0.00  0.00    +0.000 C 
ATOM     14  C   UNL     1       2.461   2.458  18.047  0.00  0.00    +0.000 C 
ATOM     15  N   UNL     1       1.597   1.652  18.916  0.00  0.00    +0.000 NA
ATOM     16  C   UNL     1       1.392   2.309  20.215  0.00  0.00    +0.000 C 
ATOM     17  C   UNL     1       0.965   3.792  20.095  0.00  0.00    +0.000 C 
ATOM     18  H   UNL     1       2.022   0.737  19.060  0.00  0.00    +0.000 HD
ENDBRANCH  11  12
ENDBRANCH   2  11
TORSDOF 5
ENDMDL
MODEL 8
REMARK VINA RESULT:      -5.4      1.507      2.271
REMARK  Name = 
REMARK  8 active torsions:
REMARK  status: ('A' for Active; 'I' for Inactive)
REMARK    1  A    between atoms: C_1  and  C_2
REMARK    2  A    between atoms: C_2  and  C_3
REMARK    3  A    between atoms: C_2  and  C_4
REMARK    4  A    between atoms: C_2  and  C_5
REMARK    5  A    between atoms: C_5  and  C_6
REMARK    6  A    between atoms: C_6  and  N_7
REMARK    7  A    between atoms: C_8  and  C_10
REMARK    8  A    between atoms: C_10  and  N_11
REMARK                            x       y       z     vdW  Elec       q    Type
REMARK                         _______ _______ _______ _____ _____    ______ ____
ROOT
ATOM      1  N   UNL     1       5.224   3.844  17.628  0.00  0.00    +0.000 N 
ATOM      2  C   UNL     1       5.216   4.065  18.991  0.00  0.00    +0.000 C 
ATOM      3  O   UNL     1       6.082   4.744  19.572  0.00  0.00    +0.000 OA
ATOM      4  H   UNL     1       4.501   3.227  17.250  0.00  0.00    +0.000 HD
ENDROOT
BRANCH   1   5
ATOM      5  C   UNL     1       6.332   4.292  16.842  0.00  0.00    +0.000 C 
BRANCH   5   6
ATOM      6  C   UNL     1       6.406   3.599  15.487  0.00  0.00    +0.000 C 
BRANCH   6   8
ATOM      7  C   UNL     1       5.352   5.788  14.796  0.00  0.00    +0.000 C 
ATOM      8  C   UNL     1       6.144   4.566  14.302  0.00  0.00    +0.000 C 
ATOM      9  C   UNL     1       5.339   3.871  13.189  0.00  0.00    +0.000 C 
ATOM     10  C   UNL     1       7.480   5.058  13.715  0.00  0.00    +0.000 C 
ENDBRANCH   6   8
ENDBRANCH   5   6
ENDBRANCH   1   5
BRANCH   2  11
ATOM     11  C   UNL     1       4.047   3.444  19.741  0.00  0.00    +0.000 C 
BRANCH  11  12
ATOM     12  N   UNL     1       2.993   4.457  20.003  0.00  0.00    +0.000 NA
ATOM     13  C   UNL     1       1.993   4.478  18.905  0.00  0.00    +0.000 C 
ATOM     14  C   UNL     1       1.121   3.211  18.814  0.00  0.00    +0.000 C 
ATOM     15  N   UNL     1       0.424   2.918  20.071  0.00  0.00    +0.000 NA
ATOM     16  C   UNL     1       1.361   2.909  21.205  0.00  0.00    +0.000 C 
ATOM     17  C   UNL     1       2.272   4.159  21.261  0.00  0.00    +0.000 C 
ATOM     18  H   UNL     1      -0.034   2.010  20.000  0.00  0.00    +0.000 HD
ENDBRANCH  11  12
ENDBRANCH   2  11
TORSDOF 5
ENDMDL
MODEL 9
REMARK VINA RESULT:      -5.4      2.256      3.627
REMARK  Name = 
REMARK  8 active torsions:
REMARK  status: ('A' for Active; 'I' for Inactive)
REMARK    1  A    between atoms: C_1  and  C_2
REMARK    2  A    between atoms: C_2  and  C_3
REMARK    3  A    between atoms: C_2  and  C_4
REMARK    4  A    between atoms: C_2  and  C_5
REMARK    5  A    between atoms: C_5  and  C_6
REMARK    6  A    between atoms: C_6  and  N_7
REMARK    7  A    between atoms: C_8  and  C_10
REMARK    8  A    between atoms: C_10  and  N_11
REMARK                            x       y       z     vdW  Elec       q    Type
REMARK                         _______ _______ _______ _____ _____    ______ ____
ROOT
ATOM      1  N   UNL     1       5.967   4.897  15.493  0.00  0.00    +0.000 N 
ATOM      2  C   UNL     1       6.600   4.703  16.705  0.00  0.00    +0.000 C 
ATOM      3  O   UNL     1       7.806   4.411  16.799  0.00  0.00    +0.000 OA
ATOM      4  H   UNL     1       4.960   5.080  15.516  0.00  0.00    +0.000 HD
ENDROOT
BRANCH   1   5
ATOM      5  C   UNL     1       6.667   4.633  14.275  0.00  0.00    +0.000 C 
BRANCH   5   6
ATOM      6  C   UNL     1       6.278   3.295  13.655  0.00  0.00    +0.000 C 
BRANCH   6   8
ATOM      7  C   UNL     1       4.762   3.541  11.650  0.00  0.00    +0.000 C 
ATOM      8  C   UNL     1       6.217   3.346  12.106  0.00  0.00    +0.000 C 
ATOM      9  C   UNL     1       6.760   2.044  11.489  0.00  0.00    +0.000 C 
ATOM     10  C   UNL     1       7.053   4.529  11.581  0.00  0.00    +0.000 C 
ENDBRANCH   6   8
ENDBRANCH   5   6
ENDBRANCH   1   5
BRANCH   2  11
ATOM     11  C   UNL     1       5.724   4.902  17.933  0.00  0.00    +0.000 C 
BRANCH  11  12
ATOM     12  N   UNL     1       4.301   4.624  17.613  0.00  0.00    +0.000 NA
ATOM     13  C   UNL     1       3.934   3.235  17.992  0.00  0.00    +0.000 C 
ATOM     14  C   UNL     1       3.916   2.974  19.510  0.00  0.00    +0.000 C 
ATOM     15  N   UNL     1       3.035   3.900  20.230  0.00  0.00    +0.000 NA
ATOM     16  C   UNL     1       3.332   5.296  19.874  0.00  0.00    +0.000 C 
ATOM     17  C   UNL     1       3.402   5.542  18.347  0.00  0.00    +0.000 C 
ATOM     18  H   UNL     1       3.154   3.771  21.233  0.00  0.00    +0.000 HD
ENDBRANCH  11  12
ENDBRANCH   2  11
TORSDOF 5
ENDMDL
