MODEL 1
REMARK VINA RESULT:      -9.4      0.000      0.000
REMARK  Name = 
REMARK  9 active torsions:
REMARK  status: ('A' for Active; 'I' for Inactive)
REMARK    1  A    between atoms: C_1  and  C_2
REMARK    2  A    between atoms: N_5  and  S_6
REMARK    3  A    between atoms: S_6  and  C_9
REMARK    4  A    between atoms: C_12  and  N_13
REMARK    5  A    between atoms: N_15  and  C_16
REMARK    6  A    between atoms: C_20  and  C_21
REMARK    7  A    between atoms: C_22  and  C_23
REMARK    8  A    between atoms: C_28  and  C_29
REMARK    9  A    between atoms: C_28  and  C_30
REMARK                            x       y       z     vdW  Elec       q    Type
REMARK                         _______ _______ _______ _____ _____    ______ ____
ROOT
ATOM      1  N   UNL     1       1.644  10.149  18.076  0.00  0.00    +0.000 N 
ATOM      2  C   UNL     1       1.978   8.848  18.332  0.00  0.00    +0.000 C 
ATOM      3  N   UNL     1       2.838   8.161  17.649  0.00  0.00    +0.000 NA
ATOM      4  H   UNL     1       2.137  10.582  17.304  0.00  0.00    +0.000 HD
ENDROOT
BRANCH   3   5
ATOM      5  C   UNL     1       3.108   6.835  18.037  0.00  0.00    +0.000 A 
ATOM      6  N   UNL     1       2.422   6.338  19.095  0.00  0.00    +0.000 NA
ATOM      7  C   UNL     1       2.643   5.045  19.469  0.00  0.00    +0.000 A 
ATOM      8  C   UNL     1       3.577   4.211  18.828  0.00  0.00    +0.000 A 
ATOM      9  C   UNL     1       4.284   4.721  17.721  0.00  0.00    +0.000 A 
ATOM     10  C   UNL     1       5.294   3.925  16.925  0.00  0.00    +0.000 C 
ATOM     11  C   UNL     1       4.020   6.056  17.316  0.00  0.00    +0.000 A 
ATOM     12  C   UNL     1       3.728   2.810  19.334  0.00  0.00    +0.000 C 
ATOM     13  O   UNL     1       4.227   1.911  18.669  0.00  0.00    +0.000 OA
ATOM     14  C   UNL     1       3.178   2.514  20.704  0.00  0.00    +0.000 C 
ATOM     15  C   UNL     1       1.741   3.033  20.788  0.00  0.00    +0.000 C 
ATOM     16  C   UNL     1       0.854   2.408  19.688  0.00  0.00    +0.000 C 
ATOM     17  C   UNL     1       1.149   2.631  22.148  0.00  0.00    +0.000 C 
ATOM     18  C   UNL     1       1.805   4.569  20.643  0.00  0.00    +0.000 C 
BRANCH  11  19
ATOM     19  C   UNL     1       4.692   6.642  16.198  0.00  0.00    +0.000 C 
ATOM     20  N   UNL     1       5.230   7.062  15.263  0.00  0.00    +0.000 NA
ENDBRANCH  11  19
ENDBRANCH   3   5
BRANCH   1  24
ATOM     21  C   UNL     1      -1.105  12.571  20.221  0.00  0.00    +0.000 A 
ATOM     22  C   UNL     1      -0.102  13.174  19.462  0.00  0.00    +0.000 A 
ATOM     23  C   UNL     1       0.805  12.379  18.745  0.00  0.00    +0.000 A 
ATOM     24  C   UNL     1       0.747  10.976  18.781  0.00  0.00    +0.000 A 
ATOM     25  C   UNL     1      -0.248  10.393  19.588  0.00  0.00    +0.000 A 
ATOM     26  C   UNL     1      -1.160  11.180  20.310  0.00  0.00    +0.000 A 
BRANCH  21  27
ATOM     27  S   UNL     1      -2.233  13.565  21.179  0.00  0.00    +0.000 S 
ATOM     28  O   UNL     1      -1.617  14.863  21.376  0.00  0.00    +0.000 OA
ATOM     29  O   UNL     1      -2.674  12.774  22.309  0.00  0.00    +0.000 OA
BRANCH  27  34
ATOM     30  C   UNL     1      -7.628  11.008  20.516  0.00  0.00    +0.000 C 
ATOM     31  C   UNL     1      -6.356  11.686  20.217  0.00  0.00    +0.000 A 
ATOM     32  C   UNL     1      -5.689  12.751  20.769  0.00  0.00    +0.000 A 
ATOM     33  C   UNL     1      -4.515  12.862  20.005  0.00  0.00    +0.000 A 
ATOM     34  N   UNL     1      -3.549  13.829  20.184  0.00  0.00    +0.000 N 
ATOM     35  N   UNL     1      -4.489  11.974  19.008  0.00  0.00    +0.000 NA
ATOM     36  O   UNL     1      -5.633  11.206  19.167  0.00  0.00    +0.000 OA
ATOM     37  H   UNL     1      -3.443  14.570  19.500  0.00  0.00    +0.000 HD
ENDBRANCH  27  34
ENDBRANCH  21  27
ENDBRANCH   1  24
TORSDOF 5
ENDMDL
MODEL 2
REMARK VINA RESULT:      -9.3      2.315      4.145
REMARK  Name = 
REMARK  9 active torsions:
REMARK  status: ('A' for Active; 'I' for Inactive)
REMARK    1  A    between atoms: C_1  and  C_2
REMARK    2  A    between atoms: N_5  and  S_6
REMARK    3  A    between atoms: S_6  and  C_9
REMARK    4  A    between atoms: C_12  and  N_13
REMARK    5  A    between atoms: N_15  and  C_16
REMARK    6  A    between atoms: C_20  and  C_21
REMARK    7  A    between atoms: C_22  and  C_23
REMARK    8  A    between atoms: C_28  and  C_29
REMARK    9  A    between atoms: C_28  and  C_30
REMARK                            x       y       z     vdW  Elec       q    Type
REMARK                         _______ _______ _______ _____ _____    ______ ____
ROOT
ATOM      1  N   UNL     1       0.469  10.585  18.227  0.00  0.00    +0.000 N 
ATOM      2  C   UNL     1       1.087   9.366  18.196  0.00  0.00    +0.000 C 
ATOM      3  N   UNL     1       2.370   9.190  18.252  0.00  0.00    +0.000 NA
ATOM      4  H   UNL     1       1.085  11.384  18.322  0.00  0.00    +0.000 HD
ENDROOT
BRANCH   3   5
ATOM      5  C   UNL     1       2.875   7.876  18.235  0.00  0.00    +0.000 A 
ATOM      6  N   UNL     1       3.673   7.522  17.198  0.00  0.00    +0.000 NA
ATOM      7  C   UNL     1       4.200   6.265  17.178  0.00  0.00    +0.000 A 
ATOM      8  C   UNL     1       3.925   5.303  18.167  0.00  0.00    +0.000 A 
ATOM      9  C   UNL     1       3.104   5.670  19.252  0.00  0.00    +0.000 A 
ATOM     10  C   UNL     1       2.752   4.744  20.395  0.00  0.00    +0.000 C 
ATOM     11  C   UNL     1       2.590   6.993  19.284  0.00  0.00    +0.000 A 
ATOM     12  C   UNL     1       4.565   3.956  18.030  0.00  0.00    +0.000 C 
ATOM     13  O   UNL     1       4.687   3.178  18.968  0.00  0.00    +0.000 OA
ATOM     14  C   UNL     1       5.125   3.597  16.680  0.00  0.00    +0.000 C 
ATOM     15  C   UNL     1       6.016   4.741  16.190  0.00  0.00    +0.000 C 
ATOM     16  C   UNL     1       7.150   5.039  17.197  0.00  0.00    +0.000 C 
ATOM     17  C   UNL     1       6.671   4.323  14.863  0.00  0.00    +0.000 C 
ATOM     18  C   UNL     1       5.107   5.973  15.996  0.00  0.00    +0.000 C 
BRANCH  11  19
ATOM     19  C   UNL     1       1.756   7.442  20.354  0.00  0.00    +0.000 C 
ATOM     20  N   UNL     1       1.078   7.861  21.193  0.00  0.00    +0.000 NA
ENDBRANCH  11  19
ENDBRANCH   3   5
BRANCH   1  24
ATOM     21  C   UNL     1      -3.681  11.481  18.214  0.00  0.00    +0.000 A 
ATOM     22  C   UNL     1      -3.193  10.462  17.396  0.00  0.00    +0.000 A 
ATOM     23  C   UNL     1      -1.824  10.157  17.401  0.00  0.00    +0.000 A 
ATOM     24  C   UNL     1      -0.912  10.865  18.201  0.00  0.00    +0.000 A 
ATOM     25  C   UNL     1      -1.424  11.915  18.985  0.00  0.00    +0.000 A 
ATOM     26  C   UNL     1      -2.793  12.230  18.987  0.00  0.00    +0.000 A 
BRANCH  21  27
ATOM     27  S   UNL     1      -5.410  11.916  18.182  0.00  0.00    +0.000 S 
ATOM     28  O   UNL     1      -6.147  10.835  18.807  0.00  0.00    +0.000 OA
ATOM     29  O   UNL     1      -5.733  12.355  16.840  0.00  0.00    +0.000 OA
BRANCH  27  34
ATOM     30  C   UNL     1      -6.798  12.622  23.983  0.00  0.00    +0.000 C 
ATOM     31  C   UNL     1      -6.685  12.856  22.534  0.00  0.00    +0.000 A 
ATOM     32  C   UNL     1      -5.649  12.801  21.636  0.00  0.00    +0.000 A 
ATOM     33  C   UNL     1      -6.239  13.125  20.402  0.00  0.00    +0.000 A 
ATOM     34  N   UNL     1      -5.558  13.226  19.207  0.00  0.00    +0.000 N 
ATOM     35  N   UNL     1      -7.533  13.426  20.537  0.00  0.00    +0.000 NA
ATOM     36  O   UNL     1      -7.823  13.216  21.877  0.00  0.00    +0.000 OA
ATOM     37  H   UNL     1      -5.411  14.136  18.785  0.00  0.00    +0.000 HD
ENDBRANCH  27  34
ENDBRANCH  21  27
ENDBRANCH   1  24
TORSDOF 5
ENDMDL
MODEL 3
REMARK VINA RESULT:      -9.3      2.094      2.988
REMARK  Name = 
REMARK  9 active torsions:
REMARK  status: ('A' for Active; 'I' for Inactive)
REMARK    1  A    between atoms: C_1  and  C_2
REMARK    2  A    between atoms: N_5  and  S_6
REMARK    3  A    between atoms: S_6  and  C_9
REMARK    4  A    between atoms: C_12  and  N_13
REMARK    5  A    between atoms: N_15  and  C_16
REMARK    6  A    between atoms: C_20  and  C_21
REMARK    7  A    between atoms: C_22  and  C_23
REMARK    8  A    between atoms: C_28  and  C_29
REMARK    9  A    between atoms: C_28  and  C_30
REMARK                            x       y       z     vdW  Elec       q    Type
REMARK                         _______ _______ _______ _____ _____    ______ ____
ROOT
ATOM      1  N   UNL     1       1.831  10.150  18.035  0.00  0.00    +0.000 N 
ATOM      2  C   UNL     1       2.104   8.827  18.246  0.00  0.00    +0.000 C 
ATOM      3  N   UNL     1       3.075   8.177  17.686  0.00  0.00    +0.000 NA
ATOM      4  H   UNL     1       2.463  10.630  17.407  0.00  0.00    +0.000 HD
ENDROOT
BRANCH   3   5
ATOM      5  C   UNL     1       3.260   6.820  18.012  0.00  0.00    +0.000 A 
ATOM      6  N   UNL     1       2.586   6.334  19.082  0.00  0.00    +0.000 NA
ATOM      7  C   UNL     1       2.724   5.014  19.397  0.00  0.00    +0.000 A 
ATOM      8  C   UNL     1       3.563   4.140  18.683  0.00  0.00    +0.000 A 
ATOM      9  C   UNL     1       4.257   4.639  17.563  0.00  0.00    +0.000 A 
ATOM     10  C   UNL     1       5.167   3.803  16.692  0.00  0.00    +0.000 C 
ATOM     11  C   UNL     1       4.077   6.005  17.220  0.00  0.00    +0.000 A 
ATOM     12  C   UNL     1       3.629   2.712  19.130  0.00  0.00    +0.000 C 
ATOM     13  O   UNL     1       4.028   1.806  18.409  0.00  0.00    +0.000 OA
ATOM     14  C   UNL     1       3.119   2.402  20.512  0.00  0.00    +0.000 C 
ATOM     15  C   UNL     1       1.731   3.024  20.683  0.00  0.00    +0.000 C 
ATOM     16  C   UNL     1       0.751   2.510  19.604  0.00  0.00    +0.000 C 
ATOM     17  C   UNL     1       1.172   2.612  22.054  0.00  0.00    +0.000 C 
ATOM     18  C   UNL     1       1.906   4.555  20.592  0.00  0.00    +0.000 C 
BRANCH  11  19
ATOM     19  C   UNL     1       4.742   6.584  16.094  0.00  0.00    +0.000 C 
ATOM     20  N   UNL     1       5.291   6.994  15.162  0.00  0.00    +0.000 NA
ENDBRANCH  11  19
ENDBRANCH   3   5
BRANCH   1  24
ATOM     21  C   UNL     1      -1.264  12.453  19.809  0.00  0.00    +0.000 A 
ATOM     22  C   UNL     1      -0.153  13.095  19.262  0.00  0.00    +0.000 A 
ATOM     23  C   UNL     1       0.869  12.340  18.668  0.00  0.00    +0.000 A 
ATOM     24  C   UNL     1       0.820  10.937  18.621  0.00  0.00    +0.000 A 
ATOM     25  C   UNL     1      -0.291  10.312  19.217  0.00  0.00    +0.000 A 
ATOM     26  C   UNL     1      -1.320  11.058  19.815  0.00  0.00    +0.000 A 
BRANCH  21  27
ATOM     27  S   UNL     1      -2.547  13.394  20.613  0.00  0.00    +0.000 S 
ATOM     28  O   UNL     1      -3.822  12.905  20.125  0.00  0.00    +0.000 OA
ATOM     29  O   UNL     1      -2.201  14.796  20.508  0.00  0.00    +0.000 OA
BRANCH  27  34
ATOM     30  C   UNL     1      -2.055  16.389  25.796  0.00  0.00    +0.000 C 
ATOM     31  C   UNL     1      -1.919  15.346  24.766  0.00  0.00    +0.000 A 
ATOM     32  C   UNL     1      -2.800  14.716  23.923  0.00  0.00    +0.000 A 
ATOM     33  C   UNL     1      -2.001  13.831  23.180  0.00  0.00    +0.000 A 
ATOM     34  N   UNL     1      -2.474  12.958  22.224  0.00  0.00    +0.000 N 
ATOM     35  N   UNL     1      -0.727  13.861  23.580  0.00  0.00    +0.000 NA
ATOM     36  O   UNL     1      -0.669  14.847  24.554  0.00  0.00    +0.000 OA
ATOM     37  H   UNL     1      -2.490  11.962  22.413  0.00  0.00    +0.000 HD
ENDBRANCH  27  34
ENDBRANCH  21  27
ENDBRANCH   1  24
TORSDOF 5
ENDMDL
MODEL 4
REMARK VINA RESULT:      -9.3      1.775      2.442
REMARK  Name = 
REMARK  9 active torsions:
REMARK  status: ('A' for Active; 'I' for Inactive)
REMARK    1  A    between atoms: C_1  and  C_2
REMARK    2  A    between atoms: N_5  and  S_6
REMARK    3  A    between atoms: S_6  and  C_9
REMARK    4  A    between atoms: C_12  and  N_13
REMARK    5  A    between atoms: N_15  and  C_16
REMARK    6  A    between atoms: C_20  and  C_21
REMARK    7  A    between atoms: C_22  and  C_23
REMARK    8  A    between atoms: C_28  and  C_29
REMARK    9  A    between atoms: C_28  and  C_30
REMARK                            x       y       z     vdW  Elec       q    Type
REMARK                         _______ _______ _______ _____ _____    ______ ____
ROOT
ATOM      1  N   UNL     1       0.791   9.742  17.700  0.00  0.00    +0.000 N 
ATOM      2  C   UNL     1       1.287   8.507  18.011  0.00  0.00    +0.000 C 
ATOM      3  N   UNL     1       2.534   8.169  17.914  0.00  0.00    +0.000 NA
ATOM      4  H   UNL     1       1.476  10.423  17.396  0.00  0.00    +0.000 HD
ENDROOT
BRANCH   3   5
ATOM      5  C   UNL     1       2.915   6.868  18.293  0.00  0.00    +0.000 A 
ATOM      6  N   UNL     1       2.241   6.288  19.316  0.00  0.00    +0.000 NA
ATOM      7  C   UNL     1       2.571   5.015  19.678  0.00  0.00    +0.000 A 
ATOM      8  C   UNL     1       3.605   4.287  19.061  0.00  0.00    +0.000 A 
ATOM      9  C   UNL     1       4.300   4.882  17.990  0.00  0.00    +0.000 A 
ATOM     10  C   UNL     1       5.411   4.201  17.223  0.00  0.00    +0.000 C 
ATOM     11  C   UNL     1       3.924   6.193  17.595  0.00  0.00    +0.000 A 
ATOM     12  C   UNL     1       3.870   2.897  19.552  0.00  0.00    +0.000 C 
ATOM     13  O   UNL     1       4.478   2.062  18.892  0.00  0.00    +0.000 OA
ATOM     14  C   UNL     1       3.300   2.523  20.894  0.00  0.00    +0.000 C 
ATOM     15  C   UNL     1       1.818   2.902  20.930  0.00  0.00    +0.000 C 
ATOM     16  C   UNL     1       1.037   2.216  19.787  0.00  0.00    +0.000 C 
ATOM     17  C   UNL     1       1.217   2.420  22.260  0.00  0.00    +0.000 C 
ATOM     18  C   UNL     1       1.740   4.439  20.811  0.00  0.00    +0.000 C 
BRANCH  11  19
ATOM     19  C   UNL     1       4.578   6.861  16.513  0.00  0.00    +0.000 C 
ATOM     20  N   UNL     1       5.090   7.355  15.601  0.00  0.00    +0.000 NA
ENDBRANCH  11  19
ENDBRANCH   3   5
BRANCH   1  24
ATOM     21  C   UNL     1      -3.191  11.165  18.082  0.00  0.00    +0.000 A 
ATOM     22  C   UNL     1      -2.885  10.230  17.092  0.00  0.00    +0.000 A 
ATOM     23  C   UNL     1      -1.573   9.751  16.966  0.00  0.00    +0.000 A 
ATOM     24  C   UNL     1      -0.538  10.201  17.803  0.00  0.00    +0.000 A 
ATOM     25  C   UNL     1      -0.865  11.175  18.765  0.00  0.00    +0.000 A 
ATOM     26  C   UNL     1      -2.175  11.662  18.899  0.00  0.00    +0.000 A 
BRANCH  21  27
ATOM     27  S   UNL     1      -4.842  11.822  18.223  0.00  0.00    +0.000 S 
ATOM     28  O   UNL     1      -5.645  10.846  18.934  0.00  0.00    +0.000 OA
ATOM     29  O   UNL     1      -5.244  12.301  16.917  0.00  0.00    +0.000 OA
BRANCH  27  34
ATOM     30  C   UNL     1      -6.125  12.855  24.000  0.00  0.00    +0.000 C 
ATOM     31  C   UNL     1      -5.941  13.049  22.552  0.00  0.00    +0.000 A 
ATOM     32  C   UNL     1      -4.930  12.760  21.670  0.00  0.00    +0.000 A 
ATOM     33  C   UNL     1      -5.415  13.199  20.427  0.00  0.00    +0.000 A 
ATOM     34  N   UNL     1      -4.711  13.138  19.243  0.00  0.00    +0.000 N 
ATOM     35  N   UNL     1      -6.611  13.781  20.540  0.00  0.00    +0.000 NA
ATOM     36  O   UNL     1      -6.961  13.649  21.876  0.00  0.00    +0.000 OA
ATOM     37  H   UNL     1      -4.359  13.991  18.820  0.00  0.00    +0.000 HD
ENDBRANCH  27  34
ENDBRANCH  21  27
ENDBRANCH   1  24
TORSDOF 5
ENDMDL
MODEL 5
REMARK VINA RESULT:      -9.2      1.466      1.753
REMARK  Name = 
REMARK  9 active torsions:
REMARK  status: ('A' for Active; 'I' for Inactive)
REMARK    1  A    between atoms: C_1  and  C_2
REMARK    2  A    between atoms: N_5  and  S_6
REMARK    3  A    between atoms: S_6  and  C_9
REMARK    4  A    between atoms: C_12  and  N_13
REMARK    5  A    between atoms: N_15  and  C_16
REMARK    6  A    between atoms: C_20  and  C_21
REMARK    7  A    between atoms: C_22  and  C_23
REMARK    8  A    between atoms: C_28  and  C_29
REMARK    9  A    between atoms: C_28  and  C_30
REMARK                            x       y       z     vdW  Elec       q    Type
REMARK                         _______ _______ _______ _____ _____    ______ ____
ROOT
ATOM      1  N   UNL     1       1.695  10.191  18.194  0.00  0.00    +0.000 N 
ATOM      2  C   UNL     1       2.016   8.880  18.412  0.00  0.00    +0.000 C 
ATOM      3  N   UNL     1       2.870   8.205  17.708  0.00  0.00    +0.000 NA
ATOM      4  H   UNL     1       2.192  10.641  17.435  0.00  0.00    +0.000 HD
ENDROOT
BRANCH   3   5
ATOM      5  C   UNL     1       3.126   6.865  18.057  0.00  0.00    +0.000 A 
ATOM      6  N   UNL     1       2.458   6.353  19.119  0.00  0.00    +0.000 NA
ATOM      7  C   UNL     1       2.666   5.048  19.455  0.00  0.00    +0.000 A 
ATOM      8  C   UNL     1       3.571   4.216  18.771  0.00  0.00    +0.000 A 
ATOM      9  C   UNL     1       4.260   4.741  17.661  0.00  0.00    +0.000 A 
ATOM     10  C   UNL     1       5.238   3.949  16.822  0.00  0.00    +0.000 C 
ATOM     11  C   UNL     1       4.008   6.090  17.295  0.00  0.00    +0.000 A 
ATOM     12  C   UNL     1       3.710   2.800  19.239  0.00  0.00    +0.000 C 
ATOM     13  O   UNL     1       4.178   1.910  18.540  0.00  0.00    +0.000 OA
ATOM     14  C   UNL     1       3.187   2.478  20.614  0.00  0.00    +0.000 C 
ATOM     15  C   UNL     1       1.762   3.018  20.745  0.00  0.00    +0.000 C 
ATOM     16  C   UNL     1       0.839   2.435  19.651  0.00  0.00    +0.000 C 
ATOM     17  C   UNL     1       1.195   2.592  22.108  0.00  0.00    +0.000 C 
ATOM     18  C   UNL     1       1.848   4.556  20.636  0.00  0.00    +0.000 C 
BRANCH  11  19
ATOM     19  C   UNL     1       4.664   6.693  16.176  0.00  0.00    +0.000 C 
ATOM     20  N   UNL     1       5.151   7.156  15.234  0.00  0.00    +0.000 NA
ENDBRANCH  11  19
ENDBRANCH   3   5
BRANCH   1  24
ATOM     21  C   UNL     1      -1.046  12.623  20.338  0.00  0.00    +0.000 A 
ATOM     22  C   UNL     1       0.312  12.668  20.657  0.00  0.00    +0.000 A 
ATOM     23  C   UNL     1       1.223  11.872  19.947  0.00  0.00    +0.000 A 
ATOM     24  C   UNL     1       0.806  11.005  18.923  0.00  0.00    +0.000 A 
ATOM     25  C   UNL     1      -0.573  10.948  18.651  0.00  0.00    +0.000 A 
ATOM     26  C   UNL     1      -1.494  11.739  19.356  0.00  0.00    +0.000 A 
BRANCH  21  27
ATOM     27  S   UNL     1      -2.223  13.589  21.265  0.00  0.00    +0.000 S 
ATOM     28  O   UNL     1      -2.602  14.724  20.446  0.00  0.00    +0.000 OA
ATOM     29  O   UNL     1      -1.691  13.781  22.598  0.00  0.00    +0.000 OA
BRANCH  27  34
ATOM     30  C   UNL     1      -7.478  14.036  24.141  0.00  0.00    +0.000 C 
ATOM     31  C   UNL     1      -6.261  13.475  23.532  0.00  0.00    +0.000 A 
ATOM     32  C   UNL     1      -5.637  13.636  22.320  0.00  0.00    +0.000 A 
ATOM     33  C   UNL     1      -4.501  12.812  22.400  0.00  0.00    +0.000 A 
ATOM     34  N   UNL     1      -3.588  12.633  21.382  0.00  0.00    +0.000 N 
ATOM     35  N   UNL     1      -4.460  12.137  23.550  0.00  0.00    +0.000 NA
ATOM     36  O   UNL     1      -5.549  12.586  24.282  0.00  0.00    +0.000 OA
ATOM     37  H   UNL     1      -3.552  11.749  20.885  0.00  0.00    +0.000 HD
ENDBRANCH  27  34
ENDBRANCH  21  27
ENDBRANCH   1  24
TORSDOF 5
ENDMDL
MODEL 6
REMARK VINA RESULT:      -9.2      3.311     10.811
REMARK  Name = 
REMARK  9 active torsions:
REMARK  status: ('A' for Active; 'I' for Inactive)
REMARK    1  A    between atoms: C_1  and  C_2
REMARK    2  A    between atoms: N_5  and  S_6
REMARK    3  A    between atoms: S_6  and  C_9
REMARK    4  A    between atoms: C_12  and  N_13
REMARK    5  A    between atoms: N_15  and  C_16
REMARK    6  A    between atoms: C_20  and  C_21
REMARK    7  A    between atoms: C_22  and  C_23
REMARK    8  A    between atoms: C_28  and  C_29
REMARK    9  A    between atoms: C_28  and  C_30
REMARK                            x       y       z     vdW  Elec       q    Type
REMARK                         _______ _______ _______ _____ _____    ______ ____
ROOT
ATOM      1  N   UNL     1       2.016   9.090  18.195  0.00  0.00    +0.000 N 
ATOM      2  C   UNL     1       1.006   9.747  18.841  0.00  0.00    +0.000 C 
ATOM      3  N   UNL     1       0.622  10.954  18.571  0.00  0.00    +0.000 NA
ATOM      4  H   UNL     1       2.460   9.604  17.444  0.00  0.00    +0.000 HD
ENDROOT
BRANCH   3   5
ATOM      5  C   UNL     1      -0.451  11.504  19.298  0.00  0.00    +0.000 A 
ATOM      6  N   UNL     1      -0.166  12.107  20.478  0.00  0.00    +0.000 NA
ATOM      7  C   UNL     1      -1.185  12.676  21.184  0.00  0.00    +0.000 A 
ATOM      8  C   UNL     1      -2.526  12.633  20.762  0.00  0.00    +0.000 A 
ATOM      9  C   UNL     1      -2.825  12.015  19.532  0.00  0.00    +0.000 A 
ATOM     10  C   UNL     1      -4.217  11.925  18.949  0.00  0.00    +0.000 C 
ATOM     11  C   UNL     1      -1.752  11.460  18.785  0.00  0.00    +0.000 A 
ATOM     12  C   UNL     1      -3.553  13.294  21.629  0.00  0.00    +0.000 C 
ATOM     13  O   UNL     1      -4.659  13.624  21.219  0.00  0.00    +0.000 OA
ATOM     14  C   UNL     1      -3.155  13.606  23.047  0.00  0.00    +0.000 C 
ATOM     15  C   UNL     1      -1.812  14.338  23.039  0.00  0.00    +0.000 C 
ATOM     16  C   UNL     1      -1.882  15.627  22.189  0.00  0.00    +0.000 C 
ATOM     17  C   UNL     1      -1.466  14.749  24.479  0.00  0.00    +0.000 C 
ATOM     18  C   UNL     1      -0.764  13.356  22.475  0.00  0.00    +0.000 C 
BRANCH  11  19
ATOM     19  C   UNL     1      -1.974  10.823  17.525  0.00  0.00    +0.000 C 
ATOM     20  N   UNL     1      -2.130  10.255  16.528  0.00  0.00    +0.000 NA
ENDBRANCH  11  19
ENDBRANCH   3   5
BRANCH   1  24
ATOM     21  C   UNL     1       3.416   5.119  18.740  0.00  0.00    +0.000 A 
ATOM     22  C   UNL     1       2.859   5.808  19.818  0.00  0.00    +0.000 A 
ATOM     23  C   UNL     1       2.388   7.118  19.642  0.00  0.00    +0.000 A 
ATOM     24  C   UNL     1       2.477   7.775  18.404  0.00  0.00    +0.000 A 
ATOM     25  C   UNL     1       3.080   7.073  17.344  0.00  0.00    +0.000 A 
ATOM     26  C   UNL     1       3.556   5.762  17.510  0.00  0.00    +0.000 A 
BRANCH  21  27
ATOM     27  S   UNL     1       4.065   3.473  18.959  0.00  0.00    +0.000 S 
ATOM     28  O   UNL     1       3.838   2.744  17.726  0.00  0.00    +0.000 OA
ATOM     29  O   UNL     1       3.573   2.965  20.223  0.00  0.00    +0.000 OA
BRANCH  27  34
ATOM     30  C   UNL     1       7.935   7.893  17.706  0.00  0.00    +0.000 C 
ATOM     31  C   UNL     1       7.352   6.552  17.877  0.00  0.00    +0.000 A 
ATOM     32  C   UNL     1       6.654   5.936  18.885  0.00  0.00    +0.000 A 
ATOM     33  C   UNL     1       6.382   4.651  18.386  0.00  0.00    +0.000 A 
ATOM     34  N   UNL     1       5.720   3.661  19.082  0.00  0.00    +0.000 N 
ATOM     35  N   UNL     1       6.930   4.461  17.184  0.00  0.00    +0.000 NA
ATOM     36  O   UNL     1       7.508   5.675  16.845  0.00  0.00    +0.000 OA
ATOM     37  H   UNL     1       6.232   2.854  19.422  0.00  0.00    +0.000 HD
ENDBRANCH  27  34
ENDBRANCH  21  27
ENDBRANCH   1  24
TORSDOF 5
ENDMDL
MODEL 7
REMARK VINA RESULT:      -8.9      3.094     10.756
REMARK  Name = 
REMARK  9 active torsions:
REMARK  status: ('A' for Active; 'I' for Inactive)
REMARK    1  A    between atoms: C_1  and  C_2
REMARK    2  A    between atoms: N_5  and  S_6
REMARK    3  A    between atoms: S_6  and  C_9
REMARK    4  A    between atoms: C_12  and  N_13
REMARK    5  A    between atoms: N_15  and  C_16
REMARK    6  A    between atoms: C_20  and  C_21
REMARK    7  A    between atoms: C_22  and  C_23
REMARK    8  A    between atoms: C_28  and  C_29
REMARK    9  A    between atoms: C_28  and  C_30
REMARK                            x       y       z     vdW  Elec       q    Type
REMARK                         _______ _______ _______ _____ _____    ______ ____
ROOT
ATOM      1  N   UNL     1       1.942   9.041  18.073  0.00  0.00    +0.000 N 
ATOM      2  C   UNL     1       0.802   9.621  18.557  0.00  0.00    +0.000 C 
ATOM      3  N   UNL     1       0.407  10.821  18.268  0.00  0.00    +0.000 NA
ATOM      4  H   UNL     1       2.479   9.609  17.429  0.00  0.00    +0.000 HD
ENDROOT
BRANCH   3   5
ATOM      5  C   UNL     1      -0.803  11.287  18.818  0.00  0.00    +0.000 A 
ATOM      6  N   UNL     1      -1.876  11.372  17.995  0.00  0.00    +0.000 NA
ATOM      7  C   UNL     1      -3.066  11.790  18.514  0.00  0.00    +0.000 A 
ATOM      8  C   UNL     1      -3.224  12.172  19.859  0.00  0.00    +0.000 A 
ATOM      9  C   UNL     1      -2.113  12.075  20.720  0.00  0.00    +0.000 A 
ATOM     10  C   UNL     1      -2.152  12.425  22.190  0.00  0.00    +0.000 C 
ATOM     11  C   UNL     1      -0.887  11.602  20.179  0.00  0.00    +0.000 A 
ATOM     12  C   UNL     1      -4.583  12.614  20.305  0.00  0.00    +0.000 C 
ATOM     13  O   UNL     1      -4.924  12.632  21.482  0.00  0.00    +0.000 OA
ATOM     14  C   UNL     1      -5.569  12.990  19.232  0.00  0.00    +0.000 C 
ATOM     15  C   UNL     1      -5.612  11.878  18.182  0.00  0.00    +0.000 C 
ATOM     16  C   UNL     1      -5.981  10.520  18.820  0.00  0.00    +0.000 C 
ATOM     17  C   UNL     1      -6.698  12.217  17.148  0.00  0.00    +0.000 C 
ATOM     18  C   UNL     1      -4.217  11.822  17.523  0.00  0.00    +0.000 C 
BRANCH  11  19
ATOM     19  C   UNL     1       0.282  11.470  20.991  0.00  0.00    +0.000 C 
ATOM     20  N   UNL     1       1.220  11.421  21.667  0.00  0.00    +0.000 NA
ENDBRANCH  11  19
ENDBRANCH   3   5
BRANCH   1  24
ATOM     21  C   UNL     1       3.422   5.113  18.705  0.00  0.00    +0.000 A 
ATOM     22  C   UNL     1       2.834   5.807  19.763  0.00  0.00    +0.000 A 
ATOM     23  C   UNL     1       2.337   7.102  19.558  0.00  0.00    +0.000 A 
ATOM     24  C   UNL     1       2.428   7.740  18.310  0.00  0.00    +0.000 A 
ATOM     25  C   UNL     1       3.063   7.035  17.272  0.00  0.00    +0.000 A 
ATOM     26  C   UNL     1       3.566   5.738  17.466  0.00  0.00    +0.000 A 
BRANCH  21  27
ATOM     27  S   UNL     1       4.105   3.486  18.961  0.00  0.00    +0.000 S 
ATOM     28  O   UNL     1       3.904   2.728  17.741  0.00  0.00    +0.000 OA
ATOM     29  O   UNL     1       3.615   2.992  20.231  0.00  0.00    +0.000 OA
BRANCH  27  34
ATOM     30  C   UNL     1       7.891   7.957  17.633  0.00  0.00    +0.000 C 
ATOM     31  C   UNL     1       7.335   6.608  17.831  0.00  0.00    +0.000 A 
ATOM     32  C   UNL     1       6.642   6.001  18.848  0.00  0.00    +0.000 A 
ATOM     33  C   UNL     1       6.401   4.699  18.378  0.00  0.00    +0.000 A 
ATOM     34  N   UNL     1       5.755   3.713  19.093  0.00  0.00    +0.000 N 
ATOM     35  N   UNL     1       6.964   4.492  17.186  0.00  0.00    +0.000 NA
ATOM     36  O   UNL     1       7.518   5.711  16.822  0.00  0.00    +0.000 OA
ATOM     37  H   UNL     1       6.281   2.925  19.456  0.00  0.00    +0.000 HD
ENDBRANCH  27  34
ENDBRANCH  21  27
ENDBRANCH   1  24
TORSDOF 5
ENDMDL
MODEL 8
REMARK VINA RESULT:      -8.9      6.214      7.805
REMARK  Name = 
REMARK  9 active torsions:
REMARK  status: ('A' for Active; 'I' for Inactive)
REMARK    1  A    between atoms: C_1  and  C_2
REMARK    2  A    between atoms: N_5  and  S_6
REMARK    3  A    between atoms: S_6  and  C_9
REMARK    4  A    between atoms: C_12  and  N_13
REMARK    5  A    between atoms: N_15  and  C_16
REMARK    6  A    between atoms: C_20  and  C_21
REMARK    7  A    between atoms: C_22  and  C_23
REMARK    8  A    between atoms: C_28  and  C_29
REMARK    9  A    between atoms: C_28  and  C_30
REMARK                            x       y       z     vdW  Elec       q    Type
REMARK                         _______ _______ _______ _____ _____    ______ ____
ROOT
ATOM      1  N   UNL     1       8.813   8.087  18.818  0.00  0.00    +0.000 N 
ATOM      2  C   UNL     1       7.735   7.277  18.590  0.00  0.00    +0.000 C 
ATOM      3  N   UNL     1       7.758   5.984  18.662  0.00  0.00    +0.000 NA
ATOM      4  H   UNL     1       9.668   7.611  19.079  0.00  0.00    +0.000 HD
ENDROOT
BRANCH   3   5
ATOM      5  C   UNL     1       6.567   5.271  18.427  0.00  0.00    +0.000 A 
ATOM      6  N   UNL     1       5.809   4.943  19.502  0.00  0.00    +0.000 NA
ATOM      7  C   UNL     1       4.635   4.280  19.295  0.00  0.00    +0.000 A 
ATOM      8  C   UNL     1       4.189   3.889  18.020  0.00  0.00    +0.000 A 
ATOM      9  C   UNL     1       4.970   4.238  16.899  0.00  0.00    +0.000 A 
ATOM     10  C   UNL     1       4.594   3.905  15.473  0.00  0.00    +0.000 C 
ATOM     11  C   UNL     1       6.172   4.960  17.121  0.00  0.00    +0.000 A 
ATOM     12  C   UNL     1       2.881   3.166  17.927  0.00  0.00    +0.000 C 
ATOM     13  O   UNL     1       2.236   3.087  16.889  0.00  0.00    +0.000 OA
ATOM     14  C   UNL     1       2.336   2.570  19.197  0.00  0.00    +0.000 C 
ATOM     15  C   UNL     1       2.359   3.633  20.297  0.00  0.00    +0.000 C 
ATOM     16  C   UNL     1       1.554   4.885  19.883  0.00  0.00    +0.000 C 
ATOM     17  C   UNL     1       1.701   3.053  21.559  0.00  0.00    +0.000 C 
ATOM     18  C   UNL     1       3.840   3.986  20.556  0.00  0.00    +0.000 C 
BRANCH  11  19
ATOM     19  C   UNL     1       7.013   5.356  16.034  0.00  0.00    +0.000 C 
ATOM     20  N   UNL     1       7.646   5.666  15.117  0.00  0.00    +0.000 NA
ENDBRANCH  11  19
ENDBRANCH   3   5
BRANCH   1  24
ATOM     21  C   UNL     1       9.001  12.329  18.818  0.00  0.00    +0.000 A 
ATOM     22  C   UNL     1       8.535  11.659  17.686  0.00  0.00    +0.000 A 
ATOM     23  C   UNL     1       8.463  10.258  17.683  0.00  0.00    +0.000 A 
ATOM     24  C   UNL     1       8.869   9.495  18.790  0.00  0.00    +0.000 A 
ATOM     25  C   UNL     1       9.375  10.193  19.903  0.00  0.00    +0.000 A 
ATOM     26  C   UNL     1       9.452  11.595  19.916  0.00  0.00    +0.000 A 
BRANCH  21  27
ATOM     27  S   UNL     1       9.146  14.105  18.821  0.00  0.00    +0.000 S 
ATOM     28  O   UNL     1      10.465  14.439  18.318  0.00  0.00    +0.000 OA
ATOM     29  O   UNL     1       8.702  14.586  20.112  0.00  0.00    +0.000 OA
BRANCH  27  34
ATOM     30  C   UNL     1       3.729  16.696  18.961  0.00  0.00    +0.000 C 
ATOM     31  C   UNL     1       4.872  15.869  18.543  0.00  0.00    +0.000 A 
ATOM     32  C   UNL     1       6.216  16.104  18.388  0.00  0.00    +0.000 A 
ATOM     33  C   UNL     1       6.742  14.868  17.975  0.00  0.00    +0.000 A 
ATOM     34  N   UNL     1       8.066  14.642  17.666  0.00  0.00    +0.000 N 
ATOM     35  N   UNL     1       5.784  13.951  17.818  0.00  0.00    +0.000 NA
ATOM     36  O   UNL     1       4.609  14.572  18.216  0.00  0.00    +0.000 OA
ATOM     37  H   UNL     1       8.341  14.491  16.700  0.00  0.00    +0.000 HD
ENDBRANCH  27  34
ENDBRANCH  21  27
ENDBRANCH   1  24
TORSDOF 5
ENDMDL
MODEL 9
REMARK VINA RESULT:      -8.9      1.017      1.103
REMARK  Name = 
REMARK  9 active torsions:
REMARK  status: ('A' for Active; 'I' for Inactive)
REMARK    1  A    between atoms: C_1  and  C_2
REMARK    2  A    between atoms: N_5  and  S_6
REMARK    3  A    between atoms: S_6  and  C_9
REMARK    4  A    between atoms: C_12  and  N_13
REMARK    5  A    between atoms: N_15  and  C_16
REMARK    6  A    between atoms: C_20  and  C_21
REMARK    7  A    between atoms: C_22  and  C_23
REMARK    8  A    between atoms: C_28  and  C_29
REMARK    9  A    between atoms: C_28  and  C_30
REMARK                            x       y       z     vdW  Elec       q    Type
REMARK                         _______ _______ _______ _____ _____    ______ ____
ROOT
ATOM      1  N   UNL     1       1.523  10.162  18.128  0.00  0.00    +0.000 N 
ATOM      2  C   UNL     1       1.881   8.867  18.379  0.00  0.00    +0.000 C 
ATOM      3  N   UNL     1       2.726   8.186  17.670  0.00  0.00    +0.000 NA
ATOM      4  H   UNL     1       1.985  10.597  17.339  0.00  0.00    +0.000 HD
ENDROOT
BRANCH   3   5
ATOM      5  C   UNL     1       3.024   6.865  18.054  0.00  0.00    +0.000 A 
ATOM      6  N   UNL     1       2.351   6.351  19.112  0.00  0.00    +0.000 NA
ATOM      7  C   UNL     1       2.599   5.062  19.482  0.00  0.00    +0.000 A 
ATOM      8  C   UNL     1       3.550   4.250  18.838  0.00  0.00    +0.000 A 
ATOM      9  C   UNL     1       4.245   4.778  17.731  0.00  0.00    +0.000 A 
ATOM     10  C   UNL     1       5.271   4.005  16.933  0.00  0.00    +0.000 C 
ATOM     11  C   UNL     1       3.952   6.108  17.330  0.00  0.00    +0.000 A 
ATOM     12  C   UNL     1       3.731   2.851  19.341  0.00  0.00    +0.000 C 
ATOM     13  O   UNL     1       4.249   1.965  18.672  0.00  0.00    +0.000 OA
ATOM     14  C   UNL     1       3.189   2.540  20.710  0.00  0.00    +0.000 C 
ATOM     15  C   UNL     1       1.742   3.029  20.797  0.00  0.00    +0.000 C 
ATOM     16  C   UNL     1       0.867   2.387  19.697  0.00  0.00    +0.000 C 
ATOM     17  C   UNL     1       1.160   2.610  22.157  0.00  0.00    +0.000 C 
ATOM     18  C   UNL     1       1.773   4.565  20.656  0.00  0.00    +0.000 C 
BRANCH  11  19
ATOM     19  C   UNL     1       4.610   6.711  16.213  0.00  0.00    +0.000 C 
ATOM     20  N   UNL     1       5.193   7.163  15.321  0.00  0.00    +0.000 NA
ENDBRANCH  11  19
ENDBRANCH   3   5
BRANCH   1  24
ATOM     21  C   UNL     1      -1.158  12.563  20.380  0.00  0.00    +0.000 A 
ATOM     22  C   UNL     1      -0.539  13.096  19.249  0.00  0.00    +0.000 A 
ATOM     23  C   UNL     1       0.342  12.305  18.497  0.00  0.00    +0.000 A 
ATOM     24  C   UNL     1       0.641  10.982  18.860  0.00  0.00    +0.000 A 
ATOM     25  C   UNL     1       0.036  10.483  20.029  0.00  0.00    +0.000 A 
ATOM     26  C   UNL     1      -0.847  11.266  20.790  0.00  0.00    +0.000 A 
BRANCH  21  27
ATOM     27  S   UNL     1      -2.240  13.570  21.376  0.00  0.00    +0.000 S 
ATOM     28  O   UNL     1      -2.475  14.808  20.657  0.00  0.00    +0.000 OA
ATOM     29  O   UNL     1      -1.716  13.585  22.726  0.00  0.00    +0.000 OA
BRANCH  27  34
ATOM     30  C   UNL     1      -6.521  12.463  17.310  0.00  0.00    +0.000 C 
ATOM     31  C   UNL     1      -5.846  12.751  18.586  0.00  0.00    +0.000 A 
ATOM     32  C   UNL     1      -4.760  12.217  19.234  0.00  0.00    +0.000 A 
ATOM     33  C   UNL     1      -4.648  12.976  20.411  0.00  0.00    +0.000 A 
ATOM     34  N   UNL     1      -3.704  12.766  21.395  0.00  0.00    +0.000 N 
ATOM     35  N   UNL     1      -5.632  13.871  20.519  0.00  0.00    +0.000 NA
ATOM     36  O   UNL     1      -6.365  13.756  19.346  0.00  0.00    +0.000 OA
ATOM     37  H   UNL     1      -3.985  12.380  22.290  0.00  0.00    +0.000 HD
ENDBRANCH  27  34
ENDBRANCH  21  27
ENDBRANCH   1  24
TORSDOF 5
ENDMDL
