MODEL 1
REMARK VINA RESULT:      -7.1      0.000      0.000
REMARK  Name = 
REMARK  4 active torsions:
REMARK  status: ('A' for Active; 'I' for Inactive)
REMARK    1  A    between atoms: C_1  and  N_2
REMARK    2  A    between atoms: C_4  and  N_5
REMARK    3  A    between atoms: C_9  and  C_11
REMARK    4  A    between atoms: C_16  and  C_18
REMARK                            x       y       z     vdW  Elec       q    Type
REMARK                         _______ _______ _______ _____ _____    ______ ____
ROOT
ATOM      1  C   UNL     1       1.110   8.996  19.241  0.00  0.00    +0.000 C 
ATOM      2  C   UNL     1       1.970   9.303  17.995  0.00  0.00    +0.000 C 
ATOM      3  C   UNL     1       2.619   8.030  17.449  0.00  0.00    +0.000 C 
ATOM      4  C   UNL     1       3.396   7.314  18.555  0.00  0.00    +0.000 C 
ATOM      5  N   UNL     1       2.487   7.020  19.662  0.00  0.00    +0.000 N 
ATOM      6  C   UNL     1       2.042   5.764  20.088  0.00  0.00    +0.000 C 
ATOM      7  O   UNL     1       1.324   5.618  21.074  0.00  0.00    +0.000 OA
ATOM      8  C   UNL     1       1.924   8.228  20.286  0.00  0.00    +0.000 C 
ENDROOT
BRANCH   1  13
ATOM      9  N   UNL     1      -3.161  11.622  18.428  0.00  0.00    +0.000 N 
ATOM     10  C   UNL     1      -2.161  12.555  18.987  0.00  0.00    +0.000 C 
ATOM     11  C   UNL     1      -1.331  11.860  20.088  0.00  0.00    +0.000 C 
ATOM     12  N   UNL     1      -0.781  10.578  19.625  0.00  0.00    +0.000 N 
ATOM     13  C   UNL     1       0.567  10.306  19.800  0.00  0.00    +0.000 C 
ATOM     14  O   UNL     1       1.333  11.126  20.307  0.00  0.00    +0.000 OA
ATOM     15  C   UNL     1      -1.798   9.673  19.071  0.00  0.00    +0.000 C 
ATOM     16  C   UNL     1      -2.588  10.357  17.942  0.00  0.00    +0.000 C 
BRANCH   9  20
ATOM     17  C   UNL     1      -7.787  13.126  18.877  0.00  0.00    +0.000 C 
ATOM     18  N   UNL     1      -6.529  12.646  18.361  0.00  0.00    +0.000 N 
ATOM     19  C   UNL     1      -5.374  12.456  19.063  0.00  0.00    +0.000 A 
ATOM     20  C   UNL     1      -4.448  11.977  18.169  0.00  0.00    +0.000 A 
ATOM     21  C   UNL     1      -5.160  11.917  16.945  0.00  0.00    +0.000 A 
ATOM     22  N   UNL     1      -6.428  12.327  17.059  0.00  0.00    +0.000 NA
ENDBRANCH   9  20
ENDBRANCH   1  13
BRANCH   6  23
ATOM     23  C   UNL     1       2.429   4.522  19.350  0.00  0.00    +0.000 A 
ATOM     24  C   UNL     1       3.309   3.620  19.968  0.00  0.00    +0.000 A 
ATOM     25  C   UNL     1       3.714   2.458  19.300  0.00  0.00    +0.000 A 
ATOM     26  C   UNL     1       3.243   2.204  18.017  0.00  0.00    +0.000 A 
ATOM     27  F   UNL     1       3.662   1.118  17.357  0.00  0.00    +0.000 F 
ATOM     28  C   UNL     1       2.329   3.057  17.415  0.00  0.00    +0.000 A 
ATOM     29  C   UNL     1       1.890   4.188  18.102  0.00  0.00    +0.000 A 
ENDBRANCH   6  23
TORSDOF 3
ENDMDL
MODEL 2
REMARK VINA RESULT:      -6.7      4.607     10.077
REMARK  Name = 
REMARK  4 active torsions:
REMARK  status: ('A' for Active; 'I' for Inactive)
REMARK    1  A    between atoms: C_1  and  N_2
REMARK    2  A    between atoms: C_4  and  N_5
REMARK    3  A    between atoms: C_9  and  C_11
REMARK    4  A    between atoms: C_16  and  C_18
REMARK                            x       y       z     vdW  Elec       q    Type
REMARK                         _______ _______ _______ _____ _____    ______ ____
ROOT
ATOM      1  C   UNL     1       1.605   8.130  20.204  0.00  0.00    +0.000 C 
ATOM      2  C   UNL     1       1.269   8.607  18.774  0.00  0.00    +0.000 C 
ATOM      3  C   UNL     1       0.659  10.010  18.793  0.00  0.00    +0.000 C 
ATOM      4  C   UNL     1      -0.542  10.054  19.739  0.00  0.00    +0.000 C 
ATOM      5  N   UNL     1      -0.112   9.638  21.075  0.00  0.00    +0.000 N 
ATOM      6  C   UNL     1      -0.028  10.427  22.227  0.00  0.00    +0.000 C 
ATOM      7  O   UNL     1       0.287   9.964  23.320  0.00  0.00    +0.000 OA
ATOM      8  C   UNL     1       0.382   8.252  21.118  0.00  0.00    +0.000 C 
ENDROOT
BRANCH   1  13
ATOM      9  N   UNL     1       4.493   5.620  16.864  0.00  0.00    +0.000 N 
ATOM     10  C   UNL     1       3.728   4.619  17.636  0.00  0.00    +0.000 C 
ATOM     11  C   UNL     1       3.639   5.037  19.120  0.00  0.00    +0.000 C 
ATOM     12  N   UNL     1       3.160   6.419  19.266  0.00  0.00    +0.000 N 
ATOM     13  C   UNL     1       2.117   6.696  20.136  0.00  0.00    +0.000 C 
ATOM     14  O   UNL     1       1.552   5.806  20.774  0.00  0.00    +0.000 OA
ATOM     15  C   UNL     1       3.936   7.390  18.483  0.00  0.00    +0.000 C 
ATOM     16  C   UNL     1       3.980   6.992  16.998  0.00  0.00    +0.000 C 
BRANCH   9  20
ATOM     17  C   UNL     1       6.742   3.843  12.908  0.00  0.00    +0.000 C 
ATOM     18  N   UNL     1       6.449   4.488  14.164  0.00  0.00    +0.000 N 
ATOM     19  C   UNL     1       5.223   4.622  14.751  0.00  0.00    +0.000 A 
ATOM     20  C   UNL     1       5.428   5.288  15.935  0.00  0.00    +0.000 A 
ATOM     21  C   UNL     1       6.829   5.509  15.960  0.00  0.00    +0.000 A 
ATOM     22  N   UNL     1       7.452   5.025  14.881  0.00  0.00    +0.000 NA
ENDBRANCH   9  20
ENDBRANCH   1  13
BRANCH   6  23
ATOM     23  C   UNL     1      -0.325  11.891  22.177  0.00  0.00    +0.000 A 
ATOM     24  C   UNL     1      -1.398  12.385  22.935  0.00  0.00    +0.000 A 
ATOM     25  C   UNL     1      -1.723  13.746  22.897  0.00  0.00    +0.000 A 
ATOM     26  C   UNL     1      -0.979  14.607  22.098  0.00  0.00    +0.000 A 
ATOM     27  F   UNL     1      -1.313  15.901  22.023  0.00  0.00    +0.000 F 
ATOM     28  C   UNL     1       0.119  14.145  21.386  0.00  0.00    +0.000 A 
ATOM     29  C   UNL     1       0.469  12.797  21.465  0.00  0.00    +0.000 A 
ENDBRANCH   6  23
TORSDOF 3
ENDMDL
MODEL 3
REMARK VINA RESULT:      -6.7      4.394     10.206
REMARK  Name = 
REMARK  4 active torsions:
REMARK  status: ('A' for Active; 'I' for Inactive)
REMARK    1  A    between atoms: C_1  and  N_2
REMARK    2  A    between atoms: C_4  and  N_5
REMARK    3  A    between atoms: C_9  and  C_11
REMARK    4  A    between atoms: C_16  and  C_18
REMARK                            x       y       z     vdW  Elec       q    Type
REMARK                         _______ _______ _______ _____ _____    ______ ____
ROOT
ATOM      1  C   UNL     1       0.070  10.341  20.194  0.00  0.00    +0.000 C 
ATOM      2  C   UNL     1      -1.004  10.108  19.108  0.00  0.00    +0.000 C 
ATOM      3  C   UNL     1      -1.554  11.437  18.587  0.00  0.00    +0.000 C 
ATOM      4  C   UNL     1      -2.051  12.298  19.750  0.00  0.00    +0.000 C 
ATOM      5  N   UNL     1      -0.951  12.506  20.692  0.00  0.00    +0.000 N 
ATOM      6  C   UNL     1      -0.283  13.703  20.971  0.00  0.00    +0.000 C 
ATOM      7  O   UNL     1       0.590  13.785  21.831  0.00  0.00    +0.000 OA
ATOM      8  C   UNL     1      -0.465  11.257  21.299  0.00  0.00    +0.000 C 
ENDROOT
BRANCH   1  13
ATOM      9  N   UNL     1       2.772   6.504  18.250  0.00  0.00    +0.000 N 
ATOM     10  C   UNL     1       1.976   5.968  19.374  0.00  0.00    +0.000 C 
ATOM     11  C   UNL     1       1.935   6.982  20.537  0.00  0.00    +0.000 C 
ATOM     12  N   UNL     1       1.525   8.317  20.079  0.00  0.00    +0.000 N 
ATOM     13  C   UNL     1       0.513   8.991  20.746  0.00  0.00    +0.000 C 
ATOM     14  O   UNL     1      -0.081   8.488  21.700  0.00  0.00    +0.000 OA
ATOM     15  C   UNL     1       2.331   8.822  18.958  0.00  0.00    +0.000 C 
ATOM     16  C   UNL     1       2.327   7.827  17.785  0.00  0.00    +0.000 C 
BRANCH   9  20
ATOM     17  C   UNL     1       6.563   5.100  15.509  0.00  0.00    +0.000 C 
ATOM     18  N   UNL     1       5.370   5.121  16.318  0.00  0.00    +0.000 N 
ATOM     19  C   UNL     1       4.789   6.215  16.893  0.00  0.00    +0.000 A 
ATOM     20  C   UNL     1       3.673   5.762  17.554  0.00  0.00    +0.000 A 
ATOM     21  C   UNL     1       3.679   4.366  17.307  0.00  0.00    +0.000 A 
ATOM     22  N   UNL     1       4.713   3.973  16.557  0.00  0.00    +0.000 NA
ENDBRANCH   9  20
ENDBRANCH   1  13
BRANCH   6  23
ATOM     23  C   UNL     1      -0.610  14.956  20.224  0.00  0.00    +0.000 A 
ATOM     24  C   UNL     1      -1.559  15.835  20.770  0.00  0.00    +0.000 A 
ATOM     25  C   UNL     1      -1.910  17.008  20.089  0.00  0.00    +0.000 A 
ATOM     26  C   UNL     1      -1.317  17.294  18.865  0.00  0.00    +0.000 A 
ATOM     27  F   UNL     1      -1.682  18.390  18.188  0.00  0.00    +0.000 F 
ATOM     28  C   UNL     1      -0.338  16.464  18.338  0.00  0.00    +0.000 A 
ATOM     29  C   UNL     1       0.045  15.322  19.043  0.00  0.00    +0.000 A 
ENDBRANCH   6  23
TORSDOF 3
ENDMDL
MODEL 4
REMARK VINA RESULT:      -6.5      4.451     10.298
REMARK  Name = 
REMARK  4 active torsions:
REMARK  status: ('A' for Active; 'I' for Inactive)
REMARK    1  A    between atoms: C_1  and  N_2
REMARK    2  A    between atoms: C_4  and  N_5
REMARK    3  A    between atoms: C_9  and  C_11
REMARK    4  A    between atoms: C_16  and  C_18
REMARK                            x       y       z     vdW  Elec       q    Type
REMARK                         _______ _______ _______ _____ _____    ______ ____
ROOT
ATOM      1  C   UNL     1      -0.112  10.522  20.053  0.00  0.00    +0.000 C 
ATOM      2  C   UNL     1      -1.156  10.284  18.939  0.00  0.00    +0.000 C 
ATOM      3  C   UNL     1      -1.786  11.603  18.488  0.00  0.00    +0.000 C 
ATOM      4  C   UNL     1      -2.351  12.360  19.691  0.00  0.00    +0.000 C 
ATOM      5  N   UNL     1      -1.278  12.583  20.660  0.00  0.00    +0.000 N 
ATOM      6  C   UNL     1      -0.694  13.802  21.019  0.00  0.00    +0.000 C 
ATOM      7  O   UNL     1       0.162  13.889  21.895  0.00  0.00    +0.000 OA
ATOM      8  C   UNL     1      -0.719  11.333  21.200  0.00  0.00    +0.000 C 
ENDROOT
BRANCH   1  13
ATOM      9  N   UNL     1       2.973   7.055  17.987  0.00  0.00    +0.000 N 
ATOM     10  C   UNL     1       2.173   6.379  19.029  0.00  0.00    +0.000 C 
ATOM     11  C   UNL     1       1.999   7.299  20.256  0.00  0.00    +0.000 C 
ATOM     12  N   UNL     1       1.504   8.629  19.872  0.00  0.00    +0.000 N 
ATOM     13  C   UNL     1       0.413   9.173  20.531  0.00  0.00    +0.000 C 
ATOM     14  O   UNL     1      -0.182   8.557  21.417  0.00  0.00    +0.000 OA
ATOM     15  C   UNL     1       2.316   9.274  18.830  0.00  0.00    +0.000 C 
ATOM     16  C   UNL     1       2.445   8.370  17.592  0.00  0.00    +0.000 C 
BRANCH   9  20
ATOM     17  C   UNL     1       5.902   3.690  15.997  0.00  0.00    +0.000 C 
ATOM     18  N   UNL     1       5.286   4.932  16.394  0.00  0.00    +0.000 N 
ATOM     19  C   UNL     1       4.164   5.083  17.158  0.00  0.00    +0.000 A 
ATOM     20  C   UNL     1       3.960   6.436  17.287  0.00  0.00    +0.000 A 
ATOM     21  C   UNL     1       5.029   7.010  16.554  0.00  0.00    +0.000 A 
ATOM     22  N   UNL     1       5.836   6.095  16.007  0.00  0.00    +0.000 NA
ENDBRANCH   9  20
ENDBRANCH   1  13
BRANCH   6  23
ATOM     23  C   UNL     1      -1.094  15.073  20.342  0.00  0.00    +0.000 A 
ATOM     24  C   UNL     1      -0.386  15.478  19.199  0.00  0.00    +0.000 A 
ATOM     25  C   UNL     1      -0.715  16.674  18.551  0.00  0.00    +0.000 A 
ATOM     26  C   UNL     1      -1.745  17.464  19.048  0.00  0.00    +0.000 A 
ATOM     27  F   UNL     1      -2.034  18.631  18.459  0.00  0.00    +0.000 F 
ATOM     28  C   UNL     1      -2.491  17.051  20.143  0.00  0.00    +0.000 A 
ATOM     29  C   UNL     1      -2.192  15.834  20.757  0.00  0.00    +0.000 A 
ENDBRANCH   6  23
TORSDOF 3
ENDMDL
MODEL 5
REMARK VINA RESULT:      -6.4      4.717      9.962
REMARK  Name = 
REMARK  4 active torsions:
REMARK  status: ('A' for Active; 'I' for Inactive)
REMARK    1  A    between atoms: C_1  and  N_2
REMARK    2  A    between atoms: C_4  and  N_5
REMARK    3  A    between atoms: C_9  and  C_11
REMARK    4  A    between atoms: C_16  and  C_18
REMARK                            x       y       z     vdW  Elec       q    Type
REMARK                         _______ _______ _______ _____ _____    ______ ____
ROOT
ATOM      1  C   UNL     1       0.927  12.039  19.700  0.00  0.00    +0.000 C 
ATOM      2  C   UNL     1       1.982  13.051  20.202  0.00  0.00    +0.000 C 
ATOM      3  C   UNL     1       1.368  14.027  21.208  0.00  0.00    +0.000 C 
ATOM      4  C   UNL     1       0.130  14.697  20.610  0.00  0.00    +0.000 C 
ATOM      5  N   UNL     1      -0.827  13.662  20.216  0.00  0.00    +0.000 N 
ATOM      6  C   UNL     1      -2.075  13.394  20.789  0.00  0.00    +0.000 C 
ATOM      7  O   UNL     1      -2.835  12.539  20.341  0.00  0.00    +0.000 OA
ATOM      8  C   UNL     1      -0.312  12.766  19.169  0.00  0.00    +0.000 C 
ENDROOT
BRANCH   1  13
ATOM      9  N   UNL     1       2.202   7.125  19.560  0.00  0.00    +0.000 N 
ATOM     10  C   UNL     1       2.990   7.822  18.522  0.00  0.00    +0.000 C 
ATOM     11  C   UNL     1       2.127   8.892  17.819  0.00  0.00    +0.000 C 
ATOM     12  N   UNL     1       1.470   9.781  18.788  0.00  0.00    +0.000 N 
ATOM     13  C   UNL     1       1.563  11.155  18.633  0.00  0.00    +0.000 C 
ATOM     14  O   UNL     1       2.213  11.661  17.717  0.00  0.00    +0.000 OA
ATOM     15  C   UNL     1       0.698   9.059  19.811  0.00  0.00    +0.000 C 
ATOM     16  C   UNL     1       1.577   8.028  20.539  0.00  0.00    +0.000 C 
BRANCH   9  20
ATOM     17  C   UNL     1       1.884   2.650  21.494  0.00  0.00    +0.000 C 
ATOM     18  N   UNL     1       2.103   3.764  20.605  0.00  0.00    +0.000 N 
ATOM     19  C   UNL     1       1.872   5.083  20.871  0.00  0.00    +0.000 A 
ATOM     20  C   UNL     1       2.237   5.778  19.743  0.00  0.00    +0.000 A 
ATOM     21  C   UNL     1       2.678   4.767  18.852  0.00  0.00    +0.000 A 
ATOM     22  N   UNL     1       2.594   3.540  19.374  0.00  0.00    +0.000 NA
ENDBRANCH   9  20
ENDBRANCH   1  13
BRANCH   6  23
ATOM     23  C   UNL     1      -2.547  14.150  21.989  0.00  0.00    +0.000 A 
ATOM     24  C   UNL     1      -2.139  13.716  23.260  0.00  0.00    +0.000 A 
ATOM     25  C   UNL     1      -2.579  14.384  24.409  0.00  0.00    +0.000 A 
ATOM     26  C   UNL     1      -3.429  15.477  24.285  0.00  0.00    +0.000 A 
ATOM     27  F   UNL     1      -3.889  16.091  25.382  0.00  0.00    +0.000 F 
ATOM     28  C   UNL     1      -3.796  15.952  23.034  0.00  0.00    +0.000 A 
ATOM     29  C   UNL     1      -3.316  15.315  21.890  0.00  0.00    +0.000 A 
ENDBRANCH   6  23
TORSDOF 3
ENDMDL
MODEL 6
REMARK VINA RESULT:      -6.4      4.610      9.697
REMARK  Name = 
REMARK  4 active torsions:
REMARK  status: ('A' for Active; 'I' for Inactive)
REMARK    1  A    between atoms: C_1  and  N_2
REMARK    2  A    between atoms: C_4  and  N_5
REMARK    3  A    between atoms: C_9  and  C_11
REMARK    4  A    between atoms: C_16  and  C_18
REMARK                            x       y       z     vdW  Elec       q    Type
REMARK                         _______ _______ _______ _____ _____    ______ ____
ROOT
ATOM      1  C   UNL     1       0.855  11.775  19.389  0.00  0.00    +0.000 C 
ATOM      2  C   UNL     1       0.736  13.177  18.751  0.00  0.00    +0.000 C 
ATOM      3  C   UNL     1      -0.033  14.132  19.667  0.00  0.00    +0.000 C 
ATOM      4  C   UNL     1      -1.386  13.528  20.048  0.00  0.00    +0.000 C 
ATOM      5  N   UNL     1      -1.164  12.232  20.690  0.00  0.00    +0.000 N 
ATOM      6  C   UNL     1      -1.393  11.895  22.028  0.00  0.00    +0.000 C 
ATOM      7  O   UNL     1      -1.234  10.755  22.456  0.00  0.00    +0.000 OA
ATOM      8  C   UNL     1      -0.523  11.249  19.803  0.00  0.00    +0.000 C 
ENDROOT
BRANCH   1  13
ATOM      9  N   UNL     1       2.385   6.939  19.654  0.00  0.00    +0.000 N 
ATOM     10  C   UNL     1       3.141   7.589  18.563  0.00  0.00    +0.000 C 
ATOM     11  C   UNL     1       2.227   8.552  17.774  0.00  0.00    +0.000 C 
ATOM     12  N   UNL     1       1.519   9.481  18.667  0.00  0.00    +0.000 N 
ATOM     13  C   UNL     1       1.541  10.841  18.399  0.00  0.00    +0.000 C 
ATOM     14  O   UNL     1       2.169  11.304  17.446  0.00  0.00    +0.000 OA
ATOM     15  C   UNL     1       0.781   8.806  19.744  0.00  0.00    +0.000 C 
ATOM     16  C   UNL     1       1.708   7.885  20.555  0.00  0.00    +0.000 C 
BRANCH   9  20
ATOM     17  C   UNL     1       1.678   2.489  21.542  0.00  0.00    +0.000 C 
ATOM     18  N   UNL     1       2.183   3.614  20.794  0.00  0.00    +0.000 N 
ATOM     19  C   UNL     1       1.685   4.885  20.788  0.00  0.00    +0.000 A 
ATOM     20  C   UNL     1       2.489   5.615  19.947  0.00  0.00    +0.000 A 
ATOM     21  C   UNL     1       3.449   4.674  19.496  0.00  0.00    +0.000 A 
ATOM     22  N   UNL     1       3.263   3.454  20.009  0.00  0.00    +0.000 NA
ENDBRANCH   9  20
ENDBRANCH   1  13
BRANCH   6  23
ATOM     23  C   UNL     1      -1.852  12.923  23.011  0.00  0.00    +0.000 A 
ATOM     24  C   UNL     1      -3.151  12.822  23.534  0.00  0.00    +0.000 A 
ATOM     25  C   UNL     1      -3.626  13.779  24.439  0.00  0.00    +0.000 A 
ATOM     26  C   UNL     1      -2.804  14.836  24.813  0.00  0.00    +0.000 A 
ATOM     27  F   UNL     1      -3.269  15.778  25.643  0.00  0.00    +0.000 F 
ATOM     28  C   UNL     1      -1.499  14.920  24.349  0.00  0.00    +0.000 A 
ATOM     29  C   UNL     1      -1.013  13.938  23.486  0.00  0.00    +0.000 A 
ENDBRANCH   6  23
TORSDOF 3
ENDMDL
MODEL 7
REMARK VINA RESULT:      -6.3      4.623     10.020
REMARK  Name = 
REMARK  4 active torsions:
REMARK  status: ('A' for Active; 'I' for Inactive)
REMARK    1  A    between atoms: C_1  and  N_2
REMARK    2  A    between atoms: C_4  and  N_5
REMARK    3  A    between atoms: C_9  and  C_11
REMARK    4  A    between atoms: C_16  and  C_18
REMARK                            x       y       z     vdW  Elec       q    Type
REMARK                         _______ _______ _______ _____ _____    ______ ____
ROOT
ATOM      1  C   UNL     1       0.884  11.940  19.738  0.00  0.00    +0.000 C 
ATOM      2  C   UNL     1       1.902  13.004  20.209  0.00  0.00    +0.000 C 
ATOM      3  C   UNL     1       1.266  13.961  21.219  0.00  0.00    +0.000 C 
ATOM      4  C   UNL     1      -0.015  14.567  20.643  0.00  0.00    +0.000 C 
ATOM      5  N   UNL     1      -0.931  13.486  20.279  0.00  0.00    +0.000 N 
ATOM      6  C   UNL     1      -2.153  13.167  20.881  0.00  0.00    +0.000 C 
ATOM      7  O   UNL     1      -2.882  12.274  20.457  0.00  0.00    +0.000 OA
ATOM      8  C   UNL     1      -0.398  12.605  19.228  0.00  0.00    +0.000 C 
ENDROOT
BRANCH   1  13
ATOM      9  N   UNL     1       2.194   7.037  19.541  0.00  0.00    +0.000 N 
ATOM     10  C   UNL     1       2.987   7.754  18.522  0.00  0.00    +0.000 C 
ATOM     11  C   UNL     1       2.125   8.829  17.825  0.00  0.00    +0.000 C 
ATOM     12  N   UNL     1       1.452   9.699  18.800  0.00  0.00    +0.000 N 
ATOM     13  C   UNL     1       1.537  11.076  18.666  0.00  0.00    +0.000 C 
ATOM     14  O   UNL     1       2.193  11.599  17.764  0.00  0.00    +0.000 OA
ATOM     15  C   UNL     1       0.675   8.957  19.804  0.00  0.00    +0.000 C 
ATOM     16  C   UNL     1       1.553   7.922  20.526  0.00  0.00    +0.000 C 
BRANCH   9  20
ATOM     17  C   UNL     1       2.779   2.244  18.798  0.00  0.00    +0.000 C 
ATOM     18  N   UNL     1       2.490   3.533  19.378  0.00  0.00    +0.000 N 
ATOM     19  C   UNL     1       2.649   4.753  18.787  0.00  0.00    +0.000 A 
ATOM     20  C   UNL     1       2.236   5.688  19.705  0.00  0.00    +0.000 A 
ATOM     21  C   UNL     1       1.846   4.912  20.825  0.00  0.00    +0.000 A 
ATOM     22  N   UNL     1       2.002   3.599  20.629  0.00  0.00    +0.000 NA
ENDBRANCH   9  20
ENDBRANCH   1  13
BRANCH   6  23
ATOM     23  C   UNL     1      -2.633  13.912  22.084  0.00  0.00    +0.000 A 
ATOM     24  C   UNL     1      -3.598  14.917  21.911  0.00  0.00    +0.000 A 
ATOM     25  C   UNL     1      -4.056  15.654  23.011  0.00  0.00    +0.000 A 
ATOM     26  C   UNL     1      -3.545  15.388  24.276  0.00  0.00    +0.000 A 
ATOM     27  F   UNL     1      -3.946  16.119  25.323  0.00  0.00    +0.000 F 
ATOM     28  C   UNL     1      -2.633  14.361  24.472  0.00  0.00    +0.000 A 
ATOM     29  C   UNL     1      -2.216  13.596  23.382  0.00  0.00    +0.000 A 
ENDBRANCH   6  23
TORSDOF 3
ENDMDL
MODEL 8
REMARK VINA RESULT:      -6.3      4.570      9.885
REMARK  Name = 
REMARK  4 active torsions:
REMARK  status: ('A' for Active; 'I' for Inactive)
REMARK    1  A    between atoms: C_1  and  N_2
REMARK    2  A    between atoms: C_4  and  N_5
REMARK    3  A    between atoms: C_9  and  C_11
REMARK    4  A    between atoms: C_16  and  C_18
REMARK                            x       y       z     vdW  Elec       q    Type
REMARK                         _______ _______ _______ _____ _____    ______ ____
ROOT
ATOM      1  C   UNL     1       0.769  10.213  20.191  0.00  0.00    +0.000 C 
ATOM      2  C   UNL     1      -0.416  10.273  19.201  0.00  0.00    +0.000 C 
ATOM      3  C   UNL     1      -0.462  11.624  18.483  0.00  0.00    +0.000 C 
ATOM      4  C   UNL     1      -0.469  12.766  19.500  0.00  0.00    +0.000 C 
ATOM      5  N   UNL     1       0.715  12.652  20.352  0.00  0.00    +0.000 N 
ATOM      6  C   UNL     1       1.817  13.513  20.399  0.00  0.00    +0.000 C 
ATOM      7  O   UNL     1       2.736  13.363  21.199  0.00  0.00    +0.000 OA
ATOM      8  C   UNL     1       0.742  11.412  21.143  0.00  0.00    +0.000 C 
ENDROOT
BRANCH   1  13
ATOM      9  N   UNL     1       2.203   5.479  19.035  0.00  0.00    +0.000 N 
ATOM     10  C   UNL     1       1.203   5.393  20.120  0.00  0.00    +0.000 C 
ATOM     11  C   UNL     1       1.416   6.531  21.141  0.00  0.00    +0.000 C 
ATOM     12  N   UNL     1       1.492   7.843  20.483  0.00  0.00    +0.000 N 
ATOM     13  C   UNL     1       0.712   8.890  20.947  0.00  0.00    +0.000 C 
ATOM     14  O   UNL     1      -0.076   8.746  21.882  0.00  0.00    +0.000 OA
ATOM     15  C   UNL     1       2.492   7.897  19.406  0.00  0.00    +0.000 C 
ATOM     16  C   UNL     1       2.244   6.790  18.368  0.00  0.00    +0.000 C 
BRANCH   9  20
ATOM     17  C   UNL     1       3.981   0.979  18.368  0.00  0.00    +0.000 C 
ATOM     18  N   UNL     1       3.667   2.380  18.233  0.00  0.00    +0.000 N 
ATOM     19  C   UNL     1       2.845   3.117  19.036  0.00  0.00    +0.000 A 
ATOM     20  C   UNL     1       2.859   4.397  18.538  0.00  0.00    +0.000 A 
ATOM     21  C   UNL     1       3.730   4.316  17.423  0.00  0.00    +0.000 A 
ATOM     22  N   UNL     1       4.221   3.087  17.234  0.00  0.00    +0.000 NA
ENDBRANCH   9  20
ENDBRANCH   1  13
BRANCH   6  23
ATOM     23  C   UNL     1       1.923  14.674  19.463  0.00  0.00    +0.000 A 
ATOM     24  C   UNL     1       2.807  14.583  18.376  0.00  0.00    +0.000 A 
ATOM     25  C   UNL     1       2.952  15.658  17.491  0.00  0.00    +0.000 A 
ATOM     26  C   UNL     1       2.220  16.821  17.698  0.00  0.00    +0.000 A 
ATOM     27  F   UNL     1       2.389  17.868  16.881  0.00  0.00    +0.000 F 
ATOM     28  C   UNL     1       1.301  16.907  18.735  0.00  0.00    +0.000 A 
ATOM     29  C   UNL     1       1.123  15.816  19.585  0.00  0.00    +0.000 A 
ENDBRANCH   6  23
TORSDOF 3
ENDMDL
MODEL 9
REMARK VINA RESULT:      -6.1      7.390      8.881
REMARK  Name = 
REMARK  4 active torsions:
REMARK  status: ('A' for Active; 'I' for Inactive)
REMARK    1  A    between atoms: C_1  and  N_2
REMARK    2  A    between atoms: C_4  and  N_5
REMARK    3  A    between atoms: C_9  and  C_11
REMARK    4  A    between atoms: C_16  and  C_18
REMARK                            x       y       z     vdW  Elec       q    Type
REMARK                         _______ _______ _______ _____ _____    ______ ____
ROOT
ATOM      1  C   UNL     1       4.967  15.464  19.372  0.00  0.00    +0.000 C 
ATOM      2  C   UNL     1       5.123  15.015  17.901  0.00  0.00    +0.000 C 
ATOM      3  C   UNL     1       6.441  14.267  17.694  0.00  0.00    +0.000 C 
ATOM      4  C   UNL     1       7.615  15.110  18.193  0.00  0.00    +0.000 C 
ATOM      5  N   UNL     1       7.401  15.437  19.603  0.00  0.00    +0.000 N 
ATOM      6  C   UNL     1       8.133  14.980  20.704  0.00  0.00    +0.000 C 
ATOM      7  O   UNL     1       7.911  15.366  21.849  0.00  0.00    +0.000 OA
ATOM      8  C   UNL     1       6.197  16.252  19.831  0.00  0.00    +0.000 C 
ENDROOT
BRANCH   1  13
ATOM      9  N   UNL     1       0.263  14.356  20.934  0.00  0.00    +0.000 N 
ATOM     10  C   UNL     1       0.183  15.573  20.099  0.00  0.00    +0.000 C 
ATOM     11  C   UNL     1       1.389  16.496  20.375  0.00  0.00    +0.000 C 
ATOM     12  N   UNL     1       2.663  15.770  20.278  0.00  0.00    +0.000 N 
ATOM     13  C   UNL     1       3.690  16.285  19.503  0.00  0.00    +0.000 C 
ATOM     14  O   UNL     1       3.556  17.327  18.860  0.00  0.00    +0.000 OA
ATOM     15  C   UNL     1       2.710  14.563  21.116  0.00  0.00    +0.000 C 
ATOM     16  C   UNL     1       1.532  13.626  20.800  0.00  0.00    +0.000 C 
BRANCH   9  20
ATOM     17  C   UNL     1      -4.201  12.706  22.036  0.00  0.00    +0.000 C 
ATOM     18  N   UNL     1      -2.812  13.089  22.090  0.00  0.00    +0.000 N 
ATOM     19  C   UNL     1      -2.062  13.602  21.070  0.00  0.00    +0.000 A 
ATOM     20  C   UNL     1      -0.808  13.827  21.584  0.00  0.00    +0.000 A 
ATOM     21  C   UNL     1      -0.916  13.410  22.934  0.00  0.00    +0.000 A 
ATOM     22  N   UNL     1      -2.135  12.957  23.244  0.00  0.00    +0.000 NA
ENDBRANCH   9  20
ENDBRANCH   1  13
BRANCH   6  23
ATOM     23  C   UNL     1       9.238  13.987  20.532  0.00  0.00    +0.000 A 
ATOM     24  C   UNL     1      10.501  14.450  20.131  0.00  0.00    +0.000 A 
ATOM     25  C   UNL     1      11.555  13.549  19.937  0.00  0.00    +0.000 A 
ATOM     26  C   UNL     1      11.342  12.190  20.137  0.00  0.00    +0.000 A 
ATOM     27  F   UNL     1      12.333  11.320  19.909  0.00  0.00    +0.000 F 
ATOM     28  C   UNL     1      10.115  11.723  20.587  0.00  0.00    +0.000 A 
ATOM     29  C   UNL     1       9.082  12.628  20.827  0.00  0.00    +0.000 A 
ENDBRANCH   6  23
TORSDOF 3
ENDMDL
