MODEL 1
REMARK VINA RESULT:      -7.4      0.000      0.000
REMARK  Name = 
REMARK  15 active torsions:
REMARK  status: ('A' for Active; 'I' for Inactive)
REMARK    1  A    between atoms: C_1  and  C_2
REMARK    2  A    between atoms: C_2  and  C_3
REMARK    3  A    between atoms: C_2  and  O_4
REMARK    4  A    between atoms: O_4  and  N_5
REMARK    5  A    between atoms: N_5  and  C_6
REMARK    6  A    between atoms: N_5  and  S_18
REMARK    7  A    between atoms: C_6  and  C_7
REMARK    8  A    between atoms: C_6  and  C_14
REMARK    9  A    between atoms: C_7  and  C_8
REMARK   10  A    between atoms: C_8  and  N_9
REMARK   11  A    between atoms: N_9  and  S_10
REMARK   12  A    between atoms: S_10  and  C_11
REMARK   13  A    between atoms: N_16  and  O_17
REMARK   14  A    between atoms: S_18  and  C_21
REMARK   15  A    between atoms: C_24  and  C_25
REMARK                            x       y       z     vdW  Elec       q    Type
REMARK                         _______ _______ _______ _____ _____    ______ ____
ROOT
ATOM      1  N   UNL     1       0.010  11.008  20.025  0.00  0.00    +0.000 NA
ENDROOT
BRANCH   1   2
ATOM      2  S   UNL     1       0.522   9.651  20.960  0.00  0.00    +0.000 S 
ATOM      3  O   UNL     1       1.431  10.179  21.967  0.00  0.00    +0.000 OA
ATOM      4  O   UNL     1      -0.643   8.895  21.369  0.00  0.00    +0.000 OA
BRANCH   2   5
ATOM      5  C   UNL     1       1.477   8.573  19.911  0.00  0.00    +0.000 A 
ATOM      6  C   UNL     1       1.881   7.320  20.374  0.00  0.00    +0.000 A 
ATOM      7  C   UNL     1       2.633   6.479  19.542  0.00  0.00    +0.000 A 
ATOM      8  C   UNL     1       2.996   6.862  18.235  0.00  0.00    +0.000 A 
ATOM      9  C   UNL     1       2.517   8.103  17.779  0.00  0.00    +0.000 A 
ATOM     10  C   UNL     1       1.743   8.938  18.596  0.00  0.00    +0.000 A 
BRANCH   8  11
ATOM     11  C   UNL     1       3.861   6.001  17.391  0.00  0.00    +0.000 A 
ATOM     12  C   UNL     1       3.811   4.597  17.477  0.00  0.00    +0.000 A 
ATOM     13  C   UNL     1       4.674   3.785  16.731  0.00  0.00    +0.000 A 
ATOM     14  C   UNL     1       5.597   4.359  15.865  0.00  0.00    +0.000 A 
ATOM     15  C   UNL     1       5.652   5.744  15.738  0.00  0.00    +0.000 A 
ATOM     16  C   UNL     1       4.794   6.552  16.493  0.00  0.00    +0.000 A 
ENDBRANCH   8  11
ENDBRANCH   2   5
ENDBRANCH   1   2
BRANCH   1  17
ATOM     17  O   UNL     1      -1.405  10.805  19.762  0.00  0.00    +0.000 OA
BRANCH  17  19
ATOM     18  C   UNL     1      -1.802   9.920  17.494  0.00  0.00    +0.000 C 
ATOM     19  C   UNL     1      -1.797  11.129  18.422  0.00  0.00    +0.000 C 
ATOM     20  C   UNL     1      -3.193  11.733  18.504  0.00  0.00    +0.000 C 
ENDBRANCH  17  19
ENDBRANCH   1  17
BRANCH   1  21
ATOM     21  C   UNL     1       0.505  12.389  20.343  0.00  0.00    +0.000 C 
BRANCH  21  22
ATOM     22  C   UNL     1       1.183  13.118  19.179  0.00  0.00    +0.000 C 
ATOM     23  O   UNL     1       0.783  14.188  18.715  0.00  0.00    +0.000 OA
ATOM     24  N   UNL     1       2.201  12.442  18.540  0.00  0.00    +0.000 N 
ATOM     25  H   UNL     1       2.303  11.431  18.585  0.00  0.00    +0.000 HD
BRANCH  24  26
ATOM     26  O   UNL     1       2.639  13.033  17.326  0.00  0.00    +0.000 OA
ATOM     27  H   UNL     1       3.461  12.532  17.124  0.00  0.00    +0.000 HD
ENDBRANCH  24  26
ENDBRANCH  21  22
BRANCH  21  28
ATOM     28  C   UNL     1      -0.501  13.239  21.148  0.00  0.00    +0.000 C 
BRANCH  28  29
ATOM     29  C   UNL     1      -0.851  12.760  22.560  0.00  0.00    +0.000 C 
BRANCH  29  30
ATOM     30  N   UNL     1      -2.102  11.986  22.657  0.00  0.00    +0.000 NA
ATOM     31  H   UNL     1      -1.972  11.007  22.905  0.00  0.00    +0.000 HD
BRANCH  30  32
ATOM     32  S   UNL     1      -3.493  12.737  23.214  0.00  0.00    +0.000 S 
ATOM     33  C   UNL     1      -4.535  12.699  21.768  0.00  0.00    +0.000 C 
ATOM     34  O   UNL     1      -4.068  11.861  24.212  0.00  0.00    +0.000 OA
ATOM     35  O   UNL     1      -3.160  14.109  23.516  0.00  0.00    +0.000 OA
ENDBRANCH  30  32
ENDBRANCH  29  30
ENDBRANCH  28  29
ENDBRANCH  21  28
ENDBRANCH   1  21
TORSDOF 12
ENDMDL
MODEL 2
REMARK VINA RESULT:      -7.1      5.809     10.524
REMARK  Name = 
REMARK  15 active torsions:
REMARK  status: ('A' for Active; 'I' for Inactive)
REMARK    1  A    between atoms: C_1  and  C_2
REMARK    2  A    between atoms: C_2  and  C_3
REMARK    3  A    between atoms: C_2  and  O_4
REMARK    4  A    between atoms: O_4  and  N_5
REMARK    5  A    between atoms: N_5  and  C_6
REMARK    6  A    between atoms: N_5  and  S_18
REMARK    7  A    between atoms: C_6  and  C_7
REMARK    8  A    between atoms: C_6  and  C_14
REMARK    9  A    between atoms: C_7  and  C_8
REMARK   10  A    between atoms: C_8  and  N_9
REMARK   11  A    between atoms: N_9  and  S_10
REMARK   12  A    between atoms: S_10  and  C_11
REMARK   13  A    between atoms: N_16  and  O_17
REMARK   14  A    between atoms: S_18  and  C_21
REMARK   15  A    between atoms: C_24  and  C_25
REMARK                            x       y       z     vdW  Elec       q    Type
REMARK                         _______ _______ _______ _____ _____    ______ ____
ROOT
ATOM      1  N   UNL     1       4.528   5.589  17.796  0.00  0.00    +0.000 NA
ENDROOT
BRANCH   1   2
ATOM      2  S   UNL     1       3.075   5.597  18.727  0.00  0.00    +0.000 S 
ATOM      3  O   UNL     1       2.118   4.793  17.982  0.00  0.00    +0.000 OA
ATOM      4  O   UNL     1       3.393   5.251  20.097  0.00  0.00    +0.000 OA
BRANCH   2   5
ATOM      5  C   UNL     1       2.441   7.261  18.765  0.00  0.00    +0.000 A 
ATOM      6  C   UNL     1       1.837   7.755  19.922  0.00  0.00    +0.000 A 
ATOM      7  C   UNL     1       1.339   9.066  19.942  0.00  0.00    +0.000 A 
ATOM      8  C   UNL     1       1.433   9.911  18.819  0.00  0.00    +0.000 A 
ATOM      9  C   UNL     1       2.104   9.403  17.692  0.00  0.00    +0.000 A 
ATOM     10  C   UNL     1       2.628   8.103  17.674  0.00  0.00    +0.000 A 
BRANCH   8  11
ATOM     11  C   UNL     1       0.831  11.268  18.822  0.00  0.00    +0.000 A 
ATOM     12  C   UNL     1       1.618  12.423  18.654  0.00  0.00    +0.000 A 
ATOM     13  C   UNL     1       1.062  13.705  18.725  0.00  0.00    +0.000 A 
ATOM     14  C   UNL     1      -0.301  13.864  18.947  0.00  0.00    +0.000 A 
ATOM     15  C   UNL     1      -1.110  12.741  19.089  0.00  0.00    +0.000 A 
ATOM     16  C   UNL     1      -0.548  11.460  19.029  0.00  0.00    +0.000 A 
ENDBRANCH   8  11
ENDBRANCH   2   5
ENDBRANCH   1   2
BRANCH   1  17
ATOM     17  O   UNL     1       5.477   6.419  18.521  0.00  0.00    +0.000 OA
BRANCH  17  19
ATOM     18  C   UNL     1       7.450   7.513  17.526  0.00  0.00    +0.000 C 
ATOM     19  C   UNL     1       6.836   6.244  18.104  0.00  0.00    +0.000 C 
ATOM     20  C   UNL     1       7.619   5.793  19.330  0.00  0.00    +0.000 C 
ENDBRANCH  17  19
ENDBRANCH   1  17
BRANCH   1  21
ATOM     21  C   UNL     1       5.012   4.329  17.138  0.00  0.00    +0.000 C 
BRANCH  21  22
ATOM     22  C   UNL     1       4.763   3.046  17.937  0.00  0.00    +0.000 C 
ATOM     23  O   UNL     1       3.994   2.152  17.575  0.00  0.00    +0.000 OA
ATOM     24  N   UNL     1       5.327   2.985  19.194  0.00  0.00    +0.000 N 
ATOM     25  H   UNL     1       5.607   3.814  19.712  0.00  0.00    +0.000 HD
BRANCH  24  26
ATOM     26  O   UNL     1       4.880   1.903  19.996  0.00  0.00    +0.000 OA
ATOM     27  H   UNL     1       5.322   2.073  20.857  0.00  0.00    +0.000 HD
ENDBRANCH  24  26
ENDBRANCH  21  22
BRANCH  21  28
ATOM     28  C   UNL     1       4.667   4.240  15.637  0.00  0.00    +0.000 C 
BRANCH  28  29
ATOM     29  C   UNL     1       5.806   4.483  14.641  0.00  0.00    +0.000 C 
BRANCH  29  30
ATOM     30  N   UNL     1       6.231   3.290  13.887  0.00  0.00    +0.000 NA
ATOM     31  H   UNL     1       5.920   2.407  14.288  0.00  0.00    +0.000 HD
BRANCH  30  32
ATOM     32  S   UNL     1       6.352   3.370  12.217  0.00  0.00    +0.000 S 
ATOM     33  C   UNL     1       4.649   3.589  11.736  0.00  0.00    +0.000 C 
ATOM     34  O   UNL     1       7.071   4.587  11.909  0.00  0.00    +0.000 OA
ATOM     35  O   UNL     1       6.809   2.084  11.748  0.00  0.00    +0.000 OA
ENDBRANCH  30  32
ENDBRANCH  29  30
ENDBRANCH  28  29
ENDBRANCH  21  28
ENDBRANCH   1  21
TORSDOF 12
ENDMDL
MODEL 3
REMARK VINA RESULT:      -6.9      6.216      9.568
REMARK  Name = 
REMARK  15 active torsions:
REMARK  status: ('A' for Active; 'I' for Inactive)
REMARK    1  A    between atoms: C_1  and  C_2
REMARK    2  A    between atoms: C_2  and  C_3
REMARK    3  A    between atoms: C_2  and  O_4
REMARK    4  A    between atoms: O_4  and  N_5
REMARK    5  A    between atoms: N_5  and  C_6
REMARK    6  A    between atoms: N_5  and  S_18
REMARK    7  A    between atoms: C_6  and  C_7
REMARK    8  A    between atoms: C_6  and  C_14
REMARK    9  A    between atoms: C_7  and  C_8
REMARK   10  A    between atoms: C_8  and  N_9
REMARK   11  A    between atoms: N_9  and  S_10
REMARK   12  A    between atoms: S_10  and  C_11
REMARK   13  A    between atoms: N_16  and  O_17
REMARK   14  A    between atoms: S_18  and  C_21
REMARK   15  A    between atoms: C_24  and  C_25
REMARK                            x       y       z     vdW  Elec       q    Type
REMARK                         _______ _______ _______ _____ _____    ______ ____
ROOT
ATOM      1  N   UNL     1       6.173   5.326  16.895  0.00  0.00    +0.000 NA
ENDROOT
BRANCH   1   2
ATOM      2  S   UNL     1       4.578   4.683  17.041  0.00  0.00    +0.000 S 
ATOM      3  O   UNL     1       4.032   4.658  15.693  0.00  0.00    +0.000 OA
ATOM      4  O   UNL     1       4.632   3.463  17.819  0.00  0.00    +0.000 OA
BRANCH   2   5
ATOM      5  C   UNL     1       3.594   5.833  17.980  0.00  0.00    +0.000 A 
ATOM      6  C   UNL     1       3.375   7.126  17.500  0.00  0.00    +0.000 A 
ATOM      7  C   UNL     1       2.600   8.025  18.247  0.00  0.00    +0.000 A 
ATOM      8  C   UNL     1       2.025   7.659  19.480  0.00  0.00    +0.000 A 
ATOM      9  C   UNL     1       2.213   6.331  19.903  0.00  0.00    +0.000 A 
ATOM     10  C   UNL     1       2.964   5.419  19.149  0.00  0.00    +0.000 A 
BRANCH   8  11
ATOM     11  C   UNL     1       1.275   8.641  20.303  0.00  0.00    +0.000 A 
ATOM     12  C   UNL     1       0.657   9.766  19.726  0.00  0.00    +0.000 A 
ATOM     13  C   UNL     1       0.008  10.728  20.508  0.00  0.00    +0.000 A 
ATOM     14  C   UNL     1      -0.054  10.579  21.889  0.00  0.00    +0.000 A 
ATOM     15  C   UNL     1       0.525   9.464  22.486  0.00  0.00    +0.000 A 
ATOM     16  C   UNL     1       1.182   8.509  21.701  0.00  0.00    +0.000 A 
ENDBRANCH   8  11
ENDBRANCH   2   5
ENDBRANCH   1   2
BRANCH   1  17
ATOM     17  O   UNL     1       6.325   5.715  15.503  0.00  0.00    +0.000 OA
BRANCH  17  19
ATOM     18  C   UNL     1       6.287   3.770  13.987  0.00  0.00    +0.000 C 
ATOM     19  C   UNL     1       7.120   4.806  14.731  0.00  0.00    +0.000 C 
ATOM     20  C   UNL     1       7.917   5.647  13.743  0.00  0.00    +0.000 C 
ENDBRANCH  17  19
ENDBRANCH   1  17
BRANCH   1  21
ATOM     21  C   UNL     1       6.747   6.205  17.968  0.00  0.00    +0.000 C 
BRANCH  21  22
ATOM     22  C   UNL     1       7.036   5.501  19.297  0.00  0.00    +0.000 C 
ATOM     23  O   UNL     1       6.161   5.020  20.021  0.00  0.00    +0.000 OA
ATOM     24  N   UNL     1       8.337   5.557  19.752  0.00  0.00    +0.000 N 
ATOM     25  H   UNL     1       8.998   6.264  19.441  0.00  0.00    +0.000 HD
BRANCH  24  26
ATOM     26  O   UNL     1       8.520   5.113  21.088  0.00  0.00    +0.000 OA
ATOM     27  H   UNL     1       9.372   5.534  21.342  0.00  0.00    +0.000 HD
ENDBRANCH  24  26
ENDBRANCH  21  22
BRANCH  21  28
ATOM     28  C   UNL     1       7.867   7.143  17.470  0.00  0.00    +0.000 C 
BRANCH  28  29
ATOM     29  C   UNL     1       7.703   8.640  17.750  0.00  0.00    +0.000 C 
BRANCH  29  30
ATOM     30  N   UNL     1       8.793   9.243  18.539  0.00  0.00    +0.000 NA
ATOM     31  H   UNL     1       9.563   8.608  18.745  0.00  0.00    +0.000 HD
BRANCH  30  32
ATOM     32  S   UNL     1       9.174  10.860  18.316  0.00  0.00    +0.000 S 
ATOM     33  C   UNL     1       9.332  11.436  19.996  0.00  0.00    +0.000 C 
ATOM     34  O   UNL     1      10.482  10.898  17.698  0.00  0.00    +0.000 OA
ATOM     35  O   UNL     1       8.033  11.500  17.707  0.00  0.00    +0.000 OA
ENDBRANCH  30  32
ENDBRANCH  29  30
ENDBRANCH  28  29
ENDBRANCH  21  28
ENDBRANCH   1  21
TORSDOF 12
ENDMDL
MODEL 4
REMARK VINA RESULT:      -6.9      1.118      1.549
REMARK  Name = 
REMARK  15 active torsions:
REMARK  status: ('A' for Active; 'I' for Inactive)
REMARK    1  A    between atoms: C_1  and  C_2
REMARK    2  A    between atoms: C_2  and  C_3
REMARK    3  A    between atoms: C_2  and  O_4
REMARK    4  A    between atoms: O_4  and  N_5
REMARK    5  A    between atoms: N_5  and  C_6
REMARK    6  A    between atoms: N_5  and  S_18
REMARK    7  A    between atoms: C_6  and  C_7
REMARK    8  A    between atoms: C_6  and  C_14
REMARK    9  A    between atoms: C_7  and  C_8
REMARK   10  A    between atoms: C_8  and  N_9
REMARK   11  A    between atoms: N_9  and  S_10
REMARK   12  A    between atoms: S_10  and  C_11
REMARK   13  A    between atoms: N_16  and  O_17
REMARK   14  A    between atoms: S_18  and  C_21
REMARK   15  A    between atoms: C_24  and  C_25
REMARK                            x       y       z     vdW  Elec       q    Type
REMARK                         _______ _______ _______ _____ _____    ______ ____
ROOT
ATOM      1  N   UNL     1       0.109  10.803  20.392  0.00  0.00    +0.000 NA
ENDROOT
BRANCH   1   2
ATOM      2  S   UNL     1       0.538   9.333  21.188  0.00  0.00    +0.000 S 
ATOM      3  O   UNL     1       1.392   9.716  22.302  0.00  0.00    +0.000 OA
ATOM      4  O   UNL     1      -0.665   8.564  21.435  0.00  0.00    +0.000 OA
BRANCH   2   5
ATOM      5  C   UNL     1       1.534   8.362  20.076  0.00  0.00    +0.000 A 
ATOM      6  C   UNL     1       1.908   8.880  18.835  0.00  0.00    +0.000 A 
ATOM      7  C   UNL     1       2.692   8.108  17.965  0.00  0.00    +0.000 A 
ATOM      8  C   UNL     1       3.122   6.812  18.310  0.00  0.00    +0.000 A 
ATOM      9  C   UNL     1       2.781   6.346  19.593  0.00  0.00    +0.000 A 
ATOM     10  C   UNL     1       2.020   7.123  20.478  0.00  0.00    +0.000 A 
BRANCH   8  11
ATOM     11  C   UNL     1       3.881   5.970  17.352  0.00  0.00    +0.000 A 
ATOM     12  C   UNL     1       3.794   4.566  17.375  0.00  0.00    +0.000 A 
ATOM     13  C   UNL     1       4.562   3.769  16.518  0.00  0.00    +0.000 A 
ATOM     14  C   UNL     1       5.425   4.360  15.602  0.00  0.00    +0.000 A 
ATOM     15  C   UNL     1       5.513   5.747  15.537  0.00  0.00    +0.000 A 
ATOM     16  C   UNL     1       4.751   6.540  16.403  0.00  0.00    +0.000 A 
ENDBRANCH   8  11
ENDBRANCH   2   5
ENDBRANCH   1   2
BRANCH   1  17
ATOM     17  O   UNL     1      -1.206  10.579  19.813  0.00  0.00    +0.000 OA
BRANCH  17  19
ATOM     18  C   UNL     1      -1.372   9.915  17.443  0.00  0.00    +0.000 C 
ATOM     19  C   UNL     1      -1.330  11.046  18.464  0.00  0.00    +0.000 C 
ATOM     20  C   UNL     1      -2.615  11.861  18.396  0.00  0.00    +0.000 C 
ENDBRANCH  17  19
ENDBRANCH   1  17
BRANCH   1  21
ATOM     21  C   UNL     1       0.415  12.133  21.019  0.00  0.00    +0.000 C 
BRANCH  21  22
ATOM     22  C   UNL     1       1.388  13.012  20.228  0.00  0.00    +0.000 C 
ATOM     23  O   UNL     1       2.017  12.622  19.242  0.00  0.00    +0.000 OA
ATOM     24  N   UNL     1       1.667  14.253  20.761  0.00  0.00    +0.000 N 
ATOM     25  H   UNL     1       1.527  14.474  21.744  0.00  0.00    +0.000 HD
BRANCH  24  26
ATOM     26  O   UNL     1       2.745  14.938  20.143  0.00  0.00    +0.000 OA
ATOM     27  H   UNL     1       2.623  15.863  20.454  0.00  0.00    +0.000 HD
ENDBRANCH  24  26
ENDBRANCH  21  22
BRANCH  21  28
ATOM     28  C   UNL     1      -0.829  12.863  21.565  0.00  0.00    +0.000 C 
BRANCH  28  29
ATOM     29  C   UNL     1      -1.218  12.592  23.022  0.00  0.00    +0.000 C 
BRANCH  29  30
ATOM     30  N   UNL     1      -2.490  11.867  23.197  0.00  0.00    +0.000 NA
ATOM     31  H   UNL     1      -2.388  10.923  23.564  0.00  0.00    +0.000 HD
BRANCH  30  32
ATOM     32  S   UNL     1      -3.866  12.715  23.641  0.00  0.00    +0.000 S 
ATOM     33  C   UNL     1      -3.173  14.171  24.401  0.00  0.00    +0.000 C 
ATOM     34  O   UNL     1      -4.525  13.111  22.415  0.00  0.00    +0.000 OA
ATOM     35  O   UNL     1      -4.551  11.941  24.649  0.00  0.00    +0.000 OA
ENDBRANCH  30  32
ENDBRANCH  29  30
ENDBRANCH  28  29
ENDBRANCH  21  28
ENDBRANCH   1  21
TORSDOF 12
ENDMDL
MODEL 5
REMARK VINA RESULT:      -6.9      5.122      9.864
REMARK  Name = 
REMARK  15 active torsions:
REMARK  status: ('A' for Active; 'I' for Inactive)
REMARK    1  A    between atoms: C_1  and  C_2
REMARK    2  A    between atoms: C_2  and  C_3
REMARK    3  A    between atoms: C_2  and  O_4
REMARK    4  A    between atoms: O_4  and  N_5
REMARK    5  A    between atoms: N_5  and  C_6
REMARK    6  A    between atoms: N_5  and  S_18
REMARK    7  A    between atoms: C_6  and  C_7
REMARK    8  A    between atoms: C_6  and  C_14
REMARK    9  A    between atoms: C_7  and  C_8
REMARK   10  A    between atoms: C_8  and  N_9
REMARK   11  A    between atoms: N_9  and  S_10
REMARK   12  A    between atoms: S_10  and  C_11
REMARK   13  A    between atoms: N_16  and  O_17
REMARK   14  A    between atoms: S_18  and  C_21
REMARK   15  A    between atoms: C_24  and  C_25
REMARK                            x       y       z     vdW  Elec       q    Type
REMARK                         _______ _______ _______ _____ _____    ______ ____
ROOT
ATOM      1  N   UNL     1       3.572   5.341  19.723  0.00  0.00    +0.000 NA
ENDROOT
BRANCH   1   2
ATOM      2  S   UNL     1       2.843   6.354  18.530  0.00  0.00    +0.000 S 
ATOM      3  O   UNL     1       3.941   6.917  17.759  0.00  0.00    +0.000 OA
ATOM      4  O   UNL     1       1.798   5.611  17.858  0.00  0.00    +0.000 OA
BRANCH   2   5
ATOM      5  C   UNL     1       2.040   7.710  19.360  0.00  0.00    +0.000 A 
ATOM      6  C   UNL     1       1.694   8.861  18.650  0.00  0.00    +0.000 A 
ATOM      7  C   UNL     1       1.063   9.925  19.312  0.00  0.00    +0.000 A 
ATOM      8  C   UNL     1       0.762   9.866  20.687  0.00  0.00    +0.000 A 
ATOM      9  C   UNL     1       1.066   8.667  21.357  0.00  0.00    +0.000 A 
ATOM     10  C   UNL     1       1.673   7.591  20.696  0.00  0.00    +0.000 A 
BRANCH   8  11
ATOM     11  C   UNL     1       0.169  11.027  21.397  0.00  0.00    +0.000 A 
ATOM     12  C   UNL     1      -0.772  10.857  22.430  0.00  0.00    +0.000 A 
ATOM     13  C   UNL     1      -1.383  11.951  23.053  0.00  0.00    +0.000 A 
ATOM     14  C   UNL     1      -1.054  13.246  22.670  0.00  0.00    +0.000 A 
ATOM     15  C   UNL     1      -0.107  13.447  21.671  0.00  0.00    +0.000 A 
ATOM     16  C   UNL     1       0.494  12.350  21.042  0.00  0.00    +0.000 A 
ENDBRANCH   8  11
ENDBRANCH   2   5
ENDBRANCH   1   2
BRANCH   1  17
ATOM     17  O   UNL     1       2.485   4.859  20.560  0.00  0.00    +0.000 OA
BRANCH  17  19
ATOM     18  C   UNL     1       2.404   2.741  21.820  0.00  0.00    +0.000 C 
ATOM     19  C   UNL     1       2.274   3.444  20.475  0.00  0.00    +0.000 C 
ATOM     20  C   UNL     1       0.874   3.240  19.910  0.00  0.00    +0.000 C 
ENDBRANCH  17  19
ENDBRANCH   1  17
BRANCH   1  21
ATOM     21  C   UNL     1       4.685   4.403  19.356  0.00  0.00    +0.000 C 
BRANCH  21  22
ATOM     22  C   UNL     1       4.280   3.245  18.439  0.00  0.00    +0.000 C 
ATOM     23  O   UNL     1       3.659   3.393  17.383  0.00  0.00    +0.000 OA
ATOM     24  N   UNL     1       4.503   1.972  18.920  0.00  0.00    +0.000 N 
ATOM     25  H   UNL     1       4.614   1.771  19.911  0.00  0.00    +0.000 HD
BRANCH  24  26
ATOM     26  O   UNL     1       3.900   0.935  18.163  0.00  0.00    +0.000 OA
ATOM     27  H   UNL     1       4.358   0.129  18.494  0.00  0.00    +0.000 HD
ENDBRANCH  24  26
ENDBRANCH  21  22
BRANCH  21  28
ATOM     28  C   UNL     1       5.996   5.117  18.964  0.00  0.00    +0.000 C 
BRANCH  28  29
ATOM     29  C   UNL     1       6.829   4.488  17.844  0.00  0.00    +0.000 C 
BRANCH  29  30
ATOM     30  N   UNL     1       7.332   5.441  16.838  0.00  0.00    +0.000 NA
ATOM     31  H   UNL     1       8.307   5.709  16.965  0.00  0.00    +0.000 HD
BRANCH  30  32
ATOM     32  S   UNL     1       6.762   5.356  15.264  0.00  0.00    +0.000 S 
ATOM     33  C   UNL     1       6.169   3.677  15.179  0.00  0.00    +0.000 C 
ATOM     34  O   UNL     1       5.623   6.245  15.185  0.00  0.00    +0.000 OA
ATOM     35  O   UNL     1       7.894   5.499  14.380  0.00  0.00    +0.000 OA
ENDBRANCH  30  32
ENDBRANCH  29  30
ENDBRANCH  28  29
ENDBRANCH  21  28
ENDBRANCH   1  21
TORSDOF 12
ENDMDL
MODEL 6
REMARK VINA RESULT:      -6.8      2.548      3.620
REMARK  Name = 
REMARK  15 active torsions:
REMARK  status: ('A' for Active; 'I' for Inactive)
REMARK    1  A    between atoms: C_1  and  C_2
REMARK    2  A    between atoms: C_2  and  C_3
REMARK    3  A    between atoms: C_2  and  O_4
REMARK    4  A    between atoms: O_4  and  N_5
REMARK    5  A    between atoms: N_5  and  C_6
REMARK    6  A    between atoms: N_5  and  S_18
REMARK    7  A    between atoms: C_6  and  C_7
REMARK    8  A    between atoms: C_6  and  C_14
REMARK    9  A    between atoms: C_7  and  C_8
REMARK   10  A    between atoms: C_8  and  N_9
REMARK   11  A    between atoms: N_9  and  S_10
REMARK   12  A    between atoms: S_10  and  C_11
REMARK   13  A    between atoms: N_16  and  O_17
REMARK   14  A    between atoms: S_18  and  C_21
REMARK   15  A    between atoms: C_24  and  C_25
REMARK                            x       y       z     vdW  Elec       q    Type
REMARK                         _______ _______ _______ _____ _____    ______ ____
ROOT
ATOM      1  N   UNL     1      -0.722  11.740  20.286  0.00  0.00    +0.000 NA
ENDROOT
BRANCH   1   2
ATOM      2  S   UNL     1       0.962  11.769  19.912  0.00  0.00    +0.000 S 
ATOM      3  O   UNL     1       1.103  12.658  18.768  0.00  0.00    +0.000 OA
ATOM      4  O   UNL     1       1.709  12.034  21.124  0.00  0.00    +0.000 OA
BRANCH   2   5
ATOM      5  C   UNL     1       1.446  10.143  19.370  0.00  0.00    +0.000 A 
ATOM      6  C   UNL     1       1.405   9.066  20.258  0.00  0.00    +0.000 A 
ATOM      7  C   UNL     1       1.789   7.790  19.823  0.00  0.00    +0.000 A 
ATOM      8  C   UNL     1       2.218   7.556  18.502  0.00  0.00    +0.000 A 
ATOM      9  C   UNL     1       2.186   8.649  17.618  0.00  0.00    +0.000 A 
ATOM     10  C   UNL     1       1.779   9.922  18.038  0.00  0.00    +0.000 A 
BRANCH   8  11
ATOM     11  C   UNL     1       2.700   6.219  18.073  0.00  0.00    +0.000 A 
ATOM     12  C   UNL     1       1.845   5.102  18.043  0.00  0.00    +0.000 A 
ATOM     13  C   UNL     1       2.314   3.828  17.704  0.00  0.00    +0.000 A 
ATOM     14  C   UNL     1       3.651   3.642  17.368  0.00  0.00    +0.000 A 
ATOM     15  C   UNL     1       4.515   4.733  17.362  0.00  0.00    +0.000 A 
ATOM     16  C   UNL     1       4.044   6.004  17.712  0.00  0.00    +0.000 A 
ENDBRANCH   8  11
ENDBRANCH   2   5
ENDBRANCH   1   2
BRANCH   1  17
ATOM     17  O   UNL     1      -0.826  12.056  21.701  0.00  0.00    +0.000 OA
BRANCH  17  19
ATOM     18  C   UNL     1      -0.496  10.119  23.192  0.00  0.00    +0.000 C 
ATOM     19  C   UNL     1      -1.476  11.039  22.475  0.00  0.00    +0.000 C 
ATOM     20  C   UNL     1      -2.361  11.754  23.487  0.00  0.00    +0.000 C 
ENDBRANCH  17  19
ENDBRANCH   1  17
BRANCH   1  21
ATOM     21  C   UNL     1      -1.730  12.313  19.332  0.00  0.00    +0.000 C 
BRANCH  21  22
ATOM     22  C   UNL     1      -2.316  11.313  18.332  0.00  0.00    +0.000 C 
ATOM     23  O   UNL     1      -2.041  10.110  18.325  0.00  0.00    +0.000 OA
ATOM     24  N   UNL     1      -3.071  11.840  17.305  0.00  0.00    +0.000 N 
ATOM     25  H   UNL     1      -2.996  12.810  17.010  0.00  0.00    +0.000 HD
BRANCH  24  26
ATOM     26  O   UNL     1      -3.391  10.924  16.270  0.00  0.00    +0.000 OA
ATOM     27  H   UNL     1      -2.507  10.668  15.924  0.00  0.00    +0.000 HD
ENDBRANCH  24  26
ENDBRANCH  21  22
BRANCH  21  28
ATOM     28  C   UNL     1      -2.761  13.245  20.003  0.00  0.00    +0.000 C 
BRANCH  28  29
ATOM     29  C   UNL     1      -4.110  12.632  20.393  0.00  0.00    +0.000 C 
BRANCH  29  30
ATOM     30  N   UNL     1      -5.220  12.951  19.477  0.00  0.00    +0.000 NA
ATOM     31  H   UNL     1      -4.927  13.195  18.532  0.00  0.00    +0.000 HD
BRANCH  30  32
ATOM     32  S   UNL     1      -6.680  12.144  19.640  0.00  0.00    +0.000 S 
ATOM     33  C   UNL     1      -6.628  11.008  18.267  0.00  0.00    +0.000 C 
ATOM     34  O   UNL     1      -6.599  11.380  20.866  0.00  0.00    +0.000 OA
ATOM     35  O   UNL     1      -7.737  13.102  19.416  0.00  0.00    +0.000 OA
ENDBRANCH  30  32
ENDBRANCH  29  30
ENDBRANCH  28  29
ENDBRANCH  21  28
ENDBRANCH   1  21
TORSDOF 12
ENDMDL
MODEL 7
REMARK VINA RESULT:      -6.8      5.968      9.386
REMARK  Name = 
REMARK  15 active torsions:
REMARK  status: ('A' for Active; 'I' for Inactive)
REMARK    1  A    between atoms: C_1  and  C_2
REMARK    2  A    between atoms: C_2  and  C_3
REMARK    3  A    between atoms: C_2  and  O_4
REMARK    4  A    between atoms: O_4  and  N_5
REMARK    5  A    between atoms: N_5  and  C_6
REMARK    6  A    between atoms: N_5  and  S_18
REMARK    7  A    between atoms: C_6  and  C_7
REMARK    8  A    between atoms: C_6  and  C_14
REMARK    9  A    between atoms: C_7  and  C_8
REMARK   10  A    between atoms: C_8  and  N_9
REMARK   11  A    between atoms: N_9  and  S_10
REMARK   12  A    between atoms: S_10  and  C_11
REMARK   13  A    between atoms: N_16  and  O_17
REMARK   14  A    between atoms: S_18  and  C_21
REMARK   15  A    between atoms: C_24  and  C_25
REMARK                            x       y       z     vdW  Elec       q    Type
REMARK                         _______ _______ _______ _____ _____    ______ ____
ROOT
ATOM      1  N   UNL     1       5.553   5.401  17.365  0.00  0.00    +0.000 NA
ENDROOT
BRANCH   1   2
ATOM      2  S   UNL     1       4.060   4.905  18.076  0.00  0.00    +0.000 S 
ATOM      3  O   UNL     1       3.311   4.247  17.016  0.00  0.00    +0.000 OA
ATOM      4  O   UNL     1       4.339   4.196  19.307  0.00  0.00    +0.000 OA
BRANCH   2   5
ATOM      5  C   UNL     1       3.144   6.363  18.533  0.00  0.00    +0.000 A 
ATOM      6  C   UNL     1       2.577   6.465  19.805  0.00  0.00    +0.000 A 
ATOM      7  C   UNL     1       1.856   7.615  20.156  0.00  0.00    +0.000 A 
ATOM      8  C   UNL     1       1.687   8.686  19.256  0.00  0.00    +0.000 A 
ATOM      9  C   UNL     1       2.326   8.577  18.007  0.00  0.00    +0.000 A 
ATOM     10  C   UNL     1       3.069   7.441  17.659  0.00  0.00    +0.000 A 
BRANCH   8  11
ATOM     11  C   UNL     1       0.854   9.864  19.606  0.00  0.00    +0.000 A 
ATOM     12  C   UNL     1       0.219   9.972  20.857  0.00  0.00    +0.000 A 
ATOM     13  C   UNL     1      -0.621  11.049  21.163  0.00  0.00    +0.000 A 
ATOM     14  C   UNL     1      -0.833  12.056  20.228  0.00  0.00    +0.000 A 
ATOM     15  C   UNL     1      -0.197  11.991  18.992  0.00  0.00    +0.000 A 
ATOM     16  C   UNL     1       0.634  10.907  18.686  0.00  0.00    +0.000 A 
ENDBRANCH   8  11
ENDBRANCH   2   5
ENDBRANCH   1   2
BRANCH   1  17
ATOM     17  O   UNL     1       5.250   5.730  15.982  0.00  0.00    +0.000 OA
BRANCH  17  19
ATOM     18  C   UNL     1       7.142   5.339  14.449  0.00  0.00    +0.000 C 
ATOM     19  C   UNL     1       5.831   4.828  15.032  0.00  0.00    +0.000 C 
ATOM     20  C   UNL     1       6.060   3.509  15.760  0.00  0.00    +0.000 C 
ENDBRANCH  17  19
ENDBRANCH   1  17
BRANCH   1  21
ATOM     21  C   UNL     1       6.517   6.262  18.129  0.00  0.00    +0.000 C 
BRANCH  21  22
ATOM     22  C   UNL     1       7.603   5.498  18.891  0.00  0.00    +0.000 C 
ATOM     23  O   UNL     1       8.179   4.501  18.448  0.00  0.00    +0.000 OA
ATOM     24  N   UNL     1       7.820   5.879  20.199  0.00  0.00    +0.000 N 
ATOM     25  H   UNL     1       7.128   6.383  20.747  0.00  0.00    +0.000 HD
BRANCH  24  26
ATOM     26  O   UNL     1       8.650   5.002  20.945  0.00  0.00    +0.000 OA
ATOM     27  H   UNL     1       9.126   4.503  20.243  0.00  0.00    +0.000 HD
ENDBRANCH  24  26
ENDBRANCH  21  22
BRANCH  21  28
ATOM     28  C   UNL     1       7.016   7.489  17.336  0.00  0.00    +0.000 C 
BRANCH  28  29
ATOM     29  C   UNL     1       8.138   8.321  17.966  0.00  0.00    +0.000 C 
BRANCH  29  30
ATOM     30  N   UNL     1       8.106   9.755  17.630  0.00  0.00    +0.000 NA
ATOM     31  H   UNL     1       7.174  10.120  17.438  0.00  0.00    +0.000 HD
BRANCH  30  32
ATOM     32  S   UNL     1       9.199  10.797  18.358  0.00  0.00    +0.000 S 
ATOM     33  C   UNL     1       8.425  12.382  18.099  0.00  0.00    +0.000 C 
ATOM     34  O   UNL     1       9.173  10.504  19.775  0.00  0.00    +0.000 OA
ATOM     35  O   UNL     1      10.426  10.744  17.600  0.00  0.00    +0.000 OA
ENDBRANCH  30  32
ENDBRANCH  29  30
ENDBRANCH  28  29
ENDBRANCH  21  28
ENDBRANCH   1  21
TORSDOF 12
ENDMDL
MODEL 8
REMARK VINA RESULT:      -6.7      1.065      1.419
REMARK  Name = 
REMARK  15 active torsions:
REMARK  status: ('A' for Active; 'I' for Inactive)
REMARK    1  A    between atoms: C_1  and  C_2
REMARK    2  A    between atoms: C_2  and  C_3
REMARK    3  A    between atoms: C_2  and  O_4
REMARK    4  A    between atoms: O_4  and  N_5
REMARK    5  A    between atoms: N_5  and  C_6
REMARK    6  A    between atoms: N_5  and  S_18
REMARK    7  A    between atoms: C_6  and  C_7
REMARK    8  A    between atoms: C_6  and  C_14
REMARK    9  A    between atoms: C_7  and  C_8
REMARK   10  A    between atoms: C_8  and  N_9
REMARK   11  A    between atoms: N_9  and  S_10
REMARK   12  A    between atoms: S_10  and  C_11
REMARK   13  A    between atoms: N_16  and  O_17
REMARK   14  A    between atoms: S_18  and  C_21
REMARK   15  A    between atoms: C_24  and  C_25
REMARK                            x       y       z     vdW  Elec       q    Type
REMARK                         _______ _______ _______ _____ _____    ______ ____
ROOT
ATOM      1  N   UNL     1       0.068  11.259  19.864  0.00  0.00    +0.000 NA
ENDROOT
BRANCH   1   2
ATOM      2  S   UNL     1       0.413   9.858  20.811  0.00  0.00    +0.000 S 
ATOM      3  O   UNL     1       1.243  10.315  21.915  0.00  0.00    +0.000 OA
ATOM      4  O   UNL     1      -0.826   9.158  21.083  0.00  0.00    +0.000 OA
BRANCH   2   5
ATOM      5  C   UNL     1       1.409   8.751  19.834  0.00  0.00    +0.000 A 
ATOM      6  C   UNL     1       1.791   9.108  18.539  0.00  0.00    +0.000 A 
ATOM      7  C   UNL     1       2.574   8.230  17.776  0.00  0.00    +0.000 A 
ATOM      8  C   UNL     1       2.996   6.985  18.282  0.00  0.00    +0.000 A 
ATOM      9  C   UNL     1       2.648   6.685  19.612  0.00  0.00    +0.000 A 
ATOM     10  C   UNL     1       1.887   7.569  20.389  0.00  0.00    +0.000 A 
BRANCH   8  11
ATOM     11  C   UNL     1       3.755   6.027  17.440  0.00  0.00    +0.000 A 
ATOM     12  C   UNL     1       3.558   4.637  17.545  0.00  0.00    +0.000 A 
ATOM     13  C   UNL     1       4.321   3.730  16.802  0.00  0.00    +0.000 A 
ATOM     14  C   UNL     1       5.291   4.192  15.919  0.00  0.00    +0.000 A 
ATOM     15  C   UNL     1       5.490   5.562  15.774  0.00  0.00    +0.000 A 
ATOM     16  C   UNL     1       4.732   6.466  16.527  0.00  0.00    +0.000 A 
ENDBRANCH   8  11
ENDBRANCH   2   5
ENDBRANCH   1   2
BRANCH   1  17
ATOM     17  O   UNL     1      -1.378  11.296  19.711  0.00  0.00    +0.000 OA
BRANCH  17  19
ATOM     18  C   UNL     1      -1.566  10.112  17.555  0.00  0.00    +0.000 C 
ATOM     19  C   UNL     1      -1.813  11.389  18.348  0.00  0.00    +0.000 C 
ATOM     20  C   UNL     1      -3.302  11.707  18.382  0.00  0.00    +0.000 C 
ENDBRANCH  17  19
ENDBRANCH   1  17
BRANCH   1  21
ATOM     21  C   UNL     1       0.812  12.542  20.094  0.00  0.00    +0.000 C 
BRANCH  21  22
ATOM     22  C   UNL     1       1.692  12.998  18.927  0.00  0.00    +0.000 C 
ATOM     23  O   UNL     1       2.341  12.226  18.216  0.00  0.00    +0.000 OA
ATOM     24  N   UNL     1       1.867  14.358  18.782  0.00  0.00    +0.000 N 
ATOM     25  H   UNL     1       1.720  15.015  19.544  0.00  0.00    +0.000 HD
BRANCH  24  26
ATOM     26  O   UNL     1       2.872  14.735  17.854  0.00  0.00    +0.000 OA
ATOM     27  H   UNL     1       3.277  15.524  18.280  0.00  0.00    +0.000 HD
ENDBRANCH  24  26
ENDBRANCH  21  22
BRANCH  21  28
ATOM     28  C   UNL     1      -0.047  13.653  20.735  0.00  0.00    +0.000 C 
BRANCH  28  29
ATOM     29  C   UNL     1      -0.628  13.373  22.125  0.00  0.00    +0.000 C 
BRANCH  29  30
ATOM     30  N   UNL     1      -2.075  13.627  22.251  0.00  0.00    +0.000 NA
ATOM     31  H   UNL     1      -2.478  14.152  21.476  0.00  0.00    +0.000 HD
BRANCH  30  32
ATOM     32  S   UNL     1      -3.052  12.481  22.987  0.00  0.00    +0.000 S 
ATOM     33  C   UNL     1      -3.606  13.349  24.441  0.00  0.00    +0.000 C 
ATOM     34  O   UNL     1      -4.189  12.281  22.115  0.00  0.00    +0.000 OA
ATOM     35  O   UNL     1      -2.209  11.381  23.391  0.00  0.00    +0.000 OA
ENDBRANCH  30  32
ENDBRANCH  29  30
ENDBRANCH  28  29
ENDBRANCH  21  28
ENDBRANCH   1  21
TORSDOF 12
ENDMDL
MODEL 9
REMARK VINA RESULT:      -6.7      1.526      1.783
REMARK  Name = 
REMARK  15 active torsions:
REMARK  status: ('A' for Active; 'I' for Inactive)
REMARK    1  A    between atoms: C_1  and  C_2
REMARK    2  A    between atoms: C_2  and  C_3
REMARK    3  A    between atoms: C_2  and  O_4
REMARK    4  A    between atoms: O_4  and  N_5
REMARK    5  A    between atoms: N_5  and  C_6
REMARK    6  A    between atoms: N_5  and  S_18
REMARK    7  A    between atoms: C_6  and  C_7
REMARK    8  A    between atoms: C_6  and  C_14
REMARK    9  A    between atoms: C_7  and  C_8
REMARK   10  A    between atoms: C_8  and  N_9
REMARK   11  A    between atoms: N_9  and  S_10
REMARK   12  A    between atoms: S_10  and  C_11
REMARK   13  A    between atoms: N_16  and  O_17
REMARK   14  A    between atoms: S_18  and  C_21
REMARK   15  A    between atoms: C_24  and  C_25
REMARK                            x       y       z     vdW  Elec       q    Type
REMARK                         _______ _______ _______ _____ _____    ______ ____
ROOT
ATOM      1  N   UNL     1      -0.794  11.151  19.726  0.00  0.00    +0.000 NA
ENDROOT
BRANCH   1   2
ATOM      2  S   UNL     1       0.304  10.360  20.798  0.00  0.00    +0.000 S 
ATOM      3  O   UNL     1       1.246  11.381  21.231  0.00  0.00    +0.000 OA
ATOM      4  O   UNL     1      -0.454   9.617  21.782  0.00  0.00    +0.000 OA
BRANCH   2   5
ATOM      5  C   UNL     1       1.230   9.158  19.865  0.00  0.00    +0.000 A 
ATOM      6  C   UNL     1       1.520   7.911  20.421  0.00  0.00    +0.000 A 
ATOM      7  C   UNL     1       2.252   6.971  19.681  0.00  0.00    +0.000 A 
ATOM      8  C   UNL     1       2.706   7.248  18.376  0.00  0.00    +0.000 A 
ATOM      9  C   UNL     1       2.341   8.489  17.823  0.00  0.00    +0.000 A 
ATOM     10  C   UNL     1       1.588   9.423  18.548  0.00  0.00    +0.000 A 
BRANCH   8  11
ATOM     11  C   UNL     1       3.549   6.281  17.631  0.00  0.00    +0.000 A 
ATOM     12  C   UNL     1       3.332   4.893  17.721  0.00  0.00    +0.000 A 
ATOM     13  C   UNL     1       4.168   3.976  17.073  0.00  0.00    +0.000 A 
ATOM     14  C   UNL     1       5.234   4.427  16.302  0.00  0.00    +0.000 A 
ATOM     15  C   UNL     1       5.457   5.794  16.172  0.00  0.00    +0.000 A 
ATOM     16  C   UNL     1       4.625   6.708  16.830  0.00  0.00    +0.000 A 
ENDBRANCH   8  11
ENDBRANCH   2   5
ENDBRANCH   1   2
BRANCH   1  17
ATOM     17  O   UNL     1      -1.675  10.114  19.213  0.00  0.00    +0.000 OA
BRANCH  17  19
ATOM     18  C   UNL     1      -1.485   9.735  16.784  0.00  0.00    +0.000 C 
ATOM     19  C   UNL     1      -2.231  10.412  17.927  0.00  0.00    +0.000 C 
ATOM     20  C   UNL     1      -3.681   9.947  17.955  0.00  0.00    +0.000 C 
ENDBRANCH  17  19
ENDBRANCH   1  17
BRANCH   1  21
ATOM     21  C   UNL     1      -1.369  12.495  20.071  0.00  0.00    +0.000 C 
BRANCH  21  22
ATOM     22  C   UNL     1      -1.014  13.621  19.096  0.00  0.00    +0.000 C 
ATOM     23  O   UNL     1      -0.404  13.444  18.039  0.00  0.00    +0.000 OA
ATOM     24  N   UNL     1      -1.270  14.907  19.523  0.00  0.00    +0.000 N 
ATOM     25  H   UNL     1      -1.372  15.151  20.504  0.00  0.00    +0.000 HD
BRANCH  24  26
ATOM     26  O   UNL     1      -0.711  15.927  18.709  0.00  0.00    +0.000 OA
ATOM     27  H   UNL     1      -0.681  15.505  17.821  0.00  0.00    +0.000 HD
ENDBRANCH  24  26
ENDBRANCH  21  22
BRANCH  21  28
ATOM     28  C   UNL     1      -2.851  12.445  20.499  0.00  0.00    +0.000 C 
BRANCH  28  29
ATOM     29  C   UNL     1      -3.190  12.941  21.909  0.00  0.00    +0.000 C 
BRANCH  29  30
ATOM     30  N   UNL     1      -4.471  12.448  22.445  0.00  0.00    +0.000 NA
ATOM     31  H   UNL     1      -4.711  11.501  22.155  0.00  0.00    +0.000 HD
BRANCH  30  32
ATOM     32  S   UNL     1      -4.963  12.925  23.974  0.00  0.00    +0.000 S 
ATOM     33  C   UNL     1      -5.710  14.510  23.642  0.00  0.00    +0.000 C 
ATOM     34  O   UNL     1      -6.005  12.008  24.382  0.00  0.00    +0.000 OA
ATOM     35  O   UNL     1      -3.778  13.124  24.774  0.00  0.00    +0.000 OA
ENDBRANCH  30  32
ENDBRANCH  29  30
ENDBRANCH  28  29
ENDBRANCH  21  28
ENDBRANCH   1  21
TORSDOF 12
ENDMDL
