MODEL 1
REMARK VINA RESULT:      -7.9      0.000      0.000
REMARK  Name = 
REMARK  12 active torsions:
REMARK  status: ('A' for Active; 'I' for Inactive)
REMARK    1  A    between atoms: C_1  and  O_2
REMARK    2  A    between atoms: O_2  and  C_3
REMARK    3  A    between atoms: C_3  and  C_5
REMARK    4  A    between atoms: C_5  and  C_18
REMARK    5  A    between atoms: C_6  and  C_7
REMARK    6  A    between atoms: C_6  and  C_8
REMARK    7  A    between atoms: C_10  and  O_11
REMARK    8  A    between atoms: O_11  and  C_12
REMARK    9  A    between atoms: C_14  and  O_15
REMARK   10  A    between atoms: O_15  and  C_16
REMARK   11  A    between atoms: C_18  and  C_26
REMARK   12  A    between atoms: C_19  and  C_20
REMARK                            x       y       z     vdW  Elec       q    Type
REMARK                         _______ _______ _______ _____ _____    ______ ____
ROOT
ATOM      1  C   UNL     1       7.000   6.658  17.238  0.00  0.00    +0.000 C 
ATOM      2  C   UNL     1       7.554   6.113  16.105  0.00  0.00    +0.000 C 
ENDROOT
BRANCH   1   3
ATOM      3  C   UNL     1       7.819   7.788  17.850  0.00  0.00    +0.000 C 
ATOM      4  O   UNL     1       8.486   7.511  18.847  0.00  0.00    +0.000 OA
ATOM      5  N   UNL     1       7.826   9.079  17.408  0.00  0.00    +0.000 N 
ATOM      6  C   UNL     1       8.576  10.112  18.071  0.00  0.00    +0.000 A 
ATOM      7  N   UNL     1       9.458   9.809  19.071  0.00  0.00    +0.000 NA
ATOM      8  C   UNL     1      10.150  10.770  19.732  0.00  0.00    +0.000 A 
ATOM      9  C   UNL     1       9.959  12.107  19.406  0.00  0.00    +0.000 A 
ATOM     10  C   UNL     1       9.061  12.411  18.382  0.00  0.00    +0.000 A 
ATOM     11  N   UNL     1       8.391  11.419  17.732  0.00  0.00    +0.000 NA
ATOM     12  H   UNL     1       7.229   9.336  16.610  0.00  0.00    +0.000 HD
ENDBRANCH   1   3
BRANCH   2  13
ATOM     13  C   UNL     1       7.004   5.138  15.134  0.00  0.00    +0.000 A 
ATOM     14  C   UNL     1       5.914   4.307  15.436  0.00  0.00    +0.000 A 
ATOM     15  C   UNL     1       5.338   3.515  14.441  0.00  0.00    +0.000 A 
ATOM     16  C   UNL     1       5.849   3.531  13.137  0.00  0.00    +0.000 A 
ATOM     17  C   UNL     1       6.937   4.343  12.830  0.00  0.00    +0.000 A 
ATOM     18  C   UNL     1       7.505   5.154  13.815  0.00  0.00    +0.000 A 
ENDBRANCH   2  13
BRANCH   1  19
ATOM     19  C   UNL     1       5.731   6.074  17.856  0.00  0.00    +0.000 C 
ATOM     20  C   UNL     1       4.449   6.457  17.506  0.00  0.00    +0.000 C 
ATOM     21  C   UNL     1       4.162   7.446  16.406  0.00  0.00    +0.000 C 
BRANCH  20  22
ATOM     22  C   UNL     1       3.244   5.894  18.202  0.00  0.00    +0.000 A 
ATOM     23  C   UNL     1       2.767   6.548  19.347  0.00  0.00    +0.000 A 
ATOM     24  C   UNL     1       1.703   6.018  20.089  0.00  0.00    +0.000 A 
ATOM     25  C   UNL     1       1.102   4.822  19.669  0.00  0.00    +0.000 A 
ATOM     26  C   UNL     1       1.553   4.148  18.531  0.00  0.00    +0.000 A 
ATOM     27  C   UNL     1       2.630   4.687  17.788  0.00  0.00    +0.000 A 
BRANCH  24  28
ATOM     28  O   UNL     1       1.321   6.672  21.216  0.00  0.00    +0.000 OA
ATOM     29  C   UNL     1       1.179   8.039  21.338  0.00  0.00    +0.000 C 
ENDBRANCH  24  28
BRANCH  26  30
ATOM     30  O   UNL     1       0.937   2.975  18.224  0.00  0.00    +0.000 OA
ATOM     31  C   UNL     1       1.036   1.781  18.902  0.00  0.00    +0.000 C 
ENDBRANCH  26  30
ENDBRANCH  20  22
BRANCH  19  32
ATOM     32  C   UNL     1       5.961   5.037  18.937  0.00  0.00    +0.000 C 
ATOM     33  O   UNL     1       6.542   5.321  19.974  0.00  0.00    +0.000 OA
BRANCH  32  35
ATOM     34  C   UNL     1       4.859   3.005  19.653  0.00  0.00    +0.000 C 
ATOM     35  O   UNL     1       5.586   3.747  18.736  0.00  0.00    +0.000 OA
ENDBRANCH  32  35
ENDBRANCH  19  32
ENDBRANCH   1  19
TORSDOF 8
ENDMDL
MODEL 2
REMARK VINA RESULT:      -7.4      5.756      9.493
REMARK  Name = 
REMARK  12 active torsions:
REMARK  status: ('A' for Active; 'I' for Inactive)
REMARK    1  A    between atoms: C_1  and  O_2
REMARK    2  A    between atoms: O_2  and  C_3
REMARK    3  A    between atoms: C_3  and  C_5
REMARK    4  A    between atoms: C_5  and  C_18
REMARK    5  A    between atoms: C_6  and  C_7
REMARK    6  A    between atoms: C_6  and  C_8
REMARK    7  A    between atoms: C_10  and  O_11
REMARK    8  A    between atoms: O_11  and  C_12
REMARK    9  A    between atoms: C_14  and  O_15
REMARK   10  A    between atoms: O_15  and  C_16
REMARK   11  A    between atoms: C_18  and  C_26
REMARK   12  A    between atoms: C_19  and  C_20
REMARK                            x       y       z     vdW  Elec       q    Type
REMARK                         _______ _______ _______ _____ _____    ______ ____
ROOT
ATOM      1  C   UNL     1       0.233   9.865  18.216  0.00  0.00    +0.000 C 
ATOM      2  C   UNL     1      -0.831   9.427  17.466  0.00  0.00    +0.000 C 
ENDROOT
BRANCH   1   3
ATOM      3  C   UNL     1       1.491   9.016  18.068  0.00  0.00    +0.000 C 
ATOM      4  O   UNL     1       2.206   9.252  17.095  0.00  0.00    +0.000 OA
ATOM      5  N   UNL     1       1.849   7.994  18.899  0.00  0.00    +0.000 N 
ATOM      6  C   UNL     1       3.019   7.192  18.667  0.00  0.00    +0.000 A 
ATOM      7  N   UNL     1       3.924   7.531  17.701  0.00  0.00    +0.000 NA
ATOM      8  C   UNL     1       5.018   6.771  17.442  0.00  0.00    +0.000 A 
ATOM      9  C   UNL     1       5.232   5.602  18.163  0.00  0.00    +0.000 A 
ATOM     10  C   UNL     1       4.306   5.261  19.150  0.00  0.00    +0.000 A 
ATOM     11  N   UNL     1       3.226   6.054  19.390  0.00  0.00    +0.000 NA
ATOM     12  H   UNL     1       1.230   7.750  19.684  0.00  0.00    +0.000 HD
ENDBRANCH   1   3
BRANCH   2  13
ATOM     13  C   UNL     1      -2.147  10.054  17.199  0.00  0.00    +0.000 A 
ATOM     14  C   UNL     1      -2.972  10.540  18.225  0.00  0.00    +0.000 A 
ATOM     15  C   UNL     1      -4.129  11.255  17.915  0.00  0.00    +0.000 A 
ATOM     16  C   UNL     1      -4.487  11.484  16.580  0.00  0.00    +0.000 A 
ATOM     17  C   UNL     1      -3.681  10.995  15.555  0.00  0.00    +0.000 A 
ATOM     18  C   UNL     1      -2.511  10.297  15.858  0.00  0.00    +0.000 A 
ENDBRANCH   2  13
BRANCH   1  19
ATOM     19  C   UNL     1       0.088  11.036  19.186  0.00  0.00    +0.000 C 
ATOM     20  C   UNL     1      -0.270  10.904  20.515  0.00  0.00    +0.000 C 
ATOM     21  C   UNL     1      -0.480   9.567  21.177  0.00  0.00    +0.000 C 
BRANCH  20  22
ATOM     22  C   UNL     1      -0.464  12.102  21.398  0.00  0.00    +0.000 A 
ATOM     23  C   UNL     1      -1.717  12.294  21.999  0.00  0.00    +0.000 A 
ATOM     24  C   UNL     1      -1.983  13.440  22.760  0.00  0.00    +0.000 A 
ATOM     25  C   UNL     1      -0.974  14.401  22.929  0.00  0.00    +0.000 A 
ATOM     26  C   UNL     1       0.285  14.238  22.344  0.00  0.00    +0.000 A 
ATOM     27  C   UNL     1       0.546  13.078  21.575  0.00  0.00    +0.000 A 
BRANCH  24  28
ATOM     28  O   UNL     1      -3.230  13.592  23.273  0.00  0.00    +0.000 OA
ATOM     29  C   UNL     1      -3.844  12.723  24.154  0.00  0.00    +0.000 C 
ENDBRANCH  24  28
BRANCH  26  30
ATOM     30  O   UNL     1       1.185  15.240  22.528  0.00  0.00    +0.000 OA
ATOM     31  C   UNL     1       2.416  15.373  21.928  0.00  0.00    +0.000 C 
ENDBRANCH  26  30
ENDBRANCH  20  22
BRANCH  19  32
ATOM     32  C   UNL     1       0.335  12.404  18.583  0.00  0.00    +0.000 C 
ATOM     33  O   UNL     1      -0.591  13.110  18.212  0.00  0.00    +0.000 OA
BRANCH  32  35
ATOM     34  C   UNL     1       1.970  14.177  18.374  0.00  0.00    +0.000 C 
ATOM     35  O   UNL     1       1.606  12.840  18.377  0.00  0.00    +0.000 OA
ENDBRANCH  32  35
ENDBRANCH  19  32
ENDBRANCH   1  19
TORSDOF 8
ENDMDL
MODEL 3
REMARK VINA RESULT:      -7.2      5.963      9.722
REMARK  Name = 
REMARK  12 active torsions:
REMARK  status: ('A' for Active; 'I' for Inactive)
REMARK    1  A    between atoms: C_1  and  O_2
REMARK    2  A    between atoms: O_2  and  C_3
REMARK    3  A    between atoms: C_3  and  C_5
REMARK    4  A    between atoms: C_5  and  C_18
REMARK    5  A    between atoms: C_6  and  C_7
REMARK    6  A    between atoms: C_6  and  C_8
REMARK    7  A    between atoms: C_10  and  O_11
REMARK    8  A    between atoms: O_11  and  C_12
REMARK    9  A    between atoms: C_14  and  O_15
REMARK   10  A    between atoms: O_15  and  C_16
REMARK   11  A    between atoms: C_18  and  C_26
REMARK   12  A    between atoms: C_19  and  C_20
REMARK                            x       y       z     vdW  Elec       q    Type
REMARK                         _______ _______ _______ _____ _____    ______ ____
ROOT
ATOM      1  C   UNL     1       0.227  10.017  18.265  0.00  0.00    +0.000 C 
ATOM      2  C   UNL     1      -0.865   9.622  17.531  0.00  0.00    +0.000 C 
ENDROOT
BRANCH   1   3
ATOM      3  C   UNL     1       1.422   9.077  18.159  0.00  0.00    +0.000 C 
ATOM      4  O   UNL     1       2.124   9.185  17.154  0.00  0.00    +0.000 OA
ATOM      5  N   UNL     1       1.735   8.103  19.063  0.00  0.00    +0.000 N 
ATOM      6  C   UNL     1       2.843   7.208  18.870  0.00  0.00    +0.000 A 
ATOM      7  N   UNL     1       3.742   7.407  17.860  0.00  0.00    +0.000 NA
ATOM      8  C   UNL     1       4.776   6.557  17.640  0.00  0.00    +0.000 A 
ATOM      9  C   UNL     1       4.933   5.437  18.448  0.00  0.00    +0.000 A 
ATOM     10  C   UNL     1       4.015   5.239  19.481  0.00  0.00    +0.000 A 
ATOM     11  N   UNL     1       2.996   6.120  19.679  0.00  0.00    +0.000 NA
ATOM     12  H   UNL     1       1.123   7.964  19.878  0.00  0.00    +0.000 HD
ENDBRANCH   1   3
BRANCH   2  13
ATOM     13  C   UNL     1      -2.134  10.327  17.233  0.00  0.00    +0.000 A 
ATOM     14  C   UNL     1      -2.610  10.500  15.924  0.00  0.00    +0.000 A 
ATOM     15  C   UNL     1      -3.880  11.037  15.704  0.00  0.00    +0.000 A 
ATOM     16  C   UNL     1      -4.685  11.420  16.784  0.00  0.00    +0.000 A 
ATOM     17  C   UNL     1      -4.217  11.264  18.086  0.00  0.00    +0.000 A 
ATOM     18  C   UNL     1      -2.957  10.709  18.314  0.00  0.00    +0.000 A 
ENDBRANCH   2  13
BRANCH   1  19
ATOM     19  C   UNL     1       0.164  11.237  19.181  0.00  0.00    +0.000 C 
ATOM     20  C   UNL     1      -0.184  11.188  20.519  0.00  0.00    +0.000 C 
ATOM     21  C   UNL     1      -0.464   9.897  21.244  0.00  0.00    +0.000 C 
BRANCH  20  22
ATOM     22  C   UNL     1      -0.295  12.434  21.348  0.00  0.00    +0.000 A 
ATOM     23  C   UNL     1      -1.543  12.763  21.897  0.00  0.00    +0.000 A 
ATOM     24  C   UNL     1      -1.726  13.960  22.603  0.00  0.00    +0.000 A 
ATOM     25  C   UNL     1      -0.640  14.832  22.770  0.00  0.00    +0.000 A 
ATOM     26  C   UNL     1       0.617  14.531  22.236  0.00  0.00    +0.000 A 
ATOM     27  C   UNL     1       0.794  13.322  21.522  0.00  0.00    +0.000 A 
BRANCH  24  28
ATOM     28  O   UNL     1      -2.970  14.244  23.066  0.00  0.00    +0.000 OA
ATOM     29  C   UNL     1      -3.261  15.132  24.082  0.00  0.00    +0.000 C 
ENDBRANCH  24  28
BRANCH  26  30
ATOM     30  O   UNL     1       1.599  15.455  22.413  0.00  0.00    +0.000 OA
ATOM     31  C   UNL     1       2.134  16.293  21.461  0.00  0.00    +0.000 C 
ENDBRANCH  26  30
ENDBRANCH  20  22
BRANCH  19  32
ATOM     32  C   UNL     1       0.484  12.560  18.514  0.00  0.00    +0.000 C 
ATOM     33  O   UNL     1      -0.401  13.337  18.188  0.00  0.00    +0.000 OA
BRANCH  32  35
ATOM     34  C   UNL     1       2.319  14.132  18.369  0.00  0.00    +0.000 C 
ATOM     35  O   UNL     1       1.769  12.872  18.198  0.00  0.00    +0.000 OA
ENDBRANCH  32  35
ENDBRANCH  19  32
ENDBRANCH   1  19
TORSDOF 8
ENDMDL
MODEL 4
REMARK VINA RESULT:      -7.1      6.824     11.319
REMARK  Name = 
REMARK  12 active torsions:
REMARK  status: ('A' for Active; 'I' for Inactive)
REMARK    1  A    between atoms: C_1  and  O_2
REMARK    2  A    between atoms: O_2  and  C_3
REMARK    3  A    between atoms: C_3  and  C_5
REMARK    4  A    between atoms: C_5  and  C_18
REMARK    5  A    between atoms: C_6  and  C_7
REMARK    6  A    between atoms: C_6  and  C_8
REMARK    7  A    between atoms: C_10  and  O_11
REMARK    8  A    between atoms: O_11  and  C_12
REMARK    9  A    between atoms: C_14  and  O_15
REMARK   10  A    between atoms: O_15  and  C_16
REMARK   11  A    between atoms: C_18  and  C_26
REMARK   12  A    between atoms: C_19  and  C_20
REMARK                            x       y       z     vdW  Elec       q    Type
REMARK                         _______ _______ _______ _____ _____    ______ ____
ROOT
ATOM      1  C   UNL     1       0.155  11.391  20.378  0.00  0.00    +0.000 C 
ATOM      2  C   UNL     1      -0.881  11.060  21.217  0.00  0.00    +0.000 C 
ENDROOT
BRANCH   1   3
ATOM      3  C   UNL     1       0.918  10.191  19.828  0.00  0.00    +0.000 C 
ATOM      4  O   UNL     1       1.328  10.279  18.671  0.00  0.00    +0.000 OA
ATOM      5  N   UNL     1       1.133   9.023  20.502  0.00  0.00    +0.000 N 
ATOM      6  C   UNL     1       1.809   7.906  19.900  0.00  0.00    +0.000 A 
ATOM      7  N   UNL     1       2.425   8.026  18.686  0.00  0.00    +0.000 NA
ATOM      8  C   UNL     1       3.039   6.976  18.085  0.00  0.00    +0.000 A 
ATOM      9  C   UNL     1       3.040   5.731  18.703  0.00  0.00    +0.000 A 
ATOM     10  C   UNL     1       2.413   5.614  19.945  0.00  0.00    +0.000 A 
ATOM     11  N   UNL     1       1.816   6.692  20.523  0.00  0.00    +0.000 NA
ATOM     12  H   UNL     1       0.746   8.916  21.449  0.00  0.00    +0.000 HD
ENDBRANCH   1   3
BRANCH   2  13
ATOM     13  C   UNL     1      -1.950  11.899  21.809  0.00  0.00    +0.000 A 
ATOM     14  C   UNL     1      -2.834  12.657  21.025  0.00  0.00    +0.000 A 
ATOM     15  C   UNL     1      -3.915  13.310  21.618  0.00  0.00    +0.000 A 
ATOM     16  C   UNL     1      -4.121  13.229  23.002  0.00  0.00    +0.000 A 
ATOM     17  C   UNL     1      -3.242  12.490  23.789  0.00  0.00    +0.000 A 
ATOM     18  C   UNL     1      -2.171  11.816  23.200  0.00  0.00    +0.000 A 
ENDBRANCH   2  13
BRANCH   1  19
ATOM     19  C   UNL     1       0.543  12.848  20.138  0.00  0.00    +0.000 C 
ATOM     20  C   UNL     1       0.179  13.575  19.019  0.00  0.00    +0.000 C 
ATOM     21  C   UNL     1      -0.719  13.023  17.942  0.00  0.00    +0.000 C 
BRANCH  20  22
ATOM     22  C   UNL     1       0.652  14.983  18.810  0.00  0.00    +0.000 A 
ATOM     23  C   UNL     1      -0.307  15.999  18.678  0.00  0.00    +0.000 A 
ATOM     24  C   UNL     1       0.073  17.316  18.391  0.00  0.00    +0.000 A 
ATOM     25  C   UNL     1       1.435  17.621  18.245  0.00  0.00    +0.000 A 
ATOM     26  C   UNL     1       2.415  16.632  18.372  0.00  0.00    +0.000 A 
ATOM     27  C   UNL     1       2.023  15.303  18.660  0.00  0.00    +0.000 A 
BRANCH  24  28
ATOM     28  O   UNL     1      -0.905  18.243  18.226  0.00  0.00    +0.000 OA
ATOM     29  C   UNL     1      -1.955  18.461  19.095  0.00  0.00    +0.000 C 
ENDBRANCH  24  28
BRANCH  26  30
ATOM     30  O   UNL     1       3.705  17.013  18.174  0.00  0.00    +0.000 OA
ATOM     31  C   UNL     1       4.840  16.285  18.453  0.00  0.00    +0.000 C 
ENDBRANCH  26  30
ENDBRANCH  20  22
BRANCH  19  32
ATOM     32  C   UNL     1       1.408  13.469  21.216  0.00  0.00    +0.000 C 
ATOM     33  O   UNL     1       2.607  13.242  21.276  0.00  0.00    +0.000 OA
BRANCH  32  35
ATOM     34  C   UNL     1       1.089  15.594  22.332  0.00  0.00    +0.000 C 
ATOM     35  O   UNL     1       0.844  14.238  22.185  0.00  0.00    +0.000 OA
ENDBRANCH  32  35
ENDBRANCH  19  32
ENDBRANCH   1  19
TORSDOF 8
ENDMDL
MODEL 5
REMARK VINA RESULT:      -7.1      6.006      9.738
REMARK  Name = 
REMARK  12 active torsions:
REMARK  status: ('A' for Active; 'I' for Inactive)
REMARK    1  A    between atoms: C_1  and  O_2
REMARK    2  A    between atoms: O_2  and  C_3
REMARK    3  A    between atoms: C_3  and  C_5
REMARK    4  A    between atoms: C_5  and  C_18
REMARK    5  A    between atoms: C_6  and  C_7
REMARK    6  A    between atoms: C_6  and  C_8
REMARK    7  A    between atoms: C_10  and  O_11
REMARK    8  A    between atoms: O_11  and  C_12
REMARK    9  A    between atoms: C_14  and  O_15
REMARK   10  A    between atoms: O_15  and  C_16
REMARK   11  A    between atoms: C_18  and  C_26
REMARK   12  A    between atoms: C_19  and  C_20
REMARK                            x       y       z     vdW  Elec       q    Type
REMARK                         _______ _______ _______ _____ _____    ______ ____
ROOT
ATOM      1  C   UNL     1       0.213  10.064  18.240  0.00  0.00    +0.000 C 
ATOM      2  C   UNL     1      -0.886   9.641  17.533  0.00  0.00    +0.000 C 
ENDROOT
BRANCH   1   3
ATOM      3  C   UNL     1       1.410   9.124  18.152  0.00  0.00    +0.000 C 
ATOM      4  O   UNL     1       2.142   9.251  17.171  0.00  0.00    +0.000 OA
ATOM      5  N   UNL     1       1.694   8.131  19.044  0.00  0.00    +0.000 N 
ATOM      6  C   UNL     1       2.807   7.238  18.868  0.00  0.00    +0.000 A 
ATOM      7  N   UNL     1       3.736   7.456  17.889  0.00  0.00    +0.000 NA
ATOM      8  C   UNL     1       4.775   6.608  17.683  0.00  0.00    +0.000 A 
ATOM      9  C   UNL     1       4.906   5.472  18.474  0.00  0.00    +0.000 A 
ATOM     10  C   UNL     1       3.957   5.255  19.474  0.00  0.00    +0.000 A 
ATOM     11  N   UNL     1       2.934   6.134  19.659  0.00  0.00    +0.000 NA
ATOM     12  H   UNL     1       1.058   7.977  19.838  0.00  0.00    +0.000 HD
ENDBRANCH   1   3
BRANCH   2  13
ATOM     13  C   UNL     1      -2.160  10.333  17.226  0.00  0.00    +0.000 A 
ATOM     14  C   UNL     1      -2.620  10.518  15.913  0.00  0.00    +0.000 A 
ATOM     15  C   UNL     1      -3.894  11.040  15.683  0.00  0.00    +0.000 A 
ATOM     16  C   UNL     1      -4.720  11.396  16.756  0.00  0.00    +0.000 A 
ATOM     17  C   UNL     1      -4.268  11.228  18.062  0.00  0.00    +0.000 A 
ATOM     18  C   UNL     1      -3.004  10.687  18.301  0.00  0.00    +0.000 A 
ENDBRANCH   2  13
BRANCH   1  19
ATOM     19  C   UNL     1       0.158  11.314  19.116  0.00  0.00    +0.000 C 
ATOM     20  C   UNL     1      -0.191  11.310  20.454  0.00  0.00    +0.000 C 
ATOM     21  C   UNL     1      -0.479  10.045  21.221  0.00  0.00    +0.000 C 
BRANCH  20  22
ATOM     22  C   UNL     1      -0.295  12.583  21.242  0.00  0.00    +0.000 A 
ATOM     23  C   UNL     1       0.855  13.371  21.395  0.00  0.00    +0.000 A 
ATOM     24  C   UNL     1       0.839  14.521  22.195  0.00  0.00    +0.000 A 
ATOM     25  C   UNL     1      -0.351  14.892  22.841  0.00  0.00    +0.000 A 
ATOM     26  C   UNL     1      -1.513  14.129  22.706  0.00  0.00    +0.000 A 
ATOM     27  C   UNL     1      -1.489  12.967  21.899  0.00  0.00    +0.000 A 
BRANCH  24  28
ATOM     28  O   UNL     1       1.998  15.213  22.343  0.00  0.00    +0.000 OA
ATOM     29  C   UNL     1       2.148  16.572  22.153  0.00  0.00    +0.000 C 
ENDBRANCH  24  28
BRANCH  26  30
ATOM     30  O   UNL     1      -2.606  14.543  23.401  0.00  0.00    +0.000 OA
ATOM     31  C   UNL     1      -2.631  15.096  24.661  0.00  0.00    +0.000 C 
ENDBRANCH  26  30
ENDBRANCH  20  22
BRANCH  19  32
ATOM     32  C   UNL     1       0.486  12.612  18.406  0.00  0.00    +0.000 C 
ATOM     33  O   UNL     1      -0.396  13.375  18.041  0.00  0.00    +0.000 OA
BRANCH  32  35
ATOM     34  C   UNL     1       2.333  14.170  18.269  0.00  0.00    +0.000 C 
ATOM     35  O   UNL     1       1.774  12.914  18.097  0.00  0.00    +0.000 OA
ENDBRANCH  32  35
ENDBRANCH  19  32
ENDBRANCH   1  19
TORSDOF 8
ENDMDL
MODEL 6
REMARK VINA RESULT:      -7.0      6.812     11.281
REMARK  Name = 
REMARK  12 active torsions:
REMARK  status: ('A' for Active; 'I' for Inactive)
REMARK    1  A    between atoms: C_1  and  O_2
REMARK    2  A    between atoms: O_2  and  C_3
REMARK    3  A    between atoms: C_3  and  C_5
REMARK    4  A    between atoms: C_5  and  C_18
REMARK    5  A    between atoms: C_6  and  C_7
REMARK    6  A    between atoms: C_6  and  C_8
REMARK    7  A    between atoms: C_10  and  O_11
REMARK    8  A    between atoms: O_11  and  C_12
REMARK    9  A    between atoms: C_14  and  O_15
REMARK   10  A    between atoms: O_15  and  C_16
REMARK   11  A    between atoms: C_18  and  C_26
REMARK   12  A    between atoms: C_19  and  C_20
REMARK                            x       y       z     vdW  Elec       q    Type
REMARK                         _______ _______ _______ _____ _____    ______ ____
ROOT
ATOM      1  C   UNL     1       0.161  11.431  20.391  0.00  0.00    +0.000 C 
ATOM      2  C   UNL     1      -0.906  11.109  21.194  0.00  0.00    +0.000 C 
ENDROOT
BRANCH   1   3
ATOM      3  C   UNL     1       0.907  10.224  19.833  0.00  0.00    +0.000 C 
ATOM      4  O   UNL     1       1.308  10.308  18.673  0.00  0.00    +0.000 OA
ATOM      5  N   UNL     1       1.115   9.053  20.504  0.00  0.00    +0.000 N 
ATOM      6  C   UNL     1       1.774   7.929  19.896  0.00  0.00    +0.000 A 
ATOM      7  N   UNL     1       2.382   8.044  18.677  0.00  0.00    +0.000 NA
ATOM      8  C   UNL     1       2.980   6.989  18.070  0.00  0.00    +0.000 A 
ATOM      9  C   UNL     1       2.973   5.743  18.687  0.00  0.00    +0.000 A 
ATOM     10  C   UNL     1       2.355   5.631  19.933  0.00  0.00    +0.000 A 
ATOM     11  N   UNL     1       1.774   6.715  20.518  0.00  0.00    +0.000 NA
ATOM     12  H   UNL     1       0.735   8.949  21.455  0.00  0.00    +0.000 HD
ENDBRANCH   1   3
BRANCH   2  13
ATOM     13  C   UNL     1      -1.967  11.963  21.777  0.00  0.00    +0.000 A 
ATOM     14  C   UNL     1      -2.029  12.260  23.147  0.00  0.00    +0.000 A 
ATOM     15  C   UNL     1      -2.956  13.188  23.623  0.00  0.00    +0.000 A 
ATOM     16  C   UNL     1      -3.843  13.822  22.743  0.00  0.00    +0.000 A 
ATOM     17  C   UNL     1      -3.798  13.524  21.383  0.00  0.00    +0.000 A 
ATOM     18  C   UNL     1      -2.859  12.613  20.897  0.00  0.00    +0.000 A 
ENDBRANCH   2  13
BRANCH   1  19
ATOM     19  C   UNL     1       0.594  12.882  20.195  0.00  0.00    +0.000 C 
ATOM     20  C   UNL     1       0.275  13.645  19.086  0.00  0.00    +0.000 C 
ATOM     21  C   UNL     1      -0.611  13.143  17.976  0.00  0.00    +0.000 C 
BRANCH  20  22
ATOM     22  C   UNL     1       0.791  15.045  18.922  0.00  0.00    +0.000 A 
ATOM     23  C   UNL     1      -0.110  16.110  19.064  0.00  0.00    +0.000 A 
ATOM     24  C   UNL     1       0.295  17.431  18.832  0.00  0.00    +0.000 A 
ATOM     25  C   UNL     1       1.625  17.688  18.465  0.00  0.00    +0.000 A 
ATOM     26  C   UNL     1       2.547  16.647  18.317  0.00  0.00    +0.000 A 
ATOM     27  C   UNL     1       2.130  15.315  18.550  0.00  0.00    +0.000 A 
BRANCH  24  28
ATOM     28  O   UNL     1      -0.636  18.414  18.937  0.00  0.00    +0.000 OA
ATOM     29  C   UNL     1      -1.897  18.384  18.374  0.00  0.00    +0.000 C 
ENDBRANCH  24  28
BRANCH  26  30
ATOM     30  O   UNL     1       3.801  16.987  17.918  0.00  0.00    +0.000 OA
ATOM     31  C   UNL     1       4.963  16.885  18.649  0.00  0.00    +0.000 C 
ENDBRANCH  26  30
ENDBRANCH  20  22
BRANCH  19  32
ATOM     32  C   UNL     1       1.449  13.454  21.307  0.00  0.00    +0.000 C 
ATOM     33  O   UNL     1       0.959  14.128  22.202  0.00  0.00    +0.000 OA
BRANCH  32  35
ATOM     34  C   UNL     1       3.703  14.290  21.593  0.00  0.00    +0.000 C 
ATOM     35  O   UNL     1       2.798  13.286  21.287  0.00  0.00    +0.000 OA
ENDBRANCH  32  35
ENDBRANCH  19  32
ENDBRANCH   1  19
TORSDOF 8
ENDMDL
MODEL 7
REMARK VINA RESULT:      -7.0      5.808      9.692
REMARK  Name = 
REMARK  12 active torsions:
REMARK  status: ('A' for Active; 'I' for Inactive)
REMARK    1  A    between atoms: C_1  and  O_2
REMARK    2  A    between atoms: O_2  and  C_3
REMARK    3  A    between atoms: C_3  and  C_5
REMARK    4  A    between atoms: C_5  and  C_18
REMARK    5  A    between atoms: C_6  and  C_7
REMARK    6  A    between atoms: C_6  and  C_8
REMARK    7  A    between atoms: C_10  and  O_11
REMARK    8  A    between atoms: O_11  and  C_12
REMARK    9  A    between atoms: C_14  and  O_15
REMARK   10  A    between atoms: O_15  and  C_16
REMARK   11  A    between atoms: C_18  and  C_26
REMARK   12  A    between atoms: C_19  and  C_20
REMARK                            x       y       z     vdW  Elec       q    Type
REMARK                         _______ _______ _______ _____ _____    ______ ____
ROOT
ATOM      1  C   UNL     1       0.250  10.121  18.536  0.00  0.00    +0.000 C 
ATOM      2  C   UNL     1      -0.855   9.840  17.770  0.00  0.00    +0.000 C 
ENDROOT
BRANCH   1   3
ATOM      3  C   UNL     1       1.424   9.175  18.307  0.00  0.00    +0.000 C 
ATOM      4  O   UNL     1       2.054   9.318  17.260  0.00  0.00    +0.000 OA
ATOM      5  N   UNL     1       1.789   8.163  19.147  0.00  0.00    +0.000 N 
ATOM      6  C   UNL     1       2.870   7.266  18.841  0.00  0.00    +0.000 A 
ATOM      7  N   UNL     1       3.697   7.498  17.777  0.00  0.00    +0.000 NA
ATOM      8  C   UNL     1       4.702   6.648  17.450  0.00  0.00    +0.000 A 
ATOM      9  C   UNL     1       4.903   5.496  18.200  0.00  0.00    +0.000 A 
ATOM     10  C   UNL     1       4.059   5.264  19.287  0.00  0.00    +0.000 A 
ATOM     11  N   UNL     1       3.067   6.146  19.593  0.00  0.00    +0.000 NA
ATOM     12  H   UNL     1       1.235   7.997  19.999  0.00  0.00    +0.000 HD
ENDBRANCH   1   3
BRANCH   2  13
ATOM     13  C   UNL     1      -2.110  10.602  17.570  0.00  0.00    +0.000 A 
ATOM     14  C   UNL     1      -2.700  10.764  16.306  0.00  0.00    +0.000 A 
ATOM     15  C   UNL     1      -3.956  11.360  16.190  0.00  0.00    +0.000 A 
ATOM     16  C   UNL     1      -4.634  11.815  17.328  0.00  0.00    +0.000 A 
ATOM     17  C   UNL     1      -4.052  11.671  18.584  0.00  0.00    +0.000 A 
ATOM     18  C   UNL     1      -2.805  11.056  18.710  0.00  0.00    +0.000 A 
ENDBRANCH   2  13
BRANCH   1  19
ATOM     19  C   UNL     1       0.220  11.223  19.592  0.00  0.00    +0.000 C 
ATOM     20  C   UNL     1       0.262  12.576  19.306  0.00  0.00    +0.000 C 
ATOM     21  C   UNL     1       0.262  13.114  17.898  0.00  0.00    +0.000 C 
BRANCH  20  22
ATOM     22  C   UNL     1       0.300  13.608  20.394  0.00  0.00    +0.000 A 
ATOM     23  C   UNL     1       1.549  14.020  20.882  0.00  0.00    +0.000 A 
ATOM     24  C   UNL     1       1.643  14.913  21.958  0.00  0.00    +0.000 A 
ATOM     25  C   UNL     1       0.468  15.408  22.545  0.00  0.00    +0.000 A 
ATOM     26  C   UNL     1      -0.791  15.018  22.079  0.00  0.00    +0.000 A 
ATOM     27  C   UNL     1      -0.879  14.114  20.994  0.00  0.00    +0.000 A 
BRANCH  24  28
ATOM     28  O   UNL     1       2.880  15.233  22.417  0.00  0.00    +0.000 OA
ATOM     29  C   UNL     1       4.047  14.568  22.102  0.00  0.00    +0.000 C 
ENDBRANCH  24  28
BRANCH  26  30
ATOM     30  O   UNL     1      -1.873  15.517  22.735  0.00  0.00    +0.000 OA
ATOM     31  C   UNL     1      -3.182  15.504  22.311  0.00  0.00    +0.000 C 
ENDBRANCH  26  30
ENDBRANCH  20  22
BRANCH  19  32
ATOM     32  C   UNL     1       0.172  10.738  21.027  0.00  0.00    +0.000 C 
ATOM     33  O   UNL     1       1.175  10.326  21.591  0.00  0.00    +0.000 OA
BRANCH  32  35
ATOM     34  C   UNL     1      -1.147  10.926  23.048  0.00  0.00    +0.000 C 
ATOM     35  O   UNL     1      -1.013  10.684  21.690  0.00  0.00    +0.000 OA
ENDBRANCH  32  35
ENDBRANCH  19  32
ENDBRANCH   1  19
TORSDOF 8
ENDMDL
MODEL 8
REMARK VINA RESULT:      -7.0      3.389      6.294
REMARK  Name = 
REMARK  12 active torsions:
REMARK  status: ('A' for Active; 'I' for Inactive)
REMARK    1  A    between atoms: C_1  and  O_2
REMARK    2  A    between atoms: O_2  and  C_3
REMARK    3  A    between atoms: C_3  and  C_5
REMARK    4  A    between atoms: C_5  and  C_18
REMARK    5  A    between atoms: C_6  and  C_7
REMARK    6  A    between atoms: C_6  and  C_8
REMARK    7  A    between atoms: C_10  and  O_11
REMARK    8  A    between atoms: O_11  and  C_12
REMARK    9  A    between atoms: C_14  and  O_15
REMARK   10  A    between atoms: O_15  and  C_16
REMARK   11  A    between atoms: C_18  and  C_26
REMARK   12  A    between atoms: C_19  and  C_20
REMARK                            x       y       z     vdW  Elec       q    Type
REMARK                         _______ _______ _______ _____ _____    ______ ____
ROOT
ATOM      1  C   UNL     1       4.142   4.194  17.284  0.00  0.00    +0.000 C 
ATOM      2  C   UNL     1       3.947   2.994  17.925  0.00  0.00    +0.000 C 
ENDROOT
BRANCH   1   3
ATOM      3  C   UNL     1       4.829   4.071  15.929  0.00  0.00    +0.000 C 
ATOM      4  O   UNL     1       4.545   3.083  15.252  0.00  0.00    +0.000 OA
ATOM      5  N   UNL     1       5.761   4.940  15.441  0.00  0.00    +0.000 N 
ATOM      6  C   UNL     1       6.417   4.732  14.179  0.00  0.00    +0.000 A 
ATOM      7  N   UNL     1       6.006   3.745  13.327  0.00  0.00    +0.000 NA
ATOM      8  C   UNL     1       6.631   3.509  12.146  0.00  0.00    +0.000 A 
ATOM      9  C   UNL     1       7.733   4.275  11.783  0.00  0.00    +0.000 A 
ATOM     10  C   UNL     1       8.147   5.284  12.655  0.00  0.00    +0.000 A 
ATOM     11  N   UNL     1       7.488   5.500  13.827  0.00  0.00    +0.000 NA
ATOM     12  H   UNL     1       6.049   5.740  16.022  0.00  0.00    +0.000 HD
ENDBRANCH   1   3
BRANCH   2  13
ATOM     13  C   UNL     1       3.179   2.669  19.150  0.00  0.00    +0.000 A 
ATOM     14  C   UNL     1       3.734   2.768  20.436  0.00  0.00    +0.000 A 
ATOM     15  C   UNL     1       2.929   2.596  21.563  0.00  0.00    +0.000 A 
ATOM     16  C   UNL     1       1.565   2.311  21.424  0.00  0.00    +0.000 A 
ATOM     17  C   UNL     1       1.008   2.198  20.153  0.00  0.00    +0.000 A 
ATOM     18  C   UNL     1       1.802   2.390  19.022  0.00  0.00    +0.000 A 
ENDBRANCH   2  13
BRANCH   1  19
ATOM     19  C   UNL     1       3.788   5.517  17.958  0.00  0.00    +0.000 C 
ATOM     20  C   UNL     1       2.499   5.996  18.102  0.00  0.00    +0.000 C 
ATOM     21  C   UNL     1       1.283   5.215  17.674  0.00  0.00    +0.000 C 
BRANCH  20  22
ATOM     22  C   UNL     1       2.224   7.339  18.713  0.00  0.00    +0.000 A 
ATOM     23  C   UNL     1       1.885   7.399  20.073  0.00  0.00    +0.000 A 
ATOM     24  C   UNL     1       1.530   8.614  20.673  0.00  0.00    +0.000 A 
ATOM     25  C   UNL     1       1.526   9.787  19.902  0.00  0.00    +0.000 A 
ATOM     26  C   UNL     1       1.861   9.759  18.546  0.00  0.00    +0.000 A 
ATOM     27  C   UNL     1       2.216   8.529  17.944  0.00  0.00    +0.000 A 
BRANCH  24  28
ATOM     28  O   UNL     1       1.164   8.598  21.981  0.00  0.00    +0.000 OA
ATOM     29  C   UNL     1       0.164   9.368  22.541  0.00  0.00    +0.000 C 
ENDBRANCH  24  28
BRANCH  26  30
ATOM     30  O   UNL     1       1.789  10.937  17.869  0.00  0.00    +0.000 OA
ATOM     31  C   UNL     1       2.277  12.159  18.273  0.00  0.00    +0.000 C 
ENDBRANCH  26  30
ENDBRANCH  20  22
BRANCH  19  32
ATOM     32  C   UNL     1       4.972   6.324  18.452  0.00  0.00    +0.000 C 
ATOM     33  O   UNL     1       5.370   7.305  17.842  0.00  0.00    +0.000 OA
BRANCH  32  35
ATOM     34  C   UNL     1       6.970   5.465  19.515  0.00  0.00    +0.000 C 
ATOM     35  O   UNL     1       5.662   5.921  19.551  0.00  0.00    +0.000 OA
ENDBRANCH  32  35
ENDBRANCH  19  32
ENDBRANCH   1  19
TORSDOF 8
ENDMDL
MODEL 9
REMARK VINA RESULT:      -7.0      5.788      9.633
REMARK  Name = 
REMARK  12 active torsions:
REMARK  status: ('A' for Active; 'I' for Inactive)
REMARK    1  A    between atoms: C_1  and  O_2
REMARK    2  A    between atoms: O_2  and  C_3
REMARK    3  A    between atoms: C_3  and  C_5
REMARK    4  A    between atoms: C_5  and  C_18
REMARK    5  A    between atoms: C_6  and  C_7
REMARK    6  A    between atoms: C_6  and  C_8
REMARK    7  A    between atoms: C_10  and  O_11
REMARK    8  A    between atoms: O_11  and  C_12
REMARK    9  A    between atoms: C_14  and  O_15
REMARK   10  A    between atoms: O_15  and  C_16
REMARK   11  A    between atoms: C_18  and  C_26
REMARK   12  A    between atoms: C_19  and  C_20
REMARK                            x       y       z     vdW  Elec       q    Type
REMARK                         _______ _______ _______ _____ _____    ______ ____
ROOT
ATOM      1  C   UNL     1       0.339  10.026  18.484  0.00  0.00    +0.000 C 
ATOM      2  C   UNL     1      -0.764   9.752  17.712  0.00  0.00    +0.000 C 
ENDROOT
BRANCH   1   3
ATOM      3  C   UNL     1       1.512   9.080  18.251  0.00  0.00    +0.000 C 
ATOM      4  O   UNL     1       2.138   9.222  17.201  0.00  0.00    +0.000 OA
ATOM      5  N   UNL     1       1.881   8.069  19.091  0.00  0.00    +0.000 N 
ATOM      6  C   UNL     1       2.962   7.172  18.781  0.00  0.00    +0.000 A 
ATOM      7  N   UNL     1       3.784   7.403  17.714  0.00  0.00    +0.000 NA
ATOM      8  C   UNL     1       4.788   6.553  17.383  0.00  0.00    +0.000 A 
ATOM      9  C   UNL     1       4.993   5.402  18.134  0.00  0.00    +0.000 A 
ATOM     10  C   UNL     1       4.153   5.171  19.225  0.00  0.00    +0.000 A 
ATOM     11  N   UNL     1       3.162   6.053  19.534  0.00  0.00    +0.000 NA
ATOM     12  H   UNL     1       1.331   7.904  19.944  0.00  0.00    +0.000 HD
ENDBRANCH   1   3
BRANCH   2  13
ATOM     13  C   UNL     1      -2.017  10.518  17.513  0.00  0.00    +0.000 A 
ATOM     14  C   UNL     1      -2.617  10.668  16.253  0.00  0.00    +0.000 A 
ATOM     15  C   UNL     1      -3.871  11.269  16.140  0.00  0.00    +0.000 A 
ATOM     16  C   UNL     1      -4.538  11.740  17.279  0.00  0.00    +0.000 A 
ATOM     17  C   UNL     1      -3.946  11.607  18.532  0.00  0.00    +0.000 A 
ATOM     18  C   UNL     1      -2.701  10.988  18.655  0.00  0.00    +0.000 A 
ENDBRANCH   2  13
BRANCH   1  19
ATOM     19  C   UNL     1       0.307  11.120  19.549  0.00  0.00    +0.000 C 
ATOM     20  C   UNL     1       0.431  12.470  19.279  0.00  0.00    +0.000 C 
ATOM     21  C   UNL     1       0.531  13.019  17.879  0.00  0.00    +0.000 C 
BRANCH  20  22
ATOM     22  C   UNL     1       0.461  13.491  20.379  0.00  0.00    +0.000 A 
ATOM     23  C   UNL     1      -0.714  14.201  20.666  0.00  0.00    +0.000 A 
ATOM     24  C   UNL     1      -0.720  15.227  21.619  0.00  0.00    +0.000 A 
ATOM     25  C   UNL     1       0.466  15.538  22.302  0.00  0.00    +0.000 A 
ATOM     26  C   UNL     1       1.652  14.848  22.040  0.00  0.00    +0.000 A 
ATOM     27  C   UNL     1       1.652  13.814  21.074  0.00  0.00    +0.000 A 
BRANCH  24  28
ATOM     28  O   UNL     1      -1.877  15.911  21.816  0.00  0.00    +0.000 OA
ATOM     29  C   UNL     1      -3.146  15.417  21.586  0.00  0.00    +0.000 C 
ENDBRANCH  24  28
BRANCH  26  30
ATOM     30  O   UNL     1       2.760  15.246  22.720  0.00  0.00    +0.000 OA
ATOM     31  C   UNL     1       4.070  14.933  22.433  0.00  0.00    +0.000 C 
ENDBRANCH  26  30
ENDBRANCH  20  22
BRANCH  19  32
ATOM     32  C   UNL     1       0.159  10.626  20.974  0.00  0.00    +0.000 C 
ATOM     33  O   UNL     1       1.027   9.948  21.503  0.00  0.00    +0.000 OA
BRANCH  32  35
ATOM     34  C   UNL     1      -1.084  10.781  23.045  0.00  0.00    +0.000 C 
ATOM     35  O   UNL     1      -0.985  10.870  21.666  0.00  0.00    +0.000 OA
ENDBRANCH  32  35
ENDBRANCH  19  32
ENDBRANCH   1  19
TORSDOF 8
ENDMDL
