MODEL 1
REMARK VINA RESULT:      -8.5      0.000      0.000
REMARK  Name = 
REMARK  4 active torsions:
REMARK  status: ('A' for Active; 'I' for Inactive)
REMARK    1  A    between atoms: C_1  and  C_2
REMARK    2  A    between atoms: C_2  and  C_3
REMARK    3  A    between atoms: C_5  and  N_6
REMARK    4  A    between atoms: N_9  and  C_10
REMARK                            x       y       z     vdW  Elec       q    Type
REMARK                         _______ _______ _______ _____ _____    ______ ____
ROOT
ATOM      1  C   UNL     1       7.185   4.774  17.082  0.00  0.00    +0.000 C 
ATOM      2  C   UNL     1       5.657   4.866  17.219  0.00  0.00    +0.000 C 
ATOM      3  C   UNL     1       5.103   5.429  15.901  0.00  0.00    +0.000 C 
ATOM      4  C   UNL     1       5.343   5.713  18.457  0.00  0.00    +0.000 C 
ATOM      5  C   UNL     1       3.835   5.820  18.708  0.00  0.00    +0.000 C 
ATOM      6  C   UNL     1       3.196   4.470  18.517  0.00  0.00    +0.000 A 
ATOM      7  C   UNL     1       1.896   4.233  18.995  0.00  0.00    +0.000 A 
ATOM      8  C   UNL     1       1.330   2.972  18.884  0.00  0.00    +0.000 A 
ATOM      9  F   UNL     1       0.092   2.760  19.347  0.00  0.00    +0.000 F 
ATOM     10  C   UNL     1       2.037   1.922  18.308  0.00  0.00    +0.000 A 
ATOM     11  C   UNL     1       3.324   2.145  17.823  0.00  0.00    +0.000 A 
ATOM     12  C   UNL     1       3.897   3.416  17.912  0.00  0.00    +0.000 A 
ATOM     13  O   UNL     1       5.164   3.527  17.399  0.00  0.00    +0.000 OA
ENDROOT
BRANCH   5  14
ATOM     14  N   UNL     1       3.193   6.849  17.897  0.00  0.00    +0.000 N 
ATOM     15  C   UNL     1       2.446   7.815  18.529  0.00  0.00    +0.000 C 
ATOM     16  O   UNL     1       2.184   7.745  19.724  0.00  0.00    +0.000 OA
ATOM     17  N   UNL     1       2.061   8.833  17.683  0.00  0.00    +0.000 N 
ATOM     18  H   UNL     1       3.587   7.067  16.994  0.00  0.00    +0.000 HD
ATOM     19  H   UNL     1       1.926   8.570  16.718  0.00  0.00    +0.000 HD
BRANCH  17  20
ATOM     20  C   UNL     1       1.396   9.996  18.136  0.00  0.00    +0.000 A 
ATOM     21  C   UNL     1       0.014  10.022  18.361  0.00  0.00    +0.000 A 
ATOM     22  C   UNL     1      -0.640  11.218  18.658  0.00  0.00    +0.000 A 
ATOM     23  C   UNL     1       0.096  12.392  18.762  0.00  0.00    +0.000 A 
ATOM     24 CL   UNL     1      -0.716  13.884  19.034  0.00  0.00    +0.000 Cl
ATOM     25  C   UNL     1       1.484  12.366  18.631  0.00  0.00    +0.000 A 
ATOM     26  C   UNL     1       2.138  11.164  18.334  0.00  0.00    +0.000 A 
ENDBRANCH  17  20
ENDBRANCH   5  14
TORSDOF 2
ENDMDL
MODEL 2
REMARK VINA RESULT:      -8.5      0.362      1.045
REMARK  Name = 
REMARK  4 active torsions:
REMARK  status: ('A' for Active; 'I' for Inactive)
REMARK    1  A    between atoms: C_1  and  C_2
REMARK    2  A    between atoms: C_2  and  C_3
REMARK    3  A    between atoms: C_5  and  N_6
REMARK    4  A    between atoms: N_9  and  C_10
REMARK                            x       y       z     vdW  Elec       q    Type
REMARK                         _______ _______ _______ _____ _____    ______ ____
ROOT
ATOM      1  C   UNL     1       7.239   5.128  17.446  0.00  0.00    +0.000 C 
ATOM      2  C   UNL     1       5.702   5.112  17.467  0.00  0.00    +0.000 C 
ATOM      3  C   UNL     1       5.210   5.658  16.117  0.00  0.00    +0.000 C 
ATOM      4  C   UNL     1       5.237   5.912  18.687  0.00  0.00    +0.000 C 
ATOM      5  C   UNL     1       3.711   5.910  18.824  0.00  0.00    +0.000 C 
ATOM      6  C   UNL     1       3.184   4.523  18.568  0.00  0.00    +0.000 A 
ATOM      7  C   UNL     1       1.872   4.188  18.942  0.00  0.00    +0.000 A 
ATOM      8  C   UNL     1       1.407   2.893  18.772  0.00  0.00    +0.000 A 
ATOM      9  F   UNL     1       0.155   2.587  19.136  0.00  0.00    +0.000 F 
ATOM     10  C   UNL     1       2.227   1.905  18.239  0.00  0.00    +0.000 A 
ATOM     11  C   UNL     1       3.528   2.225  17.856  0.00  0.00    +0.000 A 
ATOM     12  C   UNL     1       4.001   3.530  18.004  0.00  0.00    +0.000 A 
ATOM     13  O   UNL     1       5.293   3.738  17.591  0.00  0.00    +0.000 OA
ENDROOT
BRANCH   5  14
ATOM     14  N   UNL     1       3.060   6.906  17.979  0.00  0.00    +0.000 N 
ATOM     15  C   UNL     1       2.285   7.871  18.577  0.00  0.00    +0.000 C 
ATOM     16  O   UNL     1       2.007   7.824  19.769  0.00  0.00    +0.000 OA
ATOM     17  N   UNL     1       1.893   8.862  17.701  0.00  0.00    +0.000 N 
ATOM     18  H   UNL     1       3.463   7.111  17.077  0.00  0.00    +0.000 HD
ATOM     19  H   UNL     1       1.777   8.573  16.741  0.00  0.00    +0.000 HD
BRANCH  17  20
ATOM     20  C   UNL     1       1.198  10.021  18.117  0.00  0.00    +0.000 A 
ATOM     21  C   UNL     1       1.866  11.198  18.480  0.00  0.00    +0.000 A 
ATOM     22  C   UNL     1       1.170  12.274  19.031  0.00  0.00    +0.000 A 
ATOM     23  C   UNL     1      -0.207  12.187  19.194  0.00  0.00    +0.000 A 
ATOM     24 CL   UNL     1      -1.057  13.471  19.960  0.00  0.00    +0.000 Cl
ATOM     25  C   UNL     1      -0.897  11.058  18.754  0.00  0.00    +0.000 A 
ATOM     26  C   UNL     1      -0.196   9.979  18.199  0.00  0.00    +0.000 A 
ENDBRANCH  17  20
ENDBRANCH   5  14
TORSDOF 2
ENDMDL
MODEL 3
REMARK VINA RESULT:      -8.4      3.005      4.211
REMARK  Name = 
REMARK  4 active torsions:
REMARK  status: ('A' for Active; 'I' for Inactive)
REMARK    1  A    between atoms: C_1  and  C_2
REMARK    2  A    between atoms: C_2  and  C_3
REMARK    3  A    between atoms: C_5  and  N_6
REMARK    4  A    between atoms: N_9  and  C_10
REMARK                            x       y       z     vdW  Elec       q    Type
REMARK                         _______ _______ _______ _____ _____    ______ ____
ROOT
ATOM      1  C   UNL     1       1.865   2.318  18.449  0.00  0.00    +0.000 C 
ATOM      2  C   UNL     1       2.711   3.571  18.725  0.00  0.00    +0.000 C 
ATOM      3  C   UNL     1       2.987   3.626  20.237  0.00  0.00    +0.000 C 
ATOM      4  C   UNL     1       1.956   4.783  18.170  0.00  0.00    +0.000 C 
ATOM      5  C   UNL     1       2.748   6.083  18.352  0.00  0.00    +0.000 C 
ATOM      6  C   UNL     1       4.192   5.846  17.996  0.00  0.00    +0.000 A 
ATOM      7  C   UNL     1       5.049   6.936  17.772  0.00  0.00    +0.000 A 
ATOM      8  C   UNL     1       6.360   6.724  17.376  0.00  0.00    +0.000 A 
ATOM      9  F   UNL     1       7.165   7.773  17.162  0.00  0.00    +0.000 F 
ATOM     10  C   UNL     1       6.848   5.435  17.185  0.00  0.00    +0.000 A 
ATOM     11  C   UNL     1       6.011   4.344  17.411  0.00  0.00    +0.000 A 
ATOM     12  C   UNL     1       4.694   4.546  17.830  0.00  0.00    +0.000 A 
ATOM     13  O   UNL     1       3.959   3.405  18.029  0.00  0.00    +0.000 OA
ENDROOT
BRANCH   5  14
ATOM     14  N   UNL     1       2.601   6.659  19.685  0.00  0.00    +0.000 N 
ATOM     15  C   UNL     1       1.879   7.820  19.824  0.00  0.00    +0.000 C 
ATOM     16  O   UNL     1       1.491   8.456  18.851  0.00  0.00    +0.000 OA
ATOM     17  N   UNL     1       1.645   8.151  21.143  0.00  0.00    +0.000 N 
ATOM     18  H   UNL     1       2.682   6.050  20.485  0.00  0.00    +0.000 HD
ATOM     19  H   UNL     1       2.355   7.857  21.798  0.00  0.00    +0.000 HD
BRANCH  17  20
ATOM     20  C   UNL     1       0.818   9.231  21.527  0.00  0.00    +0.000 A 
ATOM     21  C   UNL     1       0.892  10.483  20.903  0.00  0.00    +0.000 A 
ATOM     22  C   UNL     1       0.178  11.573  21.400  0.00  0.00    +0.000 A 
ATOM     23  C   UNL     1      -0.641  11.406  22.509  0.00  0.00    +0.000 A 
ATOM     24 CL   UNL     1      -1.450  12.765  23.184  0.00  0.00    +0.000 Cl
ATOM     25  C   UNL     1      -0.795  10.146  23.086  0.00  0.00    +0.000 A 
ATOM     26  C   UNL     1      -0.078   9.052  22.585  0.00  0.00    +0.000 A 
ENDBRANCH  17  20
ENDBRANCH   5  14
TORSDOF 2
ENDMDL
MODEL 4
REMARK VINA RESULT:      -8.3      3.024      4.146
REMARK  Name = 
REMARK  4 active torsions:
REMARK  status: ('A' for Active; 'I' for Inactive)
REMARK    1  A    between atoms: C_1  and  C_2
REMARK    2  A    between atoms: C_2  and  C_3
REMARK    3  A    between atoms: C_5  and  N_6
REMARK    4  A    between atoms: N_9  and  C_10
REMARK                            x       y       z     vdW  Elec       q    Type
REMARK                         _______ _______ _______ _____ _____    ______ ____
ROOT
ATOM      1  C   UNL     1       1.790   2.367  18.300  0.00  0.00    +0.000 C 
ATOM      2  C   UNL     1       2.657   3.600  18.601  0.00  0.00    +0.000 C 
ATOM      3  C   UNL     1       2.985   3.585  20.103  0.00  0.00    +0.000 C 
ATOM      4  C   UNL     1       1.897   4.842  18.126  0.00  0.00    +0.000 C 
ATOM      5  C   UNL     1       2.708   6.124  18.338  0.00  0.00    +0.000 C 
ATOM      6  C   UNL     1       4.136   5.891  17.921  0.00  0.00    +0.000 A 
ATOM      7  C   UNL     1       4.996   6.982  17.716  0.00  0.00    +0.000 A 
ATOM      8  C   UNL     1       6.291   6.776  17.265  0.00  0.00    +0.000 A 
ATOM      9  F   UNL     1       7.099   7.826  17.070  0.00  0.00    +0.000 F 
ATOM     10  C   UNL     1       6.758   5.493  17.001  0.00  0.00    +0.000 A 
ATOM     11  C   UNL     1       5.919   4.401  17.208  0.00  0.00    +0.000 A 
ATOM     12  C   UNL     1       4.618   4.595  17.681  0.00  0.00    +0.000 A 
ATOM     13  O   UNL     1       3.879   3.453  17.855  0.00  0.00    +0.000 OA
ENDROOT
BRANCH   5  14
ATOM     14  N   UNL     1       2.613   6.642  19.698  0.00  0.00    +0.000 N 
ATOM     15  C   UNL     1       1.929   7.816  19.910  0.00  0.00    +0.000 C 
ATOM     16  O   UNL     1       1.535   8.507  18.978  0.00  0.00    +0.000 OA
ATOM     17  N   UNL     1       1.740   8.092  21.248  0.00  0.00    +0.000 N 
ATOM     18  H   UNL     1       2.696   5.995  20.468  0.00  0.00    +0.000 HD
ATOM     19  H   UNL     1       2.458   7.748  21.869  0.00  0.00    +0.000 HD
BRANCH  17  20
ATOM     20  C   UNL     1       0.955   9.176  21.703  0.00  0.00    +0.000 A 
ATOM     21  C   UNL     1       0.083   9.057  22.793  0.00  0.00    +0.000 A 
ATOM     22  C   UNL     1      -0.791  10.092  23.126  0.00  0.00    +0.000 A 
ATOM     23  C   UNL     1      -0.774  11.267  22.385  0.00  0.00    +0.000 A 
ATOM     24 CL   UNL     1      -1.914  12.508  22.730  0.00  0.00    +0.000 Cl
ATOM     25  C   UNL     1       0.150  11.435  21.354  0.00  0.00    +0.000 A 
ATOM     26  C   UNL     1       1.029  10.395  21.023  0.00  0.00    +0.000 A 
ENDBRANCH  17  20
ENDBRANCH   5  14
TORSDOF 2
ENDMDL
MODEL 5
REMARK VINA RESULT:      -8.0      2.291      3.765
REMARK  Name = 
REMARK  4 active torsions:
REMARK  status: ('A' for Active; 'I' for Inactive)
REMARK    1  A    between atoms: C_1  and  C_2
REMARK    2  A    between atoms: C_2  and  C_3
REMARK    3  A    between atoms: C_5  and  N_6
REMARK    4  A    between atoms: N_9  and  C_10
REMARK                            x       y       z     vdW  Elec       q    Type
REMARK                         _______ _______ _______ _____ _____    ______ ____
ROOT
ATOM      1  C   UNL     1       1.386   2.881  19.205  0.00  0.00    +0.000 C 
ATOM      2  C   UNL     1       2.273   4.135  19.162  0.00  0.00    +0.000 C 
ATOM      3  C   UNL     1       2.241   4.779  20.558  0.00  0.00    +0.000 C 
ATOM      4  C   UNL     1       1.766   5.036  18.031  0.00  0.00    +0.000 C 
ATOM      5  C   UNL     1       2.624   6.296  17.876  0.00  0.00    +0.000 C 
ATOM      6  C   UNL     1       4.081   5.927  17.969  0.00  0.00    +0.000 A 
ATOM      7  C   UNL     1       5.065   6.834  17.544  0.00  0.00    +0.000 A 
ATOM      8  C   UNL     1       6.404   6.471  17.563  0.00  0.00    +0.000 A 
ATOM      9  F   UNL     1       7.332   7.345  17.150  0.00  0.00    +0.000 F 
ATOM     10  C   UNL     1       6.795   5.208  17.994  0.00  0.00    +0.000 A 
ATOM     11  C   UNL     1       5.830   4.302  18.427  0.00  0.00    +0.000 A 
ATOM     12  C   UNL     1       4.480   4.662  18.430  0.00  0.00    +0.000 A 
ATOM     13  O   UNL     1       3.615   3.698  18.881  0.00  0.00    +0.000 OA
ENDROOT
BRANCH   5  14
ATOM     14  N   UNL     1       2.266   7.351  18.817  0.00  0.00    +0.000 N 
ATOM     15  C   UNL     1       2.016   8.612  18.329  0.00  0.00    +0.000 C 
ATOM     16  O   UNL     1       2.234   8.902  17.158  0.00  0.00    +0.000 OA
ATOM     17  N   UNL     1       1.498   9.463  19.282  0.00  0.00    +0.000 N 
ATOM     18  H   UNL     1       1.848   7.091  19.698  0.00  0.00    +0.000 HD
ATOM     19  H   UNL     1       1.791   9.283  20.232  0.00  0.00    +0.000 HD
BRANCH  17  20
ATOM     20  C   UNL     1       1.046  10.768  18.981  0.00  0.00    +0.000 A 
ATOM     21  C   UNL     1       1.931  11.803  18.652  0.00  0.00    +0.000 A 
ATOM     22  C   UNL     1       1.476  13.115  18.510  0.00  0.00    +0.000 A 
ATOM     23  C   UNL     1       0.124  13.390  18.666  0.00  0.00    +0.000 A 
ATOM     24 CL   UNL     1      -0.429  15.017  18.587  0.00  0.00    +0.000 Cl
ATOM     25  C   UNL     1      -0.782  12.357  18.904  0.00  0.00    +0.000 A 
ATOM     26  C   UNL     1      -0.323  11.041  19.045  0.00  0.00    +0.000 A 
ENDBRANCH  17  20
ENDBRANCH   5  14
TORSDOF 2
ENDMDL
MODEL 6
REMARK VINA RESULT:      -7.8      1.262      1.332
REMARK  Name = 
REMARK  4 active torsions:
REMARK  status: ('A' for Active; 'I' for Inactive)
REMARK    1  A    between atoms: C_1  and  C_2
REMARK    2  A    between atoms: C_2  and  C_3
REMARK    3  A    between atoms: C_5  and  N_6
REMARK    4  A    between atoms: N_9  and  C_10
REMARK                            x       y       z     vdW  Elec       q    Type
REMARK                         _______ _______ _______ _____ _____    ______ ____
ROOT
ATOM      1  C   UNL     1       7.238   5.311  17.878  0.00  0.00    +0.000 C 
ATOM      2  C   UNL     1       5.701   5.275  17.879  0.00  0.00    +0.000 C 
ATOM      3  C   UNL     1       5.213   6.096  16.674  0.00  0.00    +0.000 C 
ATOM      4  C   UNL     1       5.216   5.786  19.239  0.00  0.00    +0.000 C 
ATOM      5  C   UNL     1       3.689   5.739  19.356  0.00  0.00    +0.000 C 
ATOM      6  C   UNL     1       3.182   4.434  18.800  0.00  0.00    +0.000 A 
ATOM      7  C   UNL     1       1.871   4.013  19.078  0.00  0.00    +0.000 A 
ATOM      8  C   UNL     1       1.423   2.780  18.627  0.00  0.00    +0.000 A 
ATOM      9  F   UNL     1       0.173   2.389  18.904  0.00  0.00    +0.000 F 
ATOM     10  C   UNL     1       2.260   1.940  17.901  0.00  0.00    +0.000 A 
ATOM     11  C   UNL     1       3.560   2.349  17.610  0.00  0.00    +0.000 A 
ATOM     12  C   UNL     1       4.016   3.596  18.043  0.00  0.00    +0.000 A 
ATOM     13  O   UNL     1       5.307   3.902  17.698  0.00  0.00    +0.000 OA
ENDROOT
BRANCH   5  14
ATOM     14  N   UNL     1       3.033   6.887  18.741  0.00  0.00    +0.000 N 
ATOM     15  C   UNL     1       2.068   7.556  19.457  0.00  0.00    +0.000 C 
ATOM     16  O   UNL     1       1.644   7.124  20.522  0.00  0.00    +0.000 OA
ATOM     17  N   UNL     1       1.671   8.730  18.853  0.00  0.00    +0.000 N 
ATOM     18  H   UNL     1       3.521   7.390  18.015  0.00  0.00    +0.000 HD
ATOM     19  H   UNL     1       1.720   8.740  17.844  0.00  0.00    +0.000 HD
BRANCH  17  20
ATOM     20  C   UNL     1       0.785   9.646  19.466  0.00  0.00    +0.000 A 
ATOM     21  C   UNL     1      -0.361  10.121  18.815  0.00  0.00    +0.000 A 
ATOM     22  C   UNL     1      -1.133  11.137  19.378  0.00  0.00    +0.000 A 
ATOM     23  C   UNL     1      -0.778  11.662  20.614  0.00  0.00    +0.000 A 
ATOM     24 CL   UNL     1      -1.670  12.978  21.269  0.00  0.00    +0.000 Cl
ATOM     25  C   UNL     1       0.306  11.136  21.315  0.00  0.00    +0.000 A 
ATOM     26  C   UNL     1       1.080  10.115  20.749  0.00  0.00    +0.000 A 
ENDBRANCH  17  20
ENDBRANCH   5  14
TORSDOF 2
ENDMDL
MODEL 7
REMARK VINA RESULT:      -7.8      4.960      5.992
REMARK  Name = 
REMARK  4 active torsions:
REMARK  status: ('A' for Active; 'I' for Inactive)
REMARK    1  A    between atoms: C_1  and  C_2
REMARK    2  A    between atoms: C_2  and  C_3
REMARK    3  A    between atoms: C_5  and  N_6
REMARK    4  A    between atoms: N_9  and  C_10
REMARK                            x       y       z     vdW  Elec       q    Type
REMARK                         _______ _______ _______ _____ _____    ______ ____
ROOT
ATOM      1  C   UNL     1       6.521   4.139  13.929  0.00  0.00    +0.000 C 
ATOM      2  C   UNL     1       5.997   4.870  15.176  0.00  0.00    +0.000 C 
ATOM      3  C   UNL     1       5.475   6.245  14.729  0.00  0.00    +0.000 C 
ATOM      4  C   UNL     1       7.130   4.921  16.206  0.00  0.00    +0.000 C 
ATOM      5  C   UNL     1       6.686   5.588  17.512  0.00  0.00    +0.000 C 
ATOM      6  C   UNL     1       5.320   5.084  17.896  0.00  0.00    +0.000 A 
ATOM      7  C   UNL     1       4.833   5.292  19.197  0.00  0.00    +0.000 A 
ATOM      8  C   UNL     1       3.606   4.769  19.575  0.00  0.00    +0.000 A 
ATOM      9  F   UNL     1       3.156   4.972  20.821  0.00  0.00    +0.000 F 
ATOM     10  C   UNL     1       2.842   4.025  18.683  0.00  0.00    +0.000 A 
ATOM     11  C   UNL     1       3.309   3.818  17.386  0.00  0.00    +0.000 A 
ATOM     12  C   UNL     1       4.535   4.357  16.988  0.00  0.00    +0.000 A 
ATOM     13  O   UNL     1       4.897   4.098  15.691  0.00  0.00    +0.000 OA
ENDROOT
BRANCH   5  14
ATOM     14  N   UNL     1       6.734   7.045  17.453  0.00  0.00    +0.000 N 
ATOM     15  C   UNL     1       7.725   7.700  18.146  0.00  0.00    +0.000 C 
ATOM     16  O   UNL     1       8.464   7.108  18.923  0.00  0.00    +0.000 OA
ATOM     17  N   UNL     1       7.784   9.046  17.852  0.00  0.00    +0.000 N 
ATOM     18  H   UNL     1       6.323   7.510  16.657  0.00  0.00    +0.000 HD
ATOM     19  H   UNL     1       6.906   9.476  17.601  0.00  0.00    +0.000 HD
BRANCH  17  20
ATOM     20  C   UNL     1       8.802   9.894  18.347  0.00  0.00    +0.000 A 
ATOM     21  C   UNL     1       9.032  10.058  19.719  0.00  0.00    +0.000 A 
ATOM     22  C   UNL     1       9.935  11.014  20.183  0.00  0.00    +0.000 A 
ATOM     23  C   UNL     1      10.638  11.791  19.271  0.00  0.00    +0.000 A 
ATOM     24 CL   UNL     1      11.681  13.035  19.838  0.00  0.00    +0.000 Cl
ATOM     25  C   UNL     1      10.486  11.578  17.901  0.00  0.00    +0.000 A 
ATOM     26  C   UNL     1       9.579  10.616  17.437  0.00  0.00    +0.000 A 
ENDBRANCH  17  20
ENDBRANCH   5  14
TORSDOF 2
ENDMDL
MODEL 8
REMARK VINA RESULT:      -7.8      2.427      3.844
REMARK  Name = 
REMARK  4 active torsions:
REMARK  status: ('A' for Active; 'I' for Inactive)
REMARK    1  A    between atoms: C_1  and  C_2
REMARK    2  A    between atoms: C_2  and  C_3
REMARK    3  A    between atoms: C_5  and  N_6
REMARK    4  A    between atoms: N_9  and  C_10
REMARK                            x       y       z     vdW  Elec       q    Type
REMARK                         _______ _______ _______ _____ _____    ______ ____
ROOT
ATOM      1  C   UNL     1       2.066   2.528  18.541  0.00  0.00    +0.000 C 
ATOM      2  C   UNL     1       2.838   3.846  18.716  0.00  0.00    +0.000 C 
ATOM      3  C   UNL     1       2.845   4.189  20.214  0.00  0.00    +0.000 C 
ATOM      4  C   UNL     1       2.179   4.902  17.822  0.00  0.00    +0.000 C 
ATOM      5  C   UNL     1       2.913   6.245  17.888  0.00  0.00    +0.000 C 
ATOM      6  C   UNL     1       4.400   6.009  17.832  0.00  0.00    +0.000 A 
ATOM      7  C   UNL     1       5.271   7.075  17.555  0.00  0.00    +0.000 A 
ATOM      8  C   UNL     1       6.634   6.850  17.433  0.00  0.00    +0.000 A 
ATOM      9  F   UNL     1       7.453   7.875  17.165  0.00  0.00    +0.000 F 
ATOM     10  C   UNL     1       7.160   5.570  17.574  0.00  0.00    +0.000 A 
ATOM     11  C   UNL     1       6.308   4.505  17.857  0.00  0.00    +0.000 A 
ATOM     12  C   UNL     1       4.936   4.723  18.001  0.00  0.00    +0.000 A 
ATOM     13  O   UNL     1       4.190   3.608  18.284  0.00  0.00    +0.000 OA
ENDROOT
BRANCH   5  14
ATOM     14  N   UNL     1       2.531   7.049  19.044  0.00  0.00    +0.000 N 
ATOM     15  C   UNL     1       1.928   8.266  18.829  0.00  0.00    +0.000 C 
ATOM     16  O   UNL     1       1.845   8.752  17.707  0.00  0.00    +0.000 OA
ATOM     17  N   UNL     1       1.438   8.833  19.986  0.00  0.00    +0.000 N 
ATOM     18  H   UNL     1       2.359   6.582  19.921  0.00  0.00    +0.000 HD
ATOM     19  H   UNL     1       1.943   8.605  20.831  0.00  0.00    +0.000 HD
BRANCH  17  20
ATOM     20  C   UNL     1       0.669  10.019  19.993  0.00  0.00    +0.000 A 
ATOM     21  C   UNL     1       0.920  11.063  20.892  0.00  0.00    +0.000 A 
ATOM     22  C   UNL     1       0.055  12.154  20.982  0.00  0.00    +0.000 A 
ATOM     23  C   UNL     1      -1.053  12.218  20.146  0.00  0.00    +0.000 A 
ATOM     24 CL   UNL     1      -2.175  13.511  20.318  0.00  0.00    +0.000 Cl
ATOM     25  C   UNL     1      -1.267  11.232  19.184  0.00  0.00    +0.000 A 
ATOM     26  C   UNL     1      -0.395  10.139  19.095  0.00  0.00    +0.000 A 
ENDBRANCH  17  20
ENDBRANCH   5  14
TORSDOF 2
ENDMDL
MODEL 9
REMARK VINA RESULT:      -7.8      2.302      3.661
REMARK  Name = 
REMARK  4 active torsions:
REMARK  status: ('A' for Active; 'I' for Inactive)
REMARK    1  A    between atoms: C_1  and  C_2
REMARK    2  A    between atoms: C_2  and  C_3
REMARK    3  A    between atoms: C_5  and  N_6
REMARK    4  A    between atoms: N_9  and  C_10
REMARK                            x       y       z     vdW  Elec       q    Type
REMARK                         _______ _______ _______ _____ _____    ______ ____
ROOT
ATOM      1  C   UNL     1       2.125   2.465  18.577  0.00  0.00    +0.000 C 
ATOM      2  C   UNL     1       2.861   3.806  18.722  0.00  0.00    +0.000 C 
ATOM      3  C   UNL     1       2.782   4.227  20.199  0.00  0.00    +0.000 C 
ATOM      4  C   UNL     1       2.232   4.800  17.741  0.00  0.00    +0.000 C 
ATOM      5  C   UNL     1       2.936   6.161  17.774  0.00  0.00    +0.000 C 
ATOM      6  C   UNL     1       4.428   5.954  17.809  0.00  0.00    +0.000 A 
ATOM      7  C   UNL     1       5.293   7.023  17.523  0.00  0.00    +0.000 A 
ATOM      8  C   UNL     1       6.664   6.821  17.485  0.00  0.00    +0.000 A 
ATOM      9  F   UNL     1       7.477   7.849  17.207  0.00  0.00    +0.000 F 
ATOM     10  C   UNL     1       7.206   5.562  17.721  0.00  0.00    +0.000 A 
ATOM     11  C   UNL     1       6.360   4.495  18.014  0.00  0.00    +0.000 A 
ATOM     12  C   UNL     1       4.978   4.691  18.074  0.00  0.00    +0.000 A 
ATOM     13  O   UNL     1       4.238   3.576  18.376  0.00  0.00    +0.000 OA
ENDROOT
BRANCH   5  14
ATOM     14  N   UNL     1       2.477   7.015  18.864  0.00  0.00    +0.000 N 
ATOM     15  C   UNL     1       2.054   8.289  18.569  0.00  0.00    +0.000 C 
ATOM     16  O   UNL     1       2.195   8.770  17.450  0.00  0.00    +0.000 OA
ATOM     17  N   UNL     1       1.462   8.920  19.643  0.00  0.00    +0.000 N 
ATOM     18  H   UNL     1       2.124   6.579  19.703  0.00  0.00    +0.000 HD
ATOM     19  H   UNL     1       1.806   8.646  20.552  0.00  0.00    +0.000 HD
BRANCH  17  20
ATOM     20  C   UNL     1       0.839  10.185  19.541  0.00  0.00    +0.000 A 
ATOM     21  C   UNL     1      -0.188  10.436  18.621  0.00  0.00    +0.000 A 
ATOM     22  C   UNL     1      -0.679  11.728  18.433  0.00  0.00    +0.000 A 
ATOM     23  C   UNL     1      -0.165  12.773  19.190  0.00  0.00    +0.000 A 
ATOM     24 CL   UNL     1      -0.698  14.381  18.897  0.00  0.00    +0.000 Cl
ATOM     25  C   UNL     1       0.793  12.524  20.173  0.00  0.00    +0.000 A 
ATOM     26  C   UNL     1       1.284  11.225  20.361  0.00  0.00    +0.000 A 
ENDBRANCH  17  20
ENDBRANCH   5  14
TORSDOF 2
ENDMDL
