MODEL 1
REMARK VINA RESULT:      -8.6      0.000      0.000
REMARK  Name = 
REMARK  5 active torsions:
REMARK  status: ('A' for Active; 'I' for Inactive)
REMARK    1  A    between atoms: C_1  and  C_2
REMARK    2  A    between atoms: C_4  and  C_5
REMARK    3  A    between atoms: C_9  and  C_10
REMARK    4  A    between atoms: C_16  and  S_17
REMARK    5  A    between atoms: S_17  and  N_20
REMARK                            x       y       z     vdW  Elec       q    Type
REMARK                         _______ _______ _______ _____ _____    ______ ____
ROOT
ATOM      1  C   UNL     1       3.360   5.836  18.889  0.00  0.00    +0.000 A 
ATOM      2  N   UNL     1       3.241   4.836  19.802  0.00  0.00    +0.000 NA
ATOM      3  C   UNL     1       2.377   4.989  20.822  0.00  0.00    +0.000 A 
ATOM      4  C   UNL     1       1.635   6.132  21.031  0.00  0.00    +0.000 A 
ATOM      5  C   UNL     1       1.756   7.186  20.128  0.00  0.00    +0.000 A 
ATOM      6  C   UNL     1       1.045   8.382  20.343  0.00  0.00    +0.000 A 
ATOM      7  C   UNL     1       1.156   9.440  19.438  0.00  0.00    +0.000 A 
ATOM      8  C   UNL     1       1.943   9.315  18.303  0.00  0.00    +0.000 A 
ATOM      9  C   UNL     1       2.618   8.119  18.069  0.00  0.00    +0.000 A 
ATOM     10  C   UNL     1       2.603   7.043  18.997  0.00  0.00    +0.000 A 
ENDROOT
BRANCH   1  17
ATOM     11  C   UNL     1       3.110   3.479  16.935  0.00  0.00    +0.000 C 
ATOM     12  C   UNL     1       4.213   4.506  16.858  0.00  0.00    +0.000 A 
ATOM     13  C   UNL     1       5.133   4.379  15.795  0.00  0.00    +0.000 A 
ATOM     14  C   UNL     1       6.197   5.269  15.648  0.00  0.00    +0.000 A 
ATOM     15  C   UNL     1       6.393   6.259  16.602  0.00  0.00    +0.000 A 
ATOM     16  C   UNL     1       5.514   6.362  17.683  0.00  0.00    +0.000 A 
ATOM     17  C   UNL     1       4.357   5.557  17.805  0.00  0.00    +0.000 A 
BRANCH  14  18
ATOM     18  C   UNL     1       7.087   5.157  14.530  0.00  0.00    +0.000 C 
ATOM     19  N   UNL     1       7.816   5.080  13.633  0.00  0.00    +0.000 NA
ENDBRANCH  14  18
ENDBRANCH   1  17
BRANCH   7  20
ATOM     20  S   UNL     1       0.373  10.993  19.757  0.00  0.00    +0.000 S 
ATOM     21  O   UNL     1      -0.828  10.733  20.526  0.00  0.00    +0.000 OA
ATOM     22  O   UNL     1       1.362  11.928  20.251  0.00  0.00    +0.000 OA
BRANCH  20  23
ATOM     23  N   UNL     1      -0.173  11.473  18.239  0.00  0.00    +0.000 N 
ATOM     24  C   UNL     1      -1.546  11.186  18.052  0.00  0.00    +0.000 A 
ATOM     25  N   UNL     1      -2.479  11.999  18.468  0.00  0.00    +0.000 NA
ATOM     26  C   UNL     1      -3.689  11.508  17.997  0.00  0.00    +0.000 A 
ATOM     27  N   UNL     1      -3.734  10.375  17.293  0.00  0.00    +0.000 NA
ATOM     28  S   UNL     1      -2.144   9.873  17.134  0.00  0.00    +0.000 S 
ATOM     29  H   UNL     1       0.441  11.042  17.556  0.00  0.00    +0.000 HD
ENDBRANCH  20  23
ENDBRANCH   7  20
TORSDOF 4
ENDMDL
MODEL 2
REMARK VINA RESULT:      -8.5      2.323      2.958
REMARK  Name = 
REMARK  5 active torsions:
REMARK  status: ('A' for Active; 'I' for Inactive)
REMARK    1  A    between atoms: C_1  and  C_2
REMARK    2  A    between atoms: C_4  and  C_5
REMARK    3  A    between atoms: C_9  and  C_10
REMARK    4  A    between atoms: C_16  and  S_17
REMARK    5  A    between atoms: S_17  and  N_20
REMARK                            x       y       z     vdW  Elec       q    Type
REMARK                         _______ _______ _______ _____ _____    ______ ____
ROOT
ATOM      1  C   UNL     1       3.895   4.647  18.717  0.00  0.00    +0.000 A 
ATOM      2  N   UNL     1       3.939   3.377  19.198  0.00  0.00    +0.000 NA
ATOM      3  C   UNL     1       3.141   3.047  20.230  0.00  0.00    +0.000 A 
ATOM      4  C   UNL     1       2.312   3.942  20.873  0.00  0.00    +0.000 A 
ATOM      5  C   UNL     1       2.266   5.259  20.422  0.00  0.00    +0.000 A 
ATOM      6  C   UNL     1       1.462   6.204  21.088  0.00  0.00    +0.000 A 
ATOM      7  C   UNL     1       1.406   7.524  20.637  0.00  0.00    +0.000 A 
ATOM      8  C   UNL     1       2.116   7.913  19.510  0.00  0.00    +0.000 A 
ATOM      9  C   UNL     1       2.881   6.971  18.827  0.00  0.00    +0.000 A 
ATOM     10  C   UNL     1       3.037   5.637  19.290  0.00  0.00    +0.000 A 
ENDROOT
BRANCH   1  17
ATOM     11  C   UNL     1       6.772   5.656  19.088  0.00  0.00    +0.000 C 
ATOM     12  C   UNL     1       6.183   5.306  17.743  0.00  0.00    +0.000 A 
ATOM     13  C   UNL     1       7.037   5.412  16.623  0.00  0.00    +0.000 A 
ATOM     14  C   UNL     1       6.581   5.127  15.336  0.00  0.00    +0.000 A 
ATOM     15  C   UNL     1       5.246   4.797  15.145  0.00  0.00    +0.000 A 
ATOM     16  C   UNL     1       4.383   4.736  16.242  0.00  0.00    +0.000 A 
ATOM     17  C   UNL     1       4.831   4.900  17.574  0.00  0.00    +0.000 A 
BRANCH  14  18
ATOM     18  C   UNL     1       7.477   5.186  14.220  0.00  0.00    +0.000 C 
ATOM     19  N   UNL     1       8.196   5.217  13.312  0.00  0.00    +0.000 NA
ENDBRANCH  14  18
ENDBRANCH   1  17
BRANCH   7  20
ATOM     20  S   UNL     1       0.505   8.752  21.534  0.00  0.00    +0.000 S 
ATOM     21  O   UNL     1      -0.752   8.163  21.949  0.00  0.00    +0.000 OA
ATOM     22  O   UNL     1       1.382   9.358  22.514  0.00  0.00    +0.000 OA
BRANCH  20  23
ATOM     23  N   UNL     1       0.094   9.877  20.350  0.00  0.00    +0.000 N 
ATOM     24  C   UNL     1       0.103  11.201  20.849  0.00  0.00    +0.000 A 
ATOM     25  N   UNL     1       1.202  11.904  20.908  0.00  0.00    +0.000 NA
ATOM     26  C   UNL     1       0.844  13.190  21.291  0.00  0.00    +0.000 A 
ATOM     27  N   UNL     1      -0.429  13.491  21.554  0.00  0.00    +0.000 NA
ATOM     28  S   UNL     1      -1.299  12.090  21.260  0.00  0.00    +0.000 S 
ATOM     29  H   UNL     1      -0.795   9.582  19.962  0.00  0.00    +0.000 HD
ENDBRANCH  20  23
ENDBRANCH   7  20
TORSDOF 4
ENDMDL
MODEL 3
REMARK VINA RESULT:      -8.4      1.667      2.291
REMARK  Name = 
REMARK  5 active torsions:
REMARK  status: ('A' for Active; 'I' for Inactive)
REMARK    1  A    between atoms: C_1  and  C_2
REMARK    2  A    between atoms: C_4  and  C_5
REMARK    3  A    between atoms: C_9  and  C_10
REMARK    4  A    between atoms: C_16  and  S_17
REMARK    5  A    between atoms: S_17  and  N_20
REMARK                            x       y       z     vdW  Elec       q    Type
REMARK                         _______ _______ _______ _____ _____    ______ ____
ROOT
ATOM      1  C   UNL     1       3.979   4.721  18.518  0.00  0.00    +0.000 A 
ATOM      2  N   UNL     1       4.035   3.467  19.040  0.00  0.00    +0.000 NA
ATOM      3  C   UNL     1       3.277   3.178  20.113  0.00  0.00    +0.000 A 
ATOM      4  C   UNL     1       2.479   4.100  20.758  0.00  0.00    +0.000 A 
ATOM      5  C   UNL     1       2.423   5.401  20.263  0.00  0.00    +0.000 A 
ATOM      6  C   UNL     1       1.651   6.374  20.928  0.00  0.00    +0.000 A 
ATOM      7  C   UNL     1       1.584   7.678  20.435  0.00  0.00    +0.000 A 
ATOM      8  C   UNL     1       2.252   8.023  19.268  0.00  0.00    +0.000 A 
ATOM      9  C   UNL     1       2.984   7.054  18.588  0.00  0.00    +0.000 A 
ATOM     10  C   UNL     1       3.150   5.735  19.090  0.00  0.00    +0.000 A 
ENDROOT
BRANCH   1  17
ATOM     11  C   UNL     1       6.838   5.823  18.730  0.00  0.00    +0.000 C 
ATOM     12  C   UNL     1       6.216   5.378  17.429  0.00  0.00    +0.000 A 
ATOM     13  C   UNL     1       7.029   5.438  16.277  0.00  0.00    +0.000 A 
ATOM     14  C   UNL     1       6.540   5.065  15.025  0.00  0.00    +0.000 A 
ATOM     15  C   UNL     1       5.209   4.690  14.899  0.00  0.00    +0.000 A 
ATOM     16  C   UNL     1       4.384   4.673  16.027  0.00  0.00    +0.000 A 
ATOM     17  C   UNL     1       4.870   4.928  17.331  0.00  0.00    +0.000 A 
BRANCH  14  18
ATOM     18  C   UNL     1       7.398   5.079  13.877  0.00  0.00    +0.000 C 
ATOM     19  N   UNL     1       8.083   5.104  12.943  0.00  0.00    +0.000 NA
ENDBRANCH  14  18
ENDBRANCH   1  17
BRANCH   7  20
ATOM     20  S   UNL     1       0.727   8.942  21.324  0.00  0.00    +0.000 S 
ATOM     21  O   UNL     1      -0.676   8.583  21.361  0.00  0.00    +0.000 OA
ATOM     22  O   UNL     1       1.438   9.218  22.555  0.00  0.00    +0.000 OA
BRANCH  20  23
ATOM     23  N   UNL     1       0.814  10.271  20.294  0.00  0.00    +0.000 N 
ATOM     24  C   UNL     1      -0.451  10.874  20.096  0.00  0.00    +0.000 A 
ATOM     25  N   UNL     1      -0.929  11.755  20.933  0.00  0.00    +0.000 NA
ATOM     26  C   UNL     1      -2.097  12.257  20.375  0.00  0.00    +0.000 A 
ATOM     27  N   UNL     1      -2.545  11.794  19.207  0.00  0.00    +0.000 NA
ATOM     28  S   UNL     1      -1.412  10.671  18.697  0.00  0.00    +0.000 S 
ATOM     29  H   UNL     1       1.263   9.954  19.442  0.00  0.00    +0.000 HD
ENDBRANCH  20  23
ENDBRANCH   7  20
TORSDOF 4
ENDMDL
MODEL 4
REMARK VINA RESULT:      -8.4      1.757      2.572
REMARK  Name = 
REMARK  5 active torsions:
REMARK  status: ('A' for Active; 'I' for Inactive)
REMARK    1  A    between atoms: C_1  and  C_2
REMARK    2  A    between atoms: C_4  and  C_5
REMARK    3  A    between atoms: C_9  and  C_10
REMARK    4  A    between atoms: C_16  and  S_17
REMARK    5  A    between atoms: S_17  and  N_20
REMARK                            x       y       z     vdW  Elec       q    Type
REMARK                         _______ _______ _______ _____ _____    ______ ____
ROOT
ATOM      1  C   UNL     1       3.380   5.721  18.919  0.00  0.00    +0.000 A 
ATOM      2  N   UNL     1       3.266   4.696  19.805  0.00  0.00    +0.000 NA
ATOM      3  C   UNL     1       2.409   4.822  20.834  0.00  0.00    +0.000 A 
ATOM      4  C   UNL     1       1.670   5.960  21.080  0.00  0.00    +0.000 A 
ATOM      5  C   UNL     1       1.786   7.038  20.206  0.00  0.00    +0.000 A 
ATOM      6  C   UNL     1       1.077   8.228  20.458  0.00  0.00    +0.000 A 
ATOM      7  C   UNL     1       1.183   9.311  19.582  0.00  0.00    +0.000 A 
ATOM      8  C   UNL     1       1.963   9.216  18.439  0.00  0.00    +0.000 A 
ATOM      9  C   UNL     1       2.635   8.027  18.167  0.00  0.00    +0.000 A 
ATOM     10  C   UNL     1       2.625   6.925  19.065  0.00  0.00    +0.000 A 
ENDROOT
BRANCH   1  17
ATOM     11  C   UNL     1       3.088   3.450  16.872  0.00  0.00    +0.000 C 
ATOM     12  C   UNL     1       4.207   4.462  16.833  0.00  0.00    +0.000 A 
ATOM     13  C   UNL     1       5.122   4.364  15.762  0.00  0.00    +0.000 A 
ATOM     14  C   UNL     1       6.199   5.243  15.648  0.00  0.00    +0.000 A 
ATOM     15  C   UNL     1       6.413   6.190  16.640  0.00  0.00    +0.000 A 
ATOM     16  C   UNL     1       5.539   6.263  17.728  0.00  0.00    +0.000 A 
ATOM     17  C   UNL     1       4.369   5.472  17.821  0.00  0.00    +0.000 A 
BRANCH  14  18
ATOM     18  C   UNL     1       7.084   5.163  14.523  0.00  0.00    +0.000 C 
ATOM     19  N   UNL     1       7.802   5.116  13.616  0.00  0.00    +0.000 NA
ENDBRANCH  14  18
ENDBRANCH   1  17
BRANCH   7  20
ATOM     20  S   UNL     1       0.404  10.855  19.949  0.00  0.00    +0.000 S 
ATOM     21  O   UNL     1      -1.012  10.604  20.126  0.00  0.00    +0.000 OA
ATOM     22  O   UNL     1       1.158  11.529  20.986  0.00  0.00    +0.000 OA
BRANCH  20  23
ATOM     23  N   UNL     1       0.522  11.705  18.500  0.00  0.00    +0.000 N 
ATOM     24  C   UNL     1       1.325  12.863  18.627  0.00  0.00    +0.000 A 
ATOM     25  N   UNL     1       2.625  12.811  18.517  0.00  0.00    +0.000 NA
ATOM     26  C   UNL     1       3.089  14.119  18.536  0.00  0.00    +0.000 A 
ATOM     27  N   UNL     1       2.241  15.139  18.685  0.00  0.00    +0.000 NA
ATOM     28  S   UNL     1       0.714  14.455  18.759  0.00  0.00    +0.000 S 
ATOM     29  H   UNL     1      -0.426  11.885  18.188  0.00  0.00    +0.000 HD
ENDBRANCH  20  23
ENDBRANCH   7  20
TORSDOF 4
ENDMDL
MODEL 5
REMARK VINA RESULT:      -8.4      0.986      1.063
REMARK  Name = 
REMARK  5 active torsions:
REMARK  status: ('A' for Active; 'I' for Inactive)
REMARK    1  A    between atoms: C_1  and  C_2
REMARK    2  A    between atoms: C_4  and  C_5
REMARK    3  A    between atoms: C_9  and  C_10
REMARK    4  A    between atoms: C_16  and  S_17
REMARK    5  A    between atoms: S_17  and  N_20
REMARK                            x       y       z     vdW  Elec       q    Type
REMARK                         _______ _______ _______ _____ _____    ______ ____
ROOT
ATOM      1  C   UNL     1       3.514   5.686  18.793  0.00  0.00    +0.000 A 
ATOM      2  N   UNL     1       3.425   4.674  19.696  0.00  0.00    +0.000 NA
ATOM      3  C   UNL     1       2.566   4.798  20.725  0.00  0.00    +0.000 A 
ATOM      4  C   UNL     1       1.802   5.923  20.953  0.00  0.00    +0.000 A 
ATOM      5  C   UNL     1       1.893   6.989  20.061  0.00  0.00    +0.000 A 
ATOM      6  C   UNL     1       1.158   8.167  20.294  0.00  0.00    +0.000 A 
ATOM      7  C   UNL     1       1.239   9.237  19.400  0.00  0.00    +0.000 A 
ATOM      8  C   UNL     1       2.019   9.140  18.257  0.00  0.00    +0.000 A 
ATOM      9  C   UNL     1       2.716   7.963  18.004  0.00  0.00    +0.000 A 
ATOM     10  C   UNL     1       2.732   6.876  18.921  0.00  0.00    +0.000 A 
ENDROOT
BRANCH   1  17
ATOM     11  C   UNL     1       3.226   3.427  16.733  0.00  0.00    +0.000 C 
ATOM     12  C   UNL     1       4.347   4.437  16.704  0.00  0.00    +0.000 A 
ATOM     13  C   UNL     1       5.265   4.343  15.636  0.00  0.00    +0.000 A 
ATOM     14  C   UNL     1       6.345   5.220  15.531  0.00  0.00    +0.000 A 
ATOM     15  C   UNL     1       6.557   6.162  16.529  0.00  0.00    +0.000 A 
ATOM     16  C   UNL     1       5.679   6.230  17.614  0.00  0.00    +0.000 A 
ATOM     17  C   UNL     1       4.507   5.441  17.698  0.00  0.00    +0.000 A 
BRANCH  14  18
ATOM     18  C   UNL     1       7.234   5.144  14.409  0.00  0.00    +0.000 C 
ATOM     19  N   UNL     1       7.958   5.100  13.505  0.00  0.00    +0.000 NA
ENDBRANCH  14  18
ENDBRANCH   1  17
BRANCH   7  20
ATOM     20  S   UNL     1       0.426  10.769  19.743  0.00  0.00    +0.000 S 
ATOM     21  O   UNL     1       0.729  11.134  21.112  0.00  0.00    +0.000 OA
ATOM     22  O   UNL     1       0.698  11.698  18.667  0.00  0.00    +0.000 OA
BRANCH  20  23
ATOM     23  N   UNL     1      -1.205  10.351  19.750  0.00  0.00    +0.000 N 
ATOM     24  C   UNL     1      -1.810  10.546  18.486  0.00  0.00    +0.000 A 
ATOM     25  N   UNL     1      -1.746   9.640  17.548  0.00  0.00    +0.000 NA
ATOM     26  C   UNL     1      -2.560  10.070  16.508  0.00  0.00    +0.000 A 
ATOM     27  N   UNL     1      -3.196  11.240  16.583  0.00  0.00    +0.000 NA
ATOM     28  S   UNL     1      -2.818  11.869  18.088  0.00  0.00    +0.000 S 
ATOM     29  H   UNL     1      -1.638  10.871  20.505  0.00  0.00    +0.000 HD
ENDBRANCH  20  23
ENDBRANCH   7  20
TORSDOF 4
ENDMDL
MODEL 6
REMARK VINA RESULT:      -8.4      2.034      2.529
REMARK  Name = 
REMARK  5 active torsions:
REMARK  status: ('A' for Active; 'I' for Inactive)
REMARK    1  A    between atoms: C_1  and  C_2
REMARK    2  A    between atoms: C_4  and  C_5
REMARK    3  A    between atoms: C_9  and  C_10
REMARK    4  A    between atoms: C_16  and  S_17
REMARK    5  A    between atoms: S_17  and  N_20
REMARK                            x       y       z     vdW  Elec       q    Type
REMARK                         _______ _______ _______ _____ _____    ______ ____
ROOT
ATOM      1  C   UNL     1       3.346   5.981  18.904  0.00  0.00    +0.000 A 
ATOM      2  N   UNL     1       3.237   5.034  19.873  0.00  0.00    +0.000 NA
ATOM      3  C   UNL     1       2.372   5.238  20.883  0.00  0.00    +0.000 A 
ATOM      4  C   UNL     1       1.619   6.384  21.026  0.00  0.00    +0.000 A 
ATOM      5  C   UNL     1       1.729   7.386  20.063  0.00  0.00    +0.000 A 
ATOM      6  C   UNL     1       1.006   8.584  20.208  0.00  0.00    +0.000 A 
ATOM      7  C   UNL     1       1.107   9.590  19.244  0.00  0.00    +0.000 A 
ATOM      8  C   UNL     1       1.896   9.406  18.117  0.00  0.00    +0.000 A 
ATOM      9  C   UNL     1       2.581   8.206  17.953  0.00  0.00    +0.000 A 
ATOM     10  C   UNL     1       2.577   7.185  18.941  0.00  0.00    +0.000 A 
ENDROOT
BRANCH   1  17
ATOM     11  C   UNL     1       3.064   3.572  17.019  0.00  0.00    +0.000 C 
ATOM     12  C   UNL     1       4.188   4.574  16.921  0.00  0.00    +0.000 A 
ATOM     13  C   UNL     1       5.114   4.395  15.870  0.00  0.00    +0.000 A 
ATOM     14  C   UNL     1       6.197   5.259  15.705  0.00  0.00    +0.000 A 
ATOM     15  C   UNL     1       6.406   6.273  16.630  0.00  0.00    +0.000 A 
ATOM     16  C   UNL     1       5.520   6.427  17.701  0.00  0.00    +0.000 A 
ATOM     17  C   UNL     1       4.346   5.650  17.836  0.00  0.00    +0.000 A 
BRANCH  14  18
ATOM     18  C   UNL     1       7.093   5.095  14.599  0.00  0.00    +0.000 C 
ATOM     19  N   UNL     1       7.831   4.966  13.716  0.00  0.00    +0.000 NA
ENDBRANCH  14  18
ENDBRANCH   1  17
BRANCH   7  20
ATOM     20  S   UNL     1       0.309  11.150  19.473  0.00  0.00    +0.000 S 
ATOM     21  O   UNL     1       0.956  12.109  18.600  0.00  0.00    +0.000 OA
ATOM     22  O   UNL     1      -1.125  10.961  19.408  0.00  0.00    +0.000 OA
BRANCH  20  23
ATOM     23  N   UNL     1       0.765  11.596  21.031  0.00  0.00    +0.000 N 
ATOM     24  C   UNL     1      -0.352  11.882  21.851  0.00  0.00    +0.000 A 
ATOM     25  N   UNL     1      -0.999  10.938  22.482  0.00  0.00    +0.000 NA
ATOM     26  C   UNL     1      -1.926  11.560  23.307  0.00  0.00    +0.000 A 
ATOM     27  N   UNL     1      -2.045  12.889  23.314  0.00  0.00    +0.000 NA
ATOM     28  S   UNL     1      -0.881  13.457  22.253  0.00  0.00    +0.000 S 
ATOM     29  H   UNL     1       1.421  12.364  20.936  0.00  0.00    +0.000 HD
ENDBRANCH  20  23
ENDBRANCH   7  20
TORSDOF 4
ENDMDL
MODEL 7
REMARK VINA RESULT:      -8.4      1.508      1.789
REMARK  Name = 
REMARK  5 active torsions:
REMARK  status: ('A' for Active; 'I' for Inactive)
REMARK    1  A    between atoms: C_1  and  C_2
REMARK    2  A    between atoms: C_4  and  C_5
REMARK    3  A    between atoms: C_9  and  C_10
REMARK    4  A    between atoms: C_16  and  S_17
REMARK    5  A    between atoms: S_17  and  N_20
REMARK                            x       y       z     vdW  Elec       q    Type
REMARK                         _______ _______ _______ _____ _____    ______ ____
ROOT
ATOM      1  C   UNL     1       3.742   4.486  19.060  0.00  0.00    +0.000 A 
ATOM      2  N   UNL     1       3.726   3.292  19.710  0.00  0.00    +0.000 NA
ATOM      3  C   UNL     1       2.929   3.150  20.785  0.00  0.00    +0.000 A 
ATOM      4  C   UNL     1       2.158   4.168  21.306  0.00  0.00    +0.000 A 
ATOM      5  C   UNL     1       2.174   5.412  20.678  0.00  0.00    +0.000 A 
ATOM      6  C   UNL     1       1.432   6.481  21.215  0.00  0.00    +0.000 A 
ATOM      7  C   UNL     1       1.438   7.728  20.588  0.00  0.00    +0.000 A 
ATOM      8  C   UNL     1       2.150   7.921  19.413  0.00  0.00    +0.000 A 
ATOM      9  C   UNL     1       2.854   6.855  18.859  0.00  0.00    +0.000 A 
ATOM     10  C   UNL     1       2.946   5.589  19.499  0.00  0.00    +0.000 A 
ENDROOT
BRANCH   1  17
ATOM     11  C   UNL     1       3.061   3.263  16.326  0.00  0.00    +0.000 C 
ATOM     12  C   UNL     1       4.337   4.022  16.601  0.00  0.00    +0.000 A 
ATOM     13  C   UNL     1       5.220   4.203  15.514  0.00  0.00    +0.000 A 
ATOM     14  C   UNL     1       6.431   4.876  15.671  0.00  0.00    +0.000 A 
ATOM     15  C   UNL     1       6.807   5.318  16.933  0.00  0.00    +0.000 A 
ATOM     16  C   UNL     1       5.959   5.099  18.023  0.00  0.00    +0.000 A 
ATOM     17  C   UNL     1       4.672   4.530  17.886  0.00  0.00    +0.000 A 
BRANCH  14  18
ATOM     18  C   UNL     1       7.288   5.100  14.543  0.00  0.00    +0.000 C 
ATOM     19  N   UNL     1       7.974   5.297  13.631  0.00  0.00    +0.000 NA
ENDBRANCH  14  18
ENDBRANCH   1  17
BRANCH   7  20
ATOM     20  S   UNL     1       0.617   9.114  21.316  0.00  0.00    +0.000 S 
ATOM     21  O   UNL     1      -0.793   8.793  21.411  0.00  0.00    +0.000 OA
ATOM     22  O   UNL     1       1.348   9.530  22.495  0.00  0.00    +0.000 OA
BRANCH  20  23
ATOM     23  N   UNL     1       0.719  10.298  20.123  0.00  0.00    +0.000 N 
ATOM     24  C   UNL     1      -0.546  10.854  19.816  0.00  0.00    +0.000 A 
ATOM     25  N   UNL     1      -1.054  11.831  20.518  0.00  0.00    +0.000 NA
ATOM     26  C   UNL     1      -2.212  12.240  19.870  0.00  0.00    +0.000 A 
ATOM     27  N   UNL     1      -2.624  11.622  18.761  0.00  0.00    +0.000 NA
ATOM     28  S   UNL     1      -1.467  10.457  18.431  0.00  0.00    +0.000 S 
ATOM     29  H   UNL     1       1.194   9.878  19.332  0.00  0.00    +0.000 HD
ENDBRANCH  20  23
ENDBRANCH   7  20
TORSDOF 4
ENDMDL
MODEL 8
REMARK VINA RESULT:      -8.3      2.214      2.547
REMARK  Name = 
REMARK  5 active torsions:
REMARK  status: ('A' for Active; 'I' for Inactive)
REMARK    1  A    between atoms: C_1  and  C_2
REMARK    2  A    between atoms: C_4  and  C_5
REMARK    3  A    between atoms: C_9  and  C_10
REMARK    4  A    between atoms: C_16  and  S_17
REMARK    5  A    between atoms: S_17  and  N_20
REMARK                            x       y       z     vdW  Elec       q    Type
REMARK                         _______ _______ _______ _____ _____    ______ ____
ROOT
ATOM      1  C   UNL     1       3.775   4.349  19.071  0.00  0.00    +0.000 A 
ATOM      2  N   UNL     1       3.761   3.140  19.692  0.00  0.00    +0.000 NA
ATOM      3  C   UNL     1       2.971   2.975  20.770  0.00  0.00    +0.000 A 
ATOM      4  C   UNL     1       2.208   3.983  21.321  0.00  0.00    +0.000 A 
ATOM      5  C   UNL     1       2.223   5.241  20.722  0.00  0.00    +0.000 A 
ATOM      6  C   UNL     1       1.488   6.299  21.290  0.00  0.00    +0.000 A 
ATOM      7  C   UNL     1       1.494   7.562  20.692  0.00  0.00    +0.000 A 
ATOM      8  C   UNL     1       2.197   7.779  19.516  0.00  0.00    +0.000 A 
ATOM      9  C   UNL     1       2.893   6.724  18.932  0.00  0.00    +0.000 A 
ATOM     10  C   UNL     1       2.986   5.444  19.541  0.00  0.00    +0.000 A 
ENDROOT
BRANCH   1  17
ATOM     11  C   UNL     1       3.018   3.309  16.281  0.00  0.00    +0.000 C 
ATOM     12  C   UNL     1       4.328   3.996  16.583  0.00  0.00    +0.000 A 
ATOM     13  C   UNL     1       5.208   4.199  15.498  0.00  0.00    +0.000 A 
ATOM     14  C   UNL     1       6.450   4.809  15.678  0.00  0.00    +0.000 A 
ATOM     15  C   UNL     1       6.855   5.164  16.958  0.00  0.00    +0.000 A 
ATOM     16  C   UNL     1       6.008   4.922  18.044  0.00  0.00    +0.000 A 
ATOM     17  C   UNL     1       4.696   4.417  17.890  0.00  0.00    +0.000 A 
BRANCH  14  18
ATOM     18  C   UNL     1       7.305   5.058  14.555  0.00  0.00    +0.000 C 
ATOM     19  N   UNL     1       7.983   5.254  13.637  0.00  0.00    +0.000 NA
ENDBRANCH  14  18
ENDBRANCH   1  17
BRANCH   7  20
ATOM     20  S   UNL     1       0.683   8.933  21.459  0.00  0.00    +0.000 S 
ATOM     21  O   UNL     1      -0.720   8.597  21.596  0.00  0.00    +0.000 OA
ATOM     22  O   UNL     1       1.448   9.345  22.617  0.00  0.00    +0.000 OA
BRANCH  20  23
ATOM     23  N   UNL     1       0.735  10.128  20.274  0.00  0.00    +0.000 N 
ATOM     24  C   UNL     1       0.153  11.340  20.716  0.00  0.00    +0.000 A 
ATOM     25  N   UNL     1       0.833  12.216  21.405  0.00  0.00    +0.000 NA
ATOM     26  C   UNL     1       0.030  13.341  21.541  0.00  0.00    +0.000 A 
ATOM     27  N   UNL     1      -1.206  13.357  21.040  0.00  0.00    +0.000 NA
ATOM     28  S   UNL     1      -1.408  11.881  20.275  0.00  0.00    +0.000 S 
ATOM     29  H   UNL     1       0.306   9.736  19.443  0.00  0.00    +0.000 HD
ENDBRANCH  20  23
ENDBRANCH   7  20
TORSDOF 4
ENDMDL
MODEL 9
REMARK VINA RESULT:      -8.2      1.015      1.156
REMARK  Name = 
REMARK  5 active torsions:
REMARK  status: ('A' for Active; 'I' for Inactive)
REMARK    1  A    between atoms: C_1  and  C_2
REMARK    2  A    between atoms: C_4  and  C_5
REMARK    3  A    between atoms: C_9  and  C_10
REMARK    4  A    between atoms: C_16  and  S_17
REMARK    5  A    between atoms: S_17  and  N_20
REMARK                            x       y       z     vdW  Elec       q    Type
REMARK                         _______ _______ _______ _____ _____    ______ ____
ROOT
ATOM      1  C   UNL     1       2.668   6.661  19.024  0.00  0.00    +0.000 A 
ATOM      2  N   UNL     1       2.444   5.859  20.098  0.00  0.00    +0.000 NA
ATOM      3  C   UNL     1       1.643   6.304  21.084  0.00  0.00    +0.000 A 
ATOM      4  C   UNL     1       1.072   7.559  21.097  0.00  0.00    +0.000 A 
ATOM      5  C   UNL     1       1.306   8.416  20.023  0.00  0.00    +0.000 A 
ATOM      6  C   UNL     1       0.772   9.718  20.033  0.00  0.00    +0.000 A 
ATOM      7  C   UNL     1       0.997  10.580  18.957  0.00  0.00    +0.000 A 
ATOM      8  C   UNL     1       1.722  10.152  17.854  0.00  0.00    +0.000 A 
ATOM      9  C   UNL     1       2.218   8.852  17.825  0.00  0.00    +0.000 A 
ATOM     10  C   UNL     1       2.087   7.963  18.927  0.00  0.00    +0.000 A 
ENDROOT
BRANCH   1  17
ATOM     11  C   UNL     1       2.231   3.882  17.794  0.00  0.00    +0.000 C 
ATOM     12  C   UNL     1       3.349   4.806  17.377  0.00  0.00    +0.000 A 
ATOM     13  C   UNL     1       4.190   4.363  16.333  0.00  0.00    +0.000 A 
ATOM     14  C   UNL     1       5.262   5.138  15.889  0.00  0.00    +0.000 A 
ATOM     15  C   UNL     1       5.546   6.337  16.529  0.00  0.00    +0.000 A 
ATOM     16  C   UNL     1       4.746   6.760  17.594  0.00  0.00    +0.000 A 
ATOM     17  C   UNL     1       3.582   6.064  17.996  0.00  0.00    +0.000 A 
BRANCH  14  18
ATOM     18  C   UNL     1       6.070   4.696  14.791  0.00  0.00    +0.000 C 
ATOM     19  N   UNL     1       6.730   4.327  13.914  0.00  0.00    +0.000 NA
ENDBRANCH  14  18
ENDBRANCH   1  17
BRANCH   7  20
ATOM     20  S   UNL     1       0.444  12.258  19.007  0.00  0.00    +0.000 S 
ATOM     21  O   UNL     1      -0.396  12.412  20.178  0.00  0.00    +0.000 OA
ATOM     22  O   UNL     1       1.579  13.135  18.807  0.00  0.00    +0.000 OA
BRANCH  20  23
ATOM     23  N   UNL     1      -0.607  12.362  17.696  0.00  0.00    +0.000 N 
ATOM     24  C   UNL     1      -1.769  11.576  17.882  0.00  0.00    +0.000 A 
ATOM     25  N   UNL     1      -2.802  12.025  18.542  0.00  0.00    +0.000 NA
ATOM     26  C   UNL     1      -3.813  11.083  18.408  0.00  0.00    +0.000 A 
ATOM     27  N   UNL     1      -3.603   9.953  17.732  0.00  0.00    +0.000 NA
ATOM     28  S   UNL     1      -2.037  10.056  17.147  0.00  0.00    +0.000 S 
ATOM     29  H   UNL     1      -0.069  12.125  16.869  0.00  0.00    +0.000 HD
ENDBRANCH  20  23
ENDBRANCH   7  20
TORSDOF 4
ENDMDL
