MODEL 1
REMARK VINA RESULT:      -7.4      0.000      0.000
REMARK  Name = 
REMARK  9 active torsions:
REMARK  status: ('A' for Active; 'I' for Inactive)
REMARK    1  A    between atoms: C_2  and  C_3
REMARK    2  A    between atoms: C_8  and  C_9
REMARK    3  A    between atoms: C_9  and  N_10
REMARK    4  A    between atoms: C_11  and  C_13
REMARK    5  A    between atoms: C_16  and  C_17
REMARK    6  A    between atoms: C_17  and  C_18
REMARK    7  A    between atoms: C_18  and  N_19
REMARK    8  A    between atoms: N_19  and  C_20
REMARK    9  A    between atoms: C_20  and  C_21
REMARK                            x       y       z     vdW  Elec       q    Type
REMARK                         _______ _______ _______ _____ _____    ______ ____
ROOT
ATOM      1  C   UNL     1       2.323   6.323  19.163  0.00  0.00    +0.000 A 
ATOM      2  C   UNL     1       3.134   5.983  20.230  0.00  0.00    +0.000 A 
ATOM      3  S   UNL     1       2.761   4.413  20.790  0.00  0.00    +0.000 S 
ATOM      4  C   UNL     1       1.563   4.263  19.562  0.00  0.00    +0.000 A 
ATOM      5  N   UNL     1       1.410   5.323  18.793  0.00  0.00    +0.000 NA
ENDROOT
BRANCH   1   7
ATOM      6  N   UNL     1       1.592   8.574  19.129  0.00  0.00    +0.000 N 
ATOM      7  C   UNL     1       2.363   7.628  18.488  0.00  0.00    +0.000 C 
ATOM      8  O   UNL     1       3.037   7.853  17.489  0.00  0.00    +0.000 OA
ATOM      9  H   UNL     1       1.076   8.211  19.924  0.00  0.00    +0.000 HD
BRANCH   6  10
ATOM     10  C   UNL     1       1.467   9.947  18.678  0.00  0.00    +0.000 C 
BRANCH  10  16
ATOM     11  C   UNL     1      -0.456  11.536  19.477  0.00  0.00    +0.000 A 
ATOM     12  C   UNL     1      -1.790  11.980  19.346  0.00  0.00    +0.000 A 
ATOM     13  C   UNL     1      -2.639  11.412  18.403  0.00  0.00    +0.000 A 
ATOM     14  C   UNL     1      -2.165  10.393  17.589  0.00  0.00    +0.000 A 
ATOM     15  C   UNL     1      -0.841   9.953  17.704  0.00  0.00    +0.000 A 
ATOM     16  C   UNL     1       0.052  10.519  18.636  0.00  0.00    +0.000 A 
BRANCH  11  18
ATOM     17  N   UNL     1       0.941  12.683  21.326  0.00  0.00    +0.000 NA
ATOM     18  C   UNL     1       0.325  12.174  20.504  0.00  0.00    +0.000 C 
ENDBRANCH  11  18
ENDBRANCH  10  16
ENDBRANCH   6  10
ENDBRANCH   1   7
BRANCH   4  19
ATOM     19  C   UNL     1       0.797   2.977  19.428  0.00  0.00    +0.000 C 
BRANCH  19  20
ATOM     20  C   UNL     1       1.425   2.034  18.394  0.00  0.00    +0.000 C 
BRANCH  20  21
ATOM     21  N   UNL     1       2.320   2.729  17.459  0.00  0.00    +0.000 NA
ATOM     22  H   UNL     1       2.254   3.735  17.619  0.00  0.00    +0.000 HD
BRANCH  21  23
ATOM     23  C   UNL     1       3.703   2.322  17.717  0.00  0.00    +0.000 C 
BRANCH  23  24
ATOM     24  C   UNL     1       4.638   3.481  17.686  0.00  0.00    +0.000 A 
ATOM     25  N   UNL     1       4.576   4.512  16.867  0.00  0.00    +0.000 NA
ATOM     26  C   UNL     1       5.595   5.347  17.249  0.00  0.00    +0.000 A 
ATOM     27  C   UNL     1       5.973   6.593  16.728  0.00  0.00    +0.000 A 
ATOM     28  C   UNL     1       7.058   7.261  17.306  0.00  0.00    +0.000 A 
ATOM     29  C   UNL     1       7.753   6.700  18.381  0.00  0.00    +0.000 A 
ATOM     30  C   UNL     1       7.391   5.456  18.914  0.00  0.00    +0.000 A 
ATOM     31  C   UNL     1       6.306   4.812  18.318  0.00  0.00    +0.000 A 
ATOM     32  N   UNL     1       5.687   3.615  18.565  0.00  0.00    +0.000 N 
ATOM     33  H   UNL     1       5.937   2.931  19.266  0.00  0.00    +0.000 HD
ENDBRANCH  23  24
ENDBRANCH  21  23
ENDBRANCH  20  21
ENDBRANCH  19  20
ENDBRANCH   4  19
TORSDOF 9
ENDMDL
MODEL 2
REMARK VINA RESULT:      -7.4      0.768      1.354
REMARK  Name = 
REMARK  9 active torsions:
REMARK  status: ('A' for Active; 'I' for Inactive)
REMARK    1  A    between atoms: C_2  and  C_3
REMARK    2  A    between atoms: C_8  and  C_9
REMARK    3  A    between atoms: C_9  and  N_10
REMARK    4  A    between atoms: C_11  and  C_13
REMARK    5  A    between atoms: C_16  and  C_17
REMARK    6  A    between atoms: C_17  and  C_18
REMARK    7  A    between atoms: C_18  and  N_19
REMARK    8  A    between atoms: N_19  and  C_20
REMARK    9  A    between atoms: C_20  and  C_21
REMARK                            x       y       z     vdW  Elec       q    Type
REMARK                         _______ _______ _______ _____ _____    ______ ____
ROOT
ATOM      1  C   UNL     1       2.133   5.989  19.268  0.00  0.00    +0.000 A 
ATOM      2  C   UNL     1       2.154   5.747  20.630  0.00  0.00    +0.000 A 
ATOM      3  S   UNL     1       1.825   4.102  20.951  0.00  0.00    +0.000 S 
ATOM      4  C   UNL     1       1.704   3.799  19.260  0.00  0.00    +0.000 A 
ATOM      5  N   UNL     1       1.861   4.855  18.487  0.00  0.00    +0.000 NA
ENDROOT
BRANCH   1   7
ATOM      6  N   UNL     1       1.616   8.298  19.323  0.00  0.00    +0.000 N 
ATOM      7  C   UNL     1       2.331   7.316  18.670  0.00  0.00    +0.000 C 
ATOM      8  O   UNL     1       3.079   7.527  17.721  0.00  0.00    +0.000 OA
ATOM      9  H   UNL     1       1.025   7.945  20.068  0.00  0.00    +0.000 HD
BRANCH   6  10
ATOM     10  C   UNL     1       1.643   9.698  18.943  0.00  0.00    +0.000 C 
BRANCH  10  16
ATOM     11  C   UNL     1      -0.178  11.511  19.448  0.00  0.00    +0.000 A 
ATOM     12  C   UNL     1      -1.460  12.043  19.186  0.00  0.00    +0.000 A 
ATOM     13  C   UNL     1      -2.299  11.448  18.252  0.00  0.00    +0.000 A 
ATOM     14  C   UNL     1      -1.869  10.313  17.577  0.00  0.00    +0.000 A 
ATOM     15  C   UNL     1      -0.597   9.784  17.824  0.00  0.00    +0.000 A 
ATOM     16  C   UNL     1       0.287  10.373  18.751  0.00  0.00    +0.000 A 
BRANCH  11  18
ATOM     17  N   UNL     1       1.214  12.724  21.258  0.00  0.00    +0.000 NA
ATOM     18  C   UNL     1       0.594  12.190  20.455  0.00  0.00    +0.000 C 
ENDBRANCH  11  18
ENDBRANCH  10  16
ENDBRANCH   6  10
ENDBRANCH   1   7
BRANCH   4  19
ATOM     19  C   UNL     1       1.452   2.399  18.775  0.00  0.00    +0.000 C 
BRANCH  19  20
ATOM     20  C   UNL     1       2.517   1.931  17.776  0.00  0.00    +0.000 C 
BRANCH  20  21
ATOM     21  N   UNL     1       3.857   2.445  18.089  0.00  0.00    +0.000 NA
ATOM     22  H   UNL     1       4.487   1.658  18.254  0.00  0.00    +0.000 HD
BRANCH  21  23
ATOM     23  C   UNL     1       4.369   3.198  16.941  0.00  0.00    +0.000 C 
BRANCH  23  24
ATOM     24  C   UNL     1       5.288   4.292  17.360  0.00  0.00    +0.000 A 
ATOM     25  N   UNL     1       6.184   4.233  18.325  0.00  0.00    +0.000 NA
ATOM     26  C   UNL     1       6.830   5.444  18.302  0.00  0.00    +0.000 A 
ATOM     27  C   UNL     1       7.882   5.910  19.102  0.00  0.00    +0.000 A 
ATOM     28  C   UNL     1       8.380   7.198  18.873  0.00  0.00    +0.000 A 
ATOM     29  C   UNL     1       7.841   8.004  17.866  0.00  0.00    +0.000 A 
ATOM     30  C   UNL     1       6.789   7.555  17.058  0.00  0.00    +0.000 A 
ATOM     31  C   UNL     1       6.311   6.268  17.309  0.00  0.00    +0.000 A 
ATOM     32  N   UNL     1       5.319   5.517  16.735  0.00  0.00    +0.000 N 
ATOM     33  H   UNL     1       4.703   5.792  15.983  0.00  0.00    +0.000 HD
ENDBRANCH  23  24
ENDBRANCH  21  23
ENDBRANCH  20  21
ENDBRANCH  19  20
ENDBRANCH   4  19
TORSDOF 9
ENDMDL
MODEL 3
REMARK VINA RESULT:      -7.2      3.596     10.280
REMARK  Name = 
REMARK  9 active torsions:
REMARK  status: ('A' for Active; 'I' for Inactive)
REMARK    1  A    between atoms: C_2  and  C_3
REMARK    2  A    between atoms: C_8  and  C_9
REMARK    3  A    between atoms: C_9  and  N_10
REMARK    4  A    between atoms: C_11  and  C_13
REMARK    5  A    between atoms: C_16  and  C_17
REMARK    6  A    between atoms: C_17  and  C_18
REMARK    7  A    between atoms: C_18  and  N_19
REMARK    8  A    between atoms: N_19  and  C_20
REMARK    9  A    between atoms: C_20  and  C_21
REMARK                            x       y       z     vdW  Elec       q    Type
REMARK                         _______ _______ _______ _____ _____    ______ ____
ROOT
ATOM      1  C   UNL     1       1.104   9.180  19.455  0.00  0.00    +0.000 A 
ATOM      2  C   UNL     1       1.088   9.498  20.801  0.00  0.00    +0.000 A 
ATOM      3  S   UNL     1      -0.141  10.638  21.133  0.00  0.00    +0.000 S 
ATOM      4  C   UNL     1      -0.601  10.619  19.473  0.00  0.00    +0.000 A 
ATOM      5  N   UNL     1       0.128   9.844  18.695  0.00  0.00    +0.000 NA
ENDROOT
BRANCH   1   7
ATOM      6  N   UNL     1       2.281   7.132  19.603  0.00  0.00    +0.000 N 
ATOM      7  C   UNL     1       2.076   8.264  18.843  0.00  0.00    +0.000 C 
ATOM      8  O   UNL     1       2.613   8.471  17.760  0.00  0.00    +0.000 OA
ATOM      9  H   UNL     1       1.780   7.135  20.485  0.00  0.00    +0.000 HD
BRANCH   6  10
ATOM     10  C   UNL     1       3.182   6.060  19.221  0.00  0.00    +0.000 C 
BRANCH  10  16
ATOM     11  C   UNL     1       2.911   3.746  18.023  0.00  0.00    +0.000 A 
ATOM     12  C   UNL     1       2.246   2.504  17.930  0.00  0.00    +0.000 A 
ATOM     13  C   UNL     1       1.209   2.186  18.798  0.00  0.00    +0.000 A 
ATOM     14  C   UNL     1       0.823   3.108  19.762  0.00  0.00    +0.000 A 
ATOM     15  C   UNL     1       1.482   4.338  19.868  0.00  0.00    +0.000 A 
ATOM     16  C   UNL     1       2.550   4.686  19.016  0.00  0.00    +0.000 A 
BRANCH  11  18
ATOM     17  N   UNL     1       4.772   4.171  16.279  0.00  0.00    +0.000 NA
ATOM     18  C   UNL     1       3.950   3.982  17.055  0.00  0.00    +0.000 C 
ENDBRANCH  11  18
ENDBRANCH  10  16
ENDBRANCH   6  10
ENDBRANCH   1   7
BRANCH   4  19
ATOM     19  C   UNL     1      -1.774  11.443  19.022  0.00  0.00    +0.000 C 
BRANCH  19  20
ATOM     20  C   UNL     1      -2.509  10.805  17.837  0.00  0.00    +0.000 C 
BRANCH  20  21
ATOM     21  N   UNL     1      -3.070  11.798  16.912  0.00  0.00    +0.000 NA
ATOM     22  H   UNL     1      -2.569  11.747  16.023  0.00  0.00    +0.000 HD
BRANCH  21  23
ATOM     23  C   UNL     1      -4.478  11.482  16.654  0.00  0.00    +0.000 C 
BRANCH  23  24
ATOM     24  C   UNL     1      -5.313  11.625  17.878  0.00  0.00    +0.000 A 
ATOM     25  N   UNL     1      -6.117  10.712  18.386  0.00  0.00    +0.000 NA
ATOM     26  C   UNL     1      -6.619  11.264  19.537  0.00  0.00    +0.000 A 
ATOM     27  C   UNL     1      -7.507  10.719  20.475  0.00  0.00    +0.000 A 
ATOM     28  C   UNL     1      -7.866  11.490  21.587  0.00  0.00    +0.000 A 
ATOM     29  C   UNL     1      -7.349  12.777  21.760  0.00  0.00    +0.000 A 
ATOM     30  C   UNL     1      -6.462  13.338  20.834  0.00  0.00    +0.000 A 
ATOM     31  C   UNL     1      -6.122  12.548  19.734  0.00  0.00    +0.000 A 
ATOM     32  N   UNL     1      -5.306  12.760  18.654  0.00  0.00    +0.000 N 
ATOM     33  H   UNL     1      -4.780  13.596  18.442  0.00  0.00    +0.000 HD
ENDBRANCH  23  24
ENDBRANCH  21  23
ENDBRANCH  20  21
ENDBRANCH  19  20
ENDBRANCH   4  19
TORSDOF 9
ENDMDL
MODEL 4
REMARK VINA RESULT:      -7.2      2.466      3.240
REMARK  Name = 
REMARK  9 active torsions:
REMARK  status: ('A' for Active; 'I' for Inactive)
REMARK    1  A    between atoms: C_2  and  C_3
REMARK    2  A    between atoms: C_8  and  C_9
REMARK    3  A    between atoms: C_9  and  N_10
REMARK    4  A    between atoms: C_11  and  C_13
REMARK    5  A    between atoms: C_16  and  C_17
REMARK    6  A    between atoms: C_17  and  C_18
REMARK    7  A    between atoms: C_18  and  N_19
REMARK    8  A    between atoms: N_19  and  C_20
REMARK    9  A    between atoms: C_20  and  C_21
REMARK                            x       y       z     vdW  Elec       q    Type
REMARK                         _______ _______ _______ _____ _____    ______ ____
ROOT
ATOM      1  C   UNL     1       1.943   6.555  19.987  0.00  0.00    +0.000 A 
ATOM      2  C   UNL     1       1.136   5.587  20.556  0.00  0.00    +0.000 A 
ATOM      3  S   UNL     1       1.697   4.025  20.149  0.00  0.00    +0.000 S 
ATOM      4  C   UNL     1       2.999   4.726  19.265  0.00  0.00    +0.000 A 
ATOM      5  N   UNL     1       3.012   6.043  19.233  0.00  0.00    +0.000 NA
ENDROOT
BRANCH   1   7
ATOM      6  N   UNL     1       1.656   8.629  18.882  0.00  0.00    +0.000 N 
ATOM      7  C   UNL     1       1.699   7.999  20.108  0.00  0.00    +0.000 C 
ATOM      8  O   UNL     1       1.518   8.568  21.179  0.00  0.00    +0.000 OA
ATOM      9  H   UNL     1       1.856   8.014  18.099  0.00  0.00    +0.000 HD
BRANCH   6  10
ATOM     10  C   UNL     1       1.417  10.050  18.717  0.00  0.00    +0.000 C 
BRANCH  10  16
ATOM     11  C   UNL     1      -0.688  11.341  19.592  0.00  0.00    +0.000 A 
ATOM     12  C   UNL     1      -2.052  11.672  19.441  0.00  0.00    +0.000 A 
ATOM     13  C   UNL     1      -2.798  11.151  18.390  0.00  0.00    +0.000 A 
ATOM     14  C   UNL     1      -2.189  10.290  17.486  0.00  0.00    +0.000 A 
ATOM     15  C   UNL     1      -0.835   9.965  17.623  0.00  0.00    +0.000 A 
ATOM     16  C   UNL     1      -0.045  10.489  18.665  0.00  0.00    +0.000 A 
BRANCH  11  18
ATOM     17  N   UNL     1       0.511  12.363  21.642  0.00  0.00    +0.000 NA
ATOM     18  C   UNL     1      -0.020  11.914  20.731  0.00  0.00    +0.000 C 
ENDBRANCH  11  18
ENDBRANCH  10  16
ENDBRANCH   6  10
ENDBRANCH   1   7
BRANCH   4  19
ATOM     19  C   UNL     1       4.018   3.832  18.618  0.00  0.00    +0.000 C 
BRANCH  19  20
ATOM     20  C   UNL     1       5.378   3.897  19.324  0.00  0.00    +0.000 C 
BRANCH  20  21
ATOM     21  N   UNL     1       6.504   3.998  18.386  0.00  0.00    +0.000 NA
ATOM     22  H   UNL     1       6.462   3.217  17.730  0.00  0.00    +0.000 HD
BRANCH  21  23
ATOM     23  C   UNL     1       6.386   5.239  17.617  0.00  0.00    +0.000 C 
BRANCH  23  24
ATOM     24  C   UNL     1       6.516   5.000  16.153  0.00  0.00    +0.000 A 
ATOM     25  N   UNL     1       7.407   5.545  15.349  0.00  0.00    +0.000 NA
ATOM     26  C   UNL     1       7.183   4.982  14.117  0.00  0.00    +0.000 A 
ATOM     27  C   UNL     1       7.855   5.191  12.905  0.00  0.00    +0.000 A 
ATOM     28  C   UNL     1       7.437   4.481  11.774  0.00  0.00    +0.000 A 
ATOM     29  C   UNL     1       6.369   3.581  11.850  0.00  0.00    +0.000 A 
ATOM     30  C   UNL     1       5.685   3.361  13.052  0.00  0.00    +0.000 A 
ATOM     31  C   UNL     1       6.124   4.083  14.164  0.00  0.00    +0.000 A 
ATOM     32  N   UNL     1       5.705   4.126  15.467  0.00  0.00    +0.000 N 
ATOM     33  H   UNL     1       4.937   3.614  15.879  0.00  0.00    +0.000 HD
ENDBRANCH  23  24
ENDBRANCH  21  23
ENDBRANCH  20  21
ENDBRANCH  19  20
ENDBRANCH   4  19
TORSDOF 9
ENDMDL
MODEL 5
REMARK VINA RESULT:      -7.2      1.243      1.965
REMARK  Name = 
REMARK  9 active torsions:
REMARK  status: ('A' for Active; 'I' for Inactive)
REMARK    1  A    between atoms: C_2  and  C_3
REMARK    2  A    between atoms: C_8  and  C_9
REMARK    3  A    between atoms: C_9  and  N_10
REMARK    4  A    between atoms: C_11  and  C_13
REMARK    5  A    between atoms: C_16  and  C_17
REMARK    6  A    between atoms: C_17  and  C_18
REMARK    7  A    between atoms: C_18  and  N_19
REMARK    8  A    between atoms: N_19  and  C_20
REMARK    9  A    between atoms: C_20  and  C_21
REMARK                            x       y       z     vdW  Elec       q    Type
REMARK                         _______ _______ _______ _____ _____    ______ ____
ROOT
ATOM      1  C   UNL     1       2.484   6.275  18.824  0.00  0.00    +0.000 A 
ATOM      2  C   UNL     1       2.913   6.030  20.116  0.00  0.00    +0.000 A 
ATOM      3  S   UNL     1       2.626   4.402  20.545  0.00  0.00    +0.000 S 
ATOM      4  C   UNL     1       1.975   4.107  18.977  0.00  0.00    +0.000 A 
ATOM      5  N   UNL     1       1.933   5.155  18.180  0.00  0.00    +0.000 NA
ENDROOT
BRANCH   1   7
ATOM      6  N   UNL     1       1.584   8.457  18.652  0.00  0.00    +0.000 N 
ATOM      7  C   UNL     1       2.547   7.592  18.177  0.00  0.00    +0.000 C 
ATOM      8  O   UNL     1       3.387   7.894  17.337  0.00  0.00    +0.000 OA
ATOM      9  H   UNL     1       0.951   8.034  19.324  0.00  0.00    +0.000 HD
BRANCH   6  10
ATOM     10  C   UNL     1       1.434   9.824  18.191  0.00  0.00    +0.000 C 
BRANCH  10  16
ATOM     11  C   UNL     1      -0.900  10.893  18.713  0.00  0.00    +0.000 A 
ATOM     12  C   UNL     1      -1.686  11.743  19.521  0.00  0.00    +0.000 A 
ATOM     13  C   UNL     1      -1.122  12.430  20.589  0.00  0.00    +0.000 A 
ATOM     14  C   UNL     1       0.232  12.279  20.855  0.00  0.00    +0.000 A 
ATOM     15  C   UNL     1       1.017  11.431  20.066  0.00  0.00    +0.000 A 
ATOM     16  C   UNL     1       0.475  10.706  18.986  0.00  0.00    +0.000 A 
BRANCH  11  18
ATOM     17  N   UNL     1      -2.115   9.744  16.741  0.00  0.00    +0.000 NA
ATOM     18  C   UNL     1      -1.580  10.254  17.617  0.00  0.00    +0.000 C 
ENDBRANCH  11  18
ENDBRANCH  10  16
ENDBRANCH   6  10
ENDBRANCH   1   7
BRANCH   4  19
ATOM     19  C   UNL     1       1.524   2.721  18.612  0.00  0.00    +0.000 C 
BRANCH  19  20
ATOM     20  C   UNL     1       2.557   1.983  17.753  0.00  0.00    +0.000 C 
BRANCH  20  21
ATOM     21  N   UNL     1       3.932   2.440  17.995  0.00  0.00    +0.000 NA
ATOM     22  H   UNL     1       4.527   1.630  18.170  0.00  0.00    +0.000 HD
BRANCH  21  23
ATOM     23  C   UNL     1       4.436   3.119  16.798  0.00  0.00    +0.000 C 
BRANCH  23  24
ATOM     24  C   UNL     1       5.380   4.219  17.139  0.00  0.00    +0.000 A 
ATOM     25  N   UNL     1       5.506   5.365  16.500  0.00  0.00    +0.000 NA
ATOM     26  C   UNL     1       6.442   6.078  17.207  0.00  0.00    +0.000 A 
ATOM     27  C   UNL     1       6.942   7.368  16.978  0.00  0.00    +0.000 A 
ATOM     28  C   UNL     1       7.899   7.883  17.859  0.00  0.00    +0.000 A 
ATOM     29  C   UNL     1       8.349   7.129  18.947  0.00  0.00    +0.000 A 
ATOM     30  C   UNL     1       7.862   5.838  19.191  0.00  0.00    +0.000 A 
ATOM     31  C   UNL     1       6.909   5.349  18.296  0.00  0.00    +0.000 A 
ATOM     32  N   UNL     1       6.229   4.162  18.219  0.00  0.00    +0.000 N 
ATOM     33  H   UNL     1       6.318   3.368  18.837  0.00  0.00    +0.000 HD
ENDBRANCH  23  24
ENDBRANCH  21  23
ENDBRANCH  20  21
ENDBRANCH  19  20
ENDBRANCH   4  19
TORSDOF 9
ENDMDL
MODEL 6
REMARK VINA RESULT:      -7.1      3.034      9.887
REMARK  Name = 
REMARK  9 active torsions:
REMARK  status: ('A' for Active; 'I' for Inactive)
REMARK    1  A    between atoms: C_2  and  C_3
REMARK    2  A    between atoms: C_8  and  C_9
REMARK    3  A    between atoms: C_9  and  N_10
REMARK    4  A    between atoms: C_11  and  C_13
REMARK    5  A    between atoms: C_16  and  C_17
REMARK    6  A    between atoms: C_17  and  C_18
REMARK    7  A    between atoms: C_18  and  N_19
REMARK    8  A    between atoms: N_19  and  C_20
REMARK    9  A    between atoms: C_20  and  C_21
REMARK                            x       y       z     vdW  Elec       q    Type
REMARK                         _______ _______ _______ _____ _____    ______ ____
ROOT
ATOM      1  C   UNL     1       1.890   7.274  20.173  0.00  0.00    +0.000 A 
ATOM      2  C   UNL     1       1.344   7.819  21.321  0.00  0.00    +0.000 A 
ATOM      3  S   UNL     1       0.746   9.389  21.013  0.00  0.00    +0.000 S 
ATOM      4  C   UNL     1       1.219   9.242  19.363  0.00  0.00    +0.000 A 
ATOM      5  N   UNL     1       1.821   8.112  19.049  0.00  0.00    +0.000 NA
ENDROOT
BRANCH   1   7
ATOM      6  N   UNL     1       3.828   6.018  19.655  0.00  0.00    +0.000 N 
ATOM      7  C   UNL     1       2.531   5.953  20.120  0.00  0.00    +0.000 C 
ATOM      8  O   UNL     1       1.984   4.919  20.484  0.00  0.00    +0.000 OA
ATOM      9  H   UNL     1       4.113   6.949  19.370  0.00  0.00    +0.000 HD
BRANCH   6  10
ATOM     10  C   UNL     1       4.690   4.860  19.516  0.00  0.00    +0.000 C 
BRANCH  10  16
ATOM     11  C   UNL     1       4.547   4.062  17.025  0.00  0.00    +0.000 A 
ATOM     12  C   UNL     1       5.185   3.863  15.781  0.00  0.00    +0.000 A 
ATOM     13  C   UNL     1       6.529   4.173  15.614  0.00  0.00    +0.000 A 
ATOM     14  C   UNL     1       7.249   4.678  16.689  0.00  0.00    +0.000 A 
ATOM     15  C   UNL     1       6.623   4.888  17.923  0.00  0.00    +0.000 A 
ATOM     16  C   UNL     1       5.257   4.601  18.123  0.00  0.00    +0.000 A 
BRANCH  11  18
ATOM     17  N   UNL     1       2.056   3.381  17.145  0.00  0.00    +0.000 NA
ATOM     18  C   UNL     1       3.162   3.679  17.094  0.00  0.00    +0.000 C 
ENDBRANCH  11  18
ENDBRANCH  10  16
ENDBRANCH   6  10
ENDBRANCH   1   7
BRANCH   4  19
ATOM     19  C   UNL     1       0.917  10.359  18.404  0.00  0.00    +0.000 C 
BRANCH  19  20
ATOM     20  C   UNL     1      -0.539  10.830  18.503  0.00  0.00    +0.000 C 
BRANCH  20  21
ATOM     21  N   UNL     1      -1.370  10.350  17.391  0.00  0.00    +0.000 NA
ATOM     22  H   UNL     1      -1.951   9.576  17.719  0.00  0.00    +0.000 HD
BRANCH  21  23
ATOM     23  C   UNL     1      -2.262  11.426  16.951  0.00  0.00    +0.000 C 
BRANCH  23  24
ATOM     24  C   UNL     1      -3.525  11.459  17.739  0.00  0.00    +0.000 A 
ATOM     25  N   UNL     1      -4.554  10.647  17.599  0.00  0.00    +0.000 NA
ATOM     26  C   UNL     1      -5.447  11.014  18.575  0.00  0.00    +0.000 A 
ATOM     27  C   UNL     1      -6.701  10.472  18.887  0.00  0.00    +0.000 A 
ATOM     28  C   UNL     1      -7.426  11.025  19.948  0.00  0.00    +0.000 A 
ATOM     29  C   UNL     1      -6.912  12.097  20.684  0.00  0.00    +0.000 A 
ATOM     30  C   UNL     1      -5.662  12.653  20.385  0.00  0.00    +0.000 A 
ATOM     31  C   UNL     1      -4.960  12.082  19.321  0.00  0.00    +0.000 A 
ATOM     32  N   UNL     1      -3.742  12.357  18.758  0.00  0.00    +0.000 N 
ATOM     33  H   UNL     1      -3.097  13.087  19.025  0.00  0.00    +0.000 HD
ENDBRANCH  23  24
ENDBRANCH  21  23
ENDBRANCH  20  21
ENDBRANCH  19  20
ENDBRANCH   4  19
TORSDOF 9
ENDMDL
MODEL 7
REMARK VINA RESULT:      -7.1      1.176      2.183
REMARK  Name = 
REMARK  9 active torsions:
REMARK  status: ('A' for Active; 'I' for Inactive)
REMARK    1  A    between atoms: C_2  and  C_3
REMARK    2  A    between atoms: C_8  and  C_9
REMARK    3  A    between atoms: C_9  and  N_10
REMARK    4  A    between atoms: C_11  and  C_13
REMARK    5  A    between atoms: C_16  and  C_17
REMARK    6  A    between atoms: C_17  and  C_18
REMARK    7  A    between atoms: C_18  and  N_19
REMARK    8  A    between atoms: N_19  and  C_20
REMARK    9  A    between atoms: C_20  and  C_21
REMARK                            x       y       z     vdW  Elec       q    Type
REMARK                         _______ _______ _______ _____ _____    ______ ____
ROOT
ATOM      1  C   UNL     1       2.112   6.225  19.165  0.00  0.00    +0.000 A 
ATOM      2  C   UNL     1       2.307   5.976  20.511  0.00  0.00    +0.000 A 
ATOM      3  S   UNL     1       1.916   4.355  20.884  0.00  0.00    +0.000 S 
ATOM      4  C   UNL     1       1.540   4.068  19.228  0.00  0.00    +0.000 A 
ATOM      5  N   UNL     1       1.658   5.115  18.435  0.00  0.00    +0.000 NA
ENDROOT
BRANCH   1   7
ATOM      6  N   UNL     1       1.537   8.520  19.117  0.00  0.00    +0.000 N 
ATOM      7  C   UNL     1       2.314   7.538  18.538  0.00  0.00    +0.000 C 
ATOM      8  O   UNL     1       3.110   7.739  17.628  0.00  0.00    +0.000 OA
ATOM      9  H   UNL     1       0.912   8.175  19.838  0.00  0.00    +0.000 HD
BRANCH   6  10
ATOM     10  C   UNL     1       1.553   9.908  18.696  0.00  0.00    +0.000 C 
BRANCH  10  16
ATOM     11  C   UNL     1      -0.807  11.010  18.974  0.00  0.00    +0.000 A 
ATOM     12  C   UNL     1      -1.649  11.901  19.675  0.00  0.00    +0.000 A 
ATOM     13  C   UNL     1      -1.169  12.636  20.752  0.00  0.00    +0.000 A 
ATOM     14  C   UNL     1       0.158  12.493  21.134  0.00  0.00    +0.000 A 
ATOM     15  C   UNL     1       0.998  11.605  20.453  0.00  0.00    +0.000 A 
ATOM     16  C   UNL     1       0.540  10.831  19.368  0.00  0.00    +0.000 A 
BRANCH  11  18
ATOM     17  N   UNL     1      -1.880   9.777  16.971  0.00  0.00    +0.000 NA
ATOM     18  C   UNL     1      -1.400  10.323  17.858  0.00  0.00    +0.000 C 
ENDBRANCH  11  18
ENDBRANCH  10  16
ENDBRANCH   6  10
ENDBRANCH   1   7
BRANCH   4  19
ATOM     19  C   UNL     1       1.130   2.690  18.790  0.00  0.00    +0.000 C 
BRANCH  19  20
ATOM     20  C   UNL     1       2.191   2.023  17.907  0.00  0.00    +0.000 C 
BRANCH  20  21
ATOM     21  N   UNL     1       3.261   2.946  17.505  0.00  0.00    +0.000 NA
ATOM     22  H   UNL     1       2.897   3.900  17.507  0.00  0.00    +0.000 HD
BRANCH  21  23
ATOM     23  C   UNL     1       4.352   2.879  18.481  0.00  0.00    +0.000 C 
BRANCH  23  24
ATOM     24  C   UNL     1       5.231   4.079  18.414  0.00  0.00    +0.000 A 
ATOM     25  N   UNL     1       6.301   4.305  19.150  0.00  0.00    +0.000 NA
ATOM     26  C   UNL     1       6.816   5.493  18.695  0.00  0.00    +0.000 A 
ATOM     27  C   UNL     1       7.958   6.190  19.114  0.00  0.00    +0.000 A 
ATOM     28  C   UNL     1       8.281   7.393  18.477  0.00  0.00    +0.000 A 
ATOM     29  C   UNL     1       7.483   7.892  17.443  0.00  0.00    +0.000 A 
ATOM     30  C   UNL     1       6.338   7.209  17.012  0.00  0.00    +0.000 A 
ATOM     31  C   UNL     1       6.039   6.012  17.665  0.00  0.00    +0.000 A 
ATOM     32  N   UNL     1       5.027   5.102  17.518  0.00  0.00    +0.000 N 
ATOM     33  H   UNL     1       4.252   5.150  16.870  0.00  0.00    +0.000 HD
ENDBRANCH  23  24
ENDBRANCH  21  23
ENDBRANCH  20  21
ENDBRANCH  19  20
ENDBRANCH   4  19
TORSDOF 9
ENDMDL
MODEL 8
REMARK VINA RESULT:      -7.0      2.175      4.316
REMARK  Name = 
REMARK  9 active torsions:
REMARK  status: ('A' for Active; 'I' for Inactive)
REMARK    1  A    between atoms: C_2  and  C_3
REMARK    2  A    between atoms: C_8  and  C_9
REMARK    3  A    between atoms: C_9  and  N_10
REMARK    4  A    between atoms: C_11  and  C_13
REMARK    5  A    between atoms: C_16  and  C_17
REMARK    6  A    between atoms: C_17  and  C_18
REMARK    7  A    between atoms: C_18  and  N_19
REMARK    8  A    between atoms: N_19  and  C_20
REMARK    9  A    between atoms: C_20  and  C_21
REMARK                            x       y       z     vdW  Elec       q    Type
REMARK                         _______ _______ _______ _____ _____    ______ ____
ROOT
ATOM      1  C   UNL     1       3.259   6.662  19.188  0.00  0.00    +0.000 A 
ATOM      2  C   UNL     1       3.036   7.230  17.947  0.00  0.00    +0.000 A 
ATOM      3  S   UNL     1       4.460   7.192  17.005  0.00  0.00    +0.000 S 
ATOM      4  C   UNL     1       5.285   6.394  18.290  0.00  0.00    +0.000 A 
ATOM      5  N   UNL     1       4.569   6.191  19.378  0.00  0.00    +0.000 NA
ENDROOT
BRANCH   1   7
ATOM      6  N   UNL     1       1.681   7.813  20.524  0.00  0.00    +0.000 N 
ATOM      7  C   UNL     1       2.245   6.585  20.248  0.00  0.00    +0.000 C 
ATOM      8  O   UNL     1       1.914   5.539  20.795  0.00  0.00    +0.000 OA
ATOM      9  H   UNL     1       2.092   8.579  20.000  0.00  0.00    +0.000 HD
BRANCH   6  10
ATOM     10  C   UNL     1       0.645   8.015  21.519  0.00  0.00    +0.000 C 
BRANCH  10  16
ATOM     11  C   UNL     1      -0.133  10.289  20.477  0.00  0.00    +0.000 A 
ATOM     12  C   UNL     1      -0.725  11.559  20.652  0.00  0.00    +0.000 A 
ATOM     13  C   UNL     1      -1.152  11.977  21.907  0.00  0.00    +0.000 A 
ATOM     14  C   UNL     1      -0.985  11.135  22.997  0.00  0.00    +0.000 A 
ATOM     15  C   UNL     1      -0.408   9.871  22.832  0.00  0.00    +0.000 A 
ATOM     16  C   UNL     1       0.019   9.407  21.571  0.00  0.00    +0.000 A 
BRANCH  11  18
ATOM     17  N   UNL     1       0.648   9.721  18.079  0.00  0.00    +0.000 NA
ATOM     18  C   UNL     1       0.298   9.971  19.141  0.00  0.00    +0.000 C 
ENDBRANCH  11  18
ENDBRANCH  10  16
ENDBRANCH   6  10
ENDBRANCH   1   7
BRANCH   4  19
ATOM     19  C   UNL     1       6.716   5.974  18.103  0.00  0.00    +0.000 C 
BRANCH  19  20
ATOM     20  C   UNL     1       6.974   5.408  16.701  0.00  0.00    +0.000 C 
BRANCH  20  21
ATOM     21  N   UNL     1       6.768   3.956  16.626  0.00  0.00    +0.000 NA
ATOM     22  H   UNL     1       6.739   3.573  17.572  0.00  0.00    +0.000 HD
BRANCH  21  23
ATOM     23  C   UNL     1       5.476   3.681  15.990  0.00  0.00    +0.000 C 
BRANCH  23  24
ATOM     24  C   UNL     1       4.402   3.448  16.994  0.00  0.00    +0.000 A 
ATOM     25  N   UNL     1       3.107   3.610  16.804  0.00  0.00    +0.000 NA
ATOM     26  C   UNL     1       2.512   3.217  17.977  0.00  0.00    +0.000 A 
ATOM     27  C   UNL     1       1.152   3.170  18.316  0.00  0.00    +0.000 A 
ATOM     28  C   UNL     1       0.794   2.718  19.590  0.00  0.00    +0.000 A 
ATOM     29  C   UNL     1       1.770   2.322  20.509  0.00  0.00    +0.000 A 
ATOM     30  C   UNL     1       3.133   2.363  20.189  0.00  0.00    +0.000 A 
ATOM     31  C   UNL     1       3.462   2.819  18.911  0.00  0.00    +0.000 A 
ATOM     32  N   UNL     1       4.658   2.992  18.266  0.00  0.00    +0.000 N 
ATOM     33  H   UNL     1       5.582   2.821  18.638  0.00  0.00    +0.000 HD
ENDBRANCH  23  24
ENDBRANCH  21  23
ENDBRANCH  20  21
ENDBRANCH  19  20
ENDBRANCH   4  19
TORSDOF 9
ENDMDL
MODEL 9
REMARK VINA RESULT:      -7.0      2.613      3.554
REMARK  Name = 
REMARK  9 active torsions:
REMARK  status: ('A' for Active; 'I' for Inactive)
REMARK    1  A    between atoms: C_2  and  C_3
REMARK    2  A    between atoms: C_8  and  C_9
REMARK    3  A    between atoms: C_9  and  N_10
REMARK    4  A    between atoms: C_11  and  C_13
REMARK    5  A    between atoms: C_16  and  C_17
REMARK    6  A    between atoms: C_17  and  C_18
REMARK    7  A    between atoms: C_18  and  N_19
REMARK    8  A    between atoms: N_19  and  C_20
REMARK    9  A    between atoms: C_20  and  C_21
REMARK                            x       y       z     vdW  Elec       q    Type
REMARK                         _______ _______ _______ _____ _____    ______ ____
ROOT
ATOM      1  C   UNL     1       2.381   6.394  19.782  0.00  0.00    +0.000 A 
ATOM      2  C   UNL     1       1.754   5.871  20.898  0.00  0.00    +0.000 A 
ATOM      3  S   UNL     1       2.226   4.248  21.145  0.00  0.00    +0.000 S 
ATOM      4  C   UNL     1       3.262   4.344  19.772  0.00  0.00    +0.000 A 
ATOM      5  N   UNL     1       3.244   5.496  19.133  0.00  0.00    +0.000 NA
ENDROOT
BRANCH   1   7
ATOM      6  N   UNL     1       1.378   8.509  20.133  0.00  0.00    +0.000 N 
ATOM      7  C   UNL     1       2.148   7.753  19.274  0.00  0.00    +0.000 C 
ATOM      8  O   UNL     1       2.619   8.174  18.224  0.00  0.00    +0.000 OA
ATOM      9  H   UNL     1       1.046   7.996  20.944  0.00  0.00    +0.000 HD
BRANCH   6  10
ATOM     10  C   UNL     1       1.010   9.889  19.878  0.00  0.00    +0.000 C 
BRANCH  10  16
ATOM     11  C   UNL     1      -0.821  11.619  20.596  0.00  0.00    +0.000 A 
ATOM     12  C   UNL     1      -1.685  12.120  21.595  0.00  0.00    +0.000 A 
ATOM     13  C   UNL     1      -1.703  11.559  22.866  0.00  0.00    +0.000 A 
ATOM     14  C   UNL     1      -0.855  10.498  23.153  0.00  0.00    +0.000 A 
ATOM     15  C   UNL     1      -0.003   9.988  22.167  0.00  0.00    +0.000 A 
ATOM     16  C   UNL     1       0.029  10.521  20.862  0.00  0.00    +0.000 A 
BRANCH  11  18
ATOM     17  N   UNL     1      -0.891  12.826  18.311  0.00  0.00    +0.000 NA
ATOM     18  C   UNL     1      -0.864  12.293  19.325  0.00  0.00    +0.000 C 
ENDBRANCH  11  18
ENDBRANCH  10  16
ENDBRANCH   6  10
ENDBRANCH   1   7
BRANCH   4  19
ATOM     19  C   UNL     1       4.110   3.159  19.401  0.00  0.00    +0.000 C 
BRANCH  19  20
ATOM     20  C   UNL     1       5.003   3.444  18.187  0.00  0.00    +0.000 C 
BRANCH  20  21
ATOM     21  N   UNL     1       6.248   4.136  18.545  0.00  0.00    +0.000 NA
ATOM     22  H   UNL     1       7.042   3.539  18.306  0.00  0.00    +0.000 HD
BRANCH  21  23
ATOM     23  C   UNL     1       6.361   5.370  17.763  0.00  0.00    +0.000 C 
BRANCH  23  24
ATOM     24  C   UNL     1       6.478   5.094  16.305  0.00  0.00    +0.000 A 
ATOM     25  N   UNL     1       7.398   5.571  15.491  0.00  0.00    +0.000 NA
ATOM     26  C   UNL     1       7.143   4.998  14.270  0.00  0.00    +0.000 A 
ATOM     27  C   UNL     1       7.825   5.144  13.055  0.00  0.00    +0.000 A 
ATOM     28  C   UNL     1       7.367   4.436  11.938  0.00  0.00    +0.000 A 
ATOM     29  C   UNL     1       6.251   3.600  12.031  0.00  0.00    +0.000 A 
ATOM     30  C   UNL     1       5.555   3.443  13.236  0.00  0.00    +0.000 A 
ATOM     31  C   UNL     1       6.034   4.161  14.334  0.00  0.00    +0.000 A 
ATOM     32  N   UNL     1       5.619   4.253  15.636  0.00  0.00    +0.000 N 
ATOM     33  H   UNL     1       4.824   3.794  16.057  0.00  0.00    +0.000 HD
ENDBRANCH  23  24
ENDBRANCH  21  23
ENDBRANCH  20  21
ENDBRANCH  19  20
ENDBRANCH   4  19
TORSDOF 9
ENDMDL
