MODEL 1
REMARK VINA RESULT:      -8.9      0.000      0.000
REMARK  Name = 
REMARK  10 active torsions:
REMARK  status: ('A' for Active; 'I' for Inactive)
REMARK    1  A    between atoms: C_4  and  C_5
REMARK    2  A    between atoms: C_10  and  C_11
REMARK    3  A    between atoms: C_15  and  C_16
REMARK    4  A    between atoms: C_16  and  C_17
REMARK    5  A    between atoms: C_16  and  C_18
REMARK    6  A    between atoms: C_18  and  C_19
REMARK    7  A    between atoms: C_25  and  C_26
REMARK    8  A    between atoms: C_25  and  C_27
REMARK    9  A    between atoms: C_29  and  O_30
REMARK   10  A    between atoms: C_32  and  O_33
REMARK                            x       y       z     vdW  Elec       q    Type
REMARK                         _______ _______ _______ _____ _____    ______ ____
ROOT
ATOM      1  C   UNL     1       1.141   7.976  20.260  0.00  0.00    +0.000 C 
ATOM      2  C   UNL     1       0.270   8.827  20.826  0.00  0.00    +0.000 C 
ATOM      3  C   UNL     1      -0.264   8.702  22.251  0.00  0.00    +0.000 C 
ATOM      4  C   UNL     1      -0.246  10.025  23.028  0.00  0.00    +0.000 C 
ATOM      5  C   UNL     1      -0.899  11.177  22.261  0.00  0.00    +0.000 C 
ATOM      6  C   UNL     1      -0.347  11.306  20.827  0.00  0.00    +0.000 C 
ATOM      7  C   UNL     1       1.110  11.847  20.928  0.00  0.00    +0.000 C 
ATOM      8  C   UNL     1      -0.386   9.956  20.079  0.00  0.00    +0.000 C 
ATOM      9  C   UNL     1      -0.068  10.335  18.631  0.00  0.00    +0.000 C 
ATOM     10  C   UNL     1      -0.690  11.736  18.459  0.00  0.00    +0.000 C 
ATOM     11  C   UNL     1      -1.173  12.209  19.860  0.00  0.00    +0.000 C 
ENDROOT
BRANCH   1  15
ATOM     12  C   UNL     1       2.975   6.410  18.124  0.00  0.00    +0.000 C 
ATOM     13  C   UNL     1       2.290   5.498  18.843  0.00  0.00    +0.000 C 
ATOM     14  C   UNL     1       2.086   5.662  20.285  0.00  0.00    +0.000 C 
ATOM     15  C   UNL     1       1.614   6.766  20.889  0.00  0.00    +0.000 C 
ATOM     16  C   UNL     1       2.444   4.444  21.121  0.00  0.00    +0.000 C 
ATOM     17  C   UNL     1       1.816   3.158  20.570  0.00  0.00    +0.000 C 
ATOM     18  C   UNL     1       2.109   2.984  19.083  0.00  0.00    +0.000 C 
ATOM     19  C   UNL     1       1.709   4.216  18.265  0.00  0.00    +0.000 C 
BRANCH  17  20
ATOM     20  O   UNL     1       0.408   3.134  20.808  0.00  0.00    +0.000 OA
ATOM     21  H   UNL     1       0.256   3.128  21.769  0.00  0.00    +0.000 HD
ENDBRANCH  17  20
BRANCH  19  22
ATOM     22  O   UNL     1       2.127   4.013  16.916  0.00  0.00    +0.000 OA
ATOM     23  H   UNL     1       1.330   4.064  16.361  0.00  0.00    +0.000 HD
ENDBRANCH  19  22
ENDBRANCH   1  15
BRANCH  11  24
ATOM     24  C   UNL     1      -2.739  12.214  20.043  0.00  0.00    +0.000 C 
ATOM     25  C   UNL     1      -3.561  11.811  18.805  0.00  0.00    +0.000 C 
BRANCH  24  26
ATOM     26  C   UNL     1      -3.233  13.585  20.572  0.00  0.00    +0.000 C 
BRANCH  26  27
ATOM     27  C   UNL     1      -4.564  13.500  21.349  0.00  0.00    +0.000 C 
ATOM     28  O   UNL     1      -4.548  12.329  22.188  0.00  0.00    +0.000 OA
ATOM     29  C   UNL     1      -4.224  12.682  23.464  0.00  0.00    +0.000 C 
ATOM     30  O   UNL     1      -4.000  11.911  24.379  0.00  0.00    +0.000 OA
ATOM     31  C   UNL     1      -4.227  14.161  23.527  0.00  0.00    +0.000 C 
ATOM     32  C   UNL     1      -3.627  14.823  24.521  0.00  0.00    +0.000 C 
ATOM     33  C   UNL     1      -4.893  14.668  22.285  0.00  0.00    +0.000 C 
ATOM     34  C   UNL     1      -4.407  16.031  21.783  0.00  0.00    +0.000 C 
ATOM     35  C   UNL     1      -6.421  14.732  22.487  0.00  0.00    +0.000 C 
ENDBRANCH  26  27
ENDBRANCH  24  26
ENDBRANCH  11  24
TORSDOF 6
ENDMDL
MODEL 2
REMARK VINA RESULT:      -8.4      1.101      1.538
REMARK  Name = 
REMARK  10 active torsions:
REMARK  status: ('A' for Active; 'I' for Inactive)
REMARK    1  A    between atoms: C_4  and  C_5
REMARK    2  A    between atoms: C_10  and  C_11
REMARK    3  A    between atoms: C_15  and  C_16
REMARK    4  A    between atoms: C_16  and  C_17
REMARK    5  A    between atoms: C_16  and  C_18
REMARK    6  A    between atoms: C_18  and  C_19
REMARK    7  A    between atoms: C_25  and  C_26
REMARK    8  A    between atoms: C_25  and  C_27
REMARK    9  A    between atoms: C_29  and  O_30
REMARK   10  A    between atoms: C_32  and  O_33
REMARK                            x       y       z     vdW  Elec       q    Type
REMARK                         _______ _______ _______ _____ _____    ______ ____
ROOT
ATOM      1  C   UNL     1       1.266   7.953  20.228  0.00  0.00    +0.000 C 
ATOM      2  C   UNL     1       0.370   8.777  20.795  0.00  0.00    +0.000 C 
ATOM      3  C   UNL     1      -0.179   8.621  22.210  0.00  0.00    +0.000 C 
ATOM      4  C   UNL     1      -0.199   9.932  23.006  0.00  0.00    +0.000 C 
ATOM      5  C   UNL     1      -0.867  11.081  22.247  0.00  0.00    +0.000 C 
ATOM      6  C   UNL     1      -0.300  11.243  20.823  0.00  0.00    +0.000 C 
ATOM      7  C   UNL     1       1.145  11.813  20.949  0.00  0.00    +0.000 C 
ATOM      8  C   UNL     1      -0.300   9.903  20.055  0.00  0.00    +0.000 C 
ATOM      9  C   UNL     1       0.028  10.309  18.617  0.00  0.00    +0.000 C 
ATOM     10  C   UNL     1      -0.621  11.700  18.457  0.00  0.00    +0.000 C 
ATOM     11  C   UNL     1      -1.133  12.142  19.858  0.00  0.00    +0.000 C 
ENDROOT
BRANCH   1  15
ATOM     12  C   UNL     1       2.949   6.330  18.012  0.00  0.00    +0.000 C 
ATOM     13  C   UNL     1       2.294   5.438  18.783  0.00  0.00    +0.000 C 
ATOM     14  C   UNL     1       2.176   5.625  20.231  0.00  0.00    +0.000 C 
ATOM     15  C   UNL     1       1.757   6.744  20.846  0.00  0.00    +0.000 C 
ATOM     16  C   UNL     1       2.564   4.413  21.063  0.00  0.00    +0.000 C 
ATOM     17  C   UNL     1       1.887   3.129  20.568  0.00  0.00    +0.000 C 
ATOM     18  C   UNL     1       2.089   2.931  19.069  0.00  0.00    +0.000 C 
ATOM     19  C   UNL     1       1.661   4.158  18.258  0.00  0.00    +0.000 C 
BRANCH  17  20
ATOM     20  O   UNL     1       0.494   3.131  20.888  0.00  0.00    +0.000 OA
ATOM     21  H   UNL     1       0.125   2.256  20.673  0.00  0.00    +0.000 HD
ENDBRANCH  17  20
BRANCH  19  22
ATOM     22  O   UNL     1       1.997   3.930  16.890  0.00  0.00    +0.000 OA
ATOM     23  H   UNL     1       2.960   3.802  16.852  0.00  0.00    +0.000 HD
ENDBRANCH  19  22
ENDBRANCH   1  15
BRANCH  11  24
ATOM     24  C   UNL     1      -2.701  12.111  20.021  0.00  0.00    +0.000 C 
ATOM     25  C   UNL     1      -3.500  11.757  18.754  0.00  0.00    +0.000 C 
BRANCH  24  26
ATOM     26  C   UNL     1      -3.224  13.445  20.612  0.00  0.00    +0.000 C 
BRANCH  26  27
ATOM     27  C   UNL     1      -3.446  13.394  22.139  0.00  0.00    +0.000 C 
ATOM     28  O   UNL     1      -2.798  14.527  22.748  0.00  0.00    +0.000 OA
ATOM     29  C   UNL     1      -3.716  15.505  22.994  0.00  0.00    +0.000 C 
ATOM     30  O   UNL     1      -3.467  16.632  23.381  0.00  0.00    +0.000 OA
ATOM     31  C   UNL     1      -5.054  14.930  22.733  0.00  0.00    +0.000 C 
ATOM     32  C   UNL     1      -6.128  15.704  22.548  0.00  0.00    +0.000 C 
ATOM     33  C   UNL     1      -4.899  13.444  22.627  0.00  0.00    +0.000 C 
ATOM     34  C   UNL     1      -5.895  12.738  21.703  0.00  0.00    +0.000 C 
ATOM     35  C   UNL     1      -4.977  12.798  24.026  0.00  0.00    +0.000 C 
ENDBRANCH  26  27
ENDBRANCH  24  26
ENDBRANCH  11  24
TORSDOF 6
ENDMDL
MODEL 3
REMARK VINA RESULT:      -8.3      1.396      1.982
REMARK  Name = 
REMARK  10 active torsions:
REMARK  status: ('A' for Active; 'I' for Inactive)
REMARK    1  A    between atoms: C_4  and  C_5
REMARK    2  A    between atoms: C_10  and  C_11
REMARK    3  A    between atoms: C_15  and  C_16
REMARK    4  A    between atoms: C_16  and  C_17
REMARK    5  A    between atoms: C_16  and  C_18
REMARK    6  A    between atoms: C_18  and  C_19
REMARK    7  A    between atoms: C_25  and  C_26
REMARK    8  A    between atoms: C_25  and  C_27
REMARK    9  A    between atoms: C_29  and  O_30
REMARK   10  A    between atoms: C_32  and  O_33
REMARK                            x       y       z     vdW  Elec       q    Type
REMARK                         _______ _______ _______ _____ _____    ______ ____
ROOT
ATOM      1  C   UNL     1       1.412   7.753  20.216  0.00  0.00    +0.000 C 
ATOM      2  C   UNL     1       0.476   8.555  20.749  0.00  0.00    +0.000 C 
ATOM      3  C   UNL     1      -0.168   8.348  22.118  0.00  0.00    +0.000 C 
ATOM      4  C   UNL     1      -0.248   9.631  22.955  0.00  0.00    +0.000 C 
ATOM      5  C   UNL     1      -0.868  10.804  22.192  0.00  0.00    +0.000 C 
ATOM      6  C   UNL     1      -0.207  11.016  20.816  0.00  0.00    +0.000 C 
ATOM      7  C   UNL     1       1.223  11.585  21.060  0.00  0.00    +0.000 C 
ATOM      8  C   UNL     1      -0.149   9.703  20.005  0.00  0.00    +0.000 C 
ATOM      9  C   UNL     1       0.274  10.160  18.607  0.00  0.00    +0.000 C 
ATOM     10  C   UNL     1      -0.369  11.554  18.451  0.00  0.00    +0.000 C 
ATOM     11  C   UNL     1      -0.977  11.946  19.828  0.00  0.00    +0.000 C 
ENDROOT
BRANCH   1  15
ATOM     12  C   UNL     1       2.959   6.052  17.960  0.00  0.00    +0.000 C 
ATOM     13  C   UNL     1       2.287   5.192  18.752  0.00  0.00    +0.000 C 
ATOM     14  C   UNL     1       2.218   5.387  20.202  0.00  0.00    +0.000 C 
ATOM     15  C   UNL     1       1.866   6.525  20.825  0.00  0.00    +0.000 C 
ATOM     16  C   UNL     1       2.574   4.160  21.027  0.00  0.00    +0.000 C 
ATOM     17  C   UNL     1       1.827   2.907  20.555  0.00  0.00    +0.000 C 
ATOM     18  C   UNL     1       1.980   2.697  19.051  0.00  0.00    +0.000 C 
ATOM     19  C   UNL     1       1.584   3.940  18.249  0.00  0.00    +0.000 C 
BRANCH  17  20
ATOM     20  O   UNL     1       0.446   2.971  20.913  0.00  0.00    +0.000 OA
ATOM     21  H   UNL     1       0.377   3.299  21.827  0.00  0.00    +0.000 HD
ENDBRANCH  17  20
BRANCH  19  22
ATOM     22  O   UNL     1       1.871   3.695  16.873  0.00  0.00    +0.000 OA
ATOM     23  H   UNL     1       2.636   3.094  16.845  0.00  0.00    +0.000 HD
ENDBRANCH  19  22
ENDBRANCH   1  15
BRANCH  11  24
ATOM     24  C   UNL     1      -2.552  11.905  19.882  0.00  0.00    +0.000 C 
ATOM     25  C   UNL     1      -3.258  11.506  18.575  0.00  0.00    +0.000 C 
BRANCH  24  26
ATOM     26  C   UNL     1      -3.125  13.252  20.395  0.00  0.00    +0.000 C 
BRANCH  26  27
ATOM     27  C   UNL     1      -2.224  13.945  21.439  0.00  0.00    +0.000 C 
ATOM     28  O   UNL     1      -2.037  15.322  21.061  0.00  0.00    +0.000 OA
ATOM     29  C   UNL     1      -2.885  16.114  21.776  0.00  0.00    +0.000 C 
ATOM     30  O   UNL     1      -3.065  17.305  21.598  0.00  0.00    +0.000 OA
ATOM     31  C   UNL     1      -3.514  15.266  22.813  0.00  0.00    +0.000 C 
ATOM     32  C   UNL     1      -4.629  15.641  23.447  0.00  0.00    +0.000 C 
ATOM     33  C   UNL     1      -2.742  13.984  22.881  0.00  0.00    +0.000 C 
ATOM     34  C   UNL     1      -3.547  12.748  23.292  0.00  0.00    +0.000 C 
ATOM     35  C   UNL     1      -1.542  14.134  23.839  0.00  0.00    +0.000 C 
ENDBRANCH  26  27
ENDBRANCH  24  26
ENDBRANCH  11  24
TORSDOF 6
ENDMDL
MODEL 4
REMARK VINA RESULT:      -7.9      1.068      1.164
REMARK  Name = 
REMARK  10 active torsions:
REMARK  status: ('A' for Active; 'I' for Inactive)
REMARK    1  A    between atoms: C_4  and  C_5
REMARK    2  A    between atoms: C_10  and  C_11
REMARK    3  A    between atoms: C_15  and  C_16
REMARK    4  A    between atoms: C_16  and  C_17
REMARK    5  A    between atoms: C_16  and  C_18
REMARK    6  A    between atoms: C_18  and  C_19
REMARK    7  A    between atoms: C_25  and  C_26
REMARK    8  A    between atoms: C_25  and  C_27
REMARK    9  A    between atoms: C_29  and  O_30
REMARK   10  A    between atoms: C_32  and  O_33
REMARK                            x       y       z     vdW  Elec       q    Type
REMARK                         _______ _______ _______ _____ _____    ______ ____
ROOT
ATOM      1  C   UNL     1       1.350   7.894  20.238  0.00  0.00    +0.000 C 
ATOM      2  C   UNL     1       0.474   8.733  20.815  0.00  0.00    +0.000 C 
ATOM      3  C   UNL     1      -0.089   8.565  22.224  0.00  0.00    +0.000 C 
ATOM      4  C   UNL     1      -0.077   9.862  23.044  0.00  0.00    +0.000 C 
ATOM      5  C   UNL     1      -0.708  11.043  22.303  0.00  0.00    +0.000 C 
ATOM      6  C   UNL     1      -0.127  11.215  20.885  0.00  0.00    +0.000 C 
ATOM      7  C   UNL     1       1.332  11.742  21.031  0.00  0.00    +0.000 C 
ATOM      8  C   UNL     1      -0.160   9.889  20.093  0.00  0.00    +0.000 C 
ATOM      9  C   UNL     1       0.188  10.314  18.664  0.00  0.00    +0.000 C 
ATOM     10  C   UNL     1      -0.421  11.724  18.526  0.00  0.00    +0.000 C 
ATOM     11  C   UNL     1      -0.929  12.155  19.932  0.00  0.00    +0.000 C 
ENDROOT
BRANCH   1  15
ATOM     12  C   UNL     1       2.983   6.256  17.995  0.00  0.00    +0.000 C 
ATOM     13  C   UNL     1       2.300   5.372  18.752  0.00  0.00    +0.000 C 
ATOM     14  C   UNL     1       2.188   5.540  20.203  0.00  0.00    +0.000 C 
ATOM     15  C   UNL     1       1.803   6.661  20.836  0.00  0.00    +0.000 C 
ATOM     16  C   UNL     1       2.538   4.302  21.015  0.00  0.00    +0.000 C 
ATOM     17  C   UNL     1       1.821   3.049  20.499  0.00  0.00    +0.000 C 
ATOM     18  C   UNL     1       2.018   2.868  18.997  0.00  0.00    +0.000 C 
ATOM     19  C   UNL     1       1.628   4.121  18.207  0.00  0.00    +0.000 C 
BRANCH  17  20
ATOM     20  O   UNL     1       0.429   3.088  20.820  0.00  0.00    +0.000 OA
ATOM     21  H   UNL     1       0.177   4.011  20.999  0.00  0.00    +0.000 HD
ENDBRANCH  17  20
BRANCH  19  22
ATOM     22  O   UNL     1       1.957   3.905  16.835  0.00  0.00    +0.000 OA
ATOM     23  H   UNL     1       1.846   2.954  16.663  0.00  0.00    +0.000 HD
ENDBRANCH  19  22
ENDBRANCH   1  15
BRANCH  11  24
ATOM     24  C   UNL     1      -2.498  12.164  20.085  0.00  0.00    +0.000 C 
ATOM     25  C   UNL     1      -3.296  11.745  18.837  0.00  0.00    +0.000 C 
BRANCH  24  26
ATOM     26  C   UNL     1      -2.999  13.544  20.585  0.00  0.00    +0.000 C 
BRANCH  26  27
ATOM     27  C   UNL     1      -3.562  13.508  22.022  0.00  0.00    +0.000 C 
ATOM     28  O   UNL     1      -2.492  13.216  22.941  0.00  0.00    +0.000 OA
ATOM     29  C   UNL     1      -2.049  14.372  23.513  0.00  0.00    +0.000 C 
ATOM     30  O   UNL     1      -1.072  14.481  24.231  0.00  0.00    +0.000 OA
ATOM     31  C   UNL     1      -2.989  15.446  23.121  0.00  0.00    +0.000 C 
ATOM     32  C   UNL     1      -2.661  16.738  23.224  0.00  0.00    +0.000 C 
ATOM     33  C   UNL     1      -4.208  14.797  22.543  0.00  0.00    +0.000 C 
ATOM     34  C   UNL     1      -4.944  15.606  21.472  0.00  0.00    +0.000 C 
ATOM     35  C   UNL     1      -5.204  14.438  23.665  0.00  0.00    +0.000 C 
ENDBRANCH  26  27
ENDBRANCH  24  26
ENDBRANCH  11  24
TORSDOF 6
ENDMDL
MODEL 5
REMARK VINA RESULT:      -7.6      1.860      9.926
REMARK  Name = 
REMARK  10 active torsions:
REMARK  status: ('A' for Active; 'I' for Inactive)
REMARK    1  A    between atoms: C_4  and  C_5
REMARK    2  A    between atoms: C_10  and  C_11
REMARK    3  A    between atoms: C_15  and  C_16
REMARK    4  A    between atoms: C_16  and  C_17
REMARK    5  A    between atoms: C_16  and  C_18
REMARK    6  A    between atoms: C_18  and  C_19
REMARK    7  A    between atoms: C_25  and  C_26
REMARK    8  A    between atoms: C_25  and  C_27
REMARK    9  A    between atoms: C_29  and  O_30
REMARK   10  A    between atoms: C_32  and  O_33
REMARK                            x       y       z     vdW  Elec       q    Type
REMARK                         _______ _______ _______ _____ _____    ______ ____
ROOT
ATOM      1  C   UNL     1      -3.086  12.968  20.351  0.00  0.00    +0.000 C 
ATOM      2  C   UNL     1      -2.501  11.918  19.752  0.00  0.00    +0.000 C 
ATOM      3  C   UNL     1      -3.115  11.122  18.603  0.00  0.00    +0.000 C 
ATOM      4  C   UNL     1      -2.132  10.847  17.458  0.00  0.00    +0.000 C 
ATOM      5  C   UNL     1      -0.809  10.247  17.938  0.00  0.00    +0.000 C 
ATOM      6  C   UNL     1      -0.187  11.061  19.091  0.00  0.00    +0.000 C 
ATOM      7  C   UNL     1       0.331  12.404  18.496  0.00  0.00    +0.000 C 
ATOM      8  C   UNL     1      -1.207  11.314  20.223  0.00  0.00    +0.000 C 
ATOM      9  C   UNL     1      -0.352  11.877  21.360  0.00  0.00    +0.000 C 
ATOM     10  C   UNL     1       1.006  11.162  21.207  0.00  0.00    +0.000 C 
ATOM     11  C   UNL     1       0.964  10.359  19.875  0.00  0.00    +0.000 C 
ENDROOT
BRANCH   1  15
ATOM     12  C   UNL     1      -4.287  14.285  23.035  0.00  0.00    +0.000 C 
ATOM     13  C   UNL     1      -5.287  13.647  22.392  0.00  0.00    +0.000 C 
ATOM     14  C   UNL     1      -5.406  13.694  20.932  0.00  0.00    +0.000 C 
ATOM     15  C   UNL     1      -4.422  13.427  20.056  0.00  0.00    +0.000 C 
ATOM     16  C   UNL     1      -6.786  14.072  20.418  0.00  0.00    +0.000 C 
ATOM     17  C   UNL     1      -7.897  13.252  21.084  0.00  0.00    +0.000 C 
ATOM     18  C   UNL     1      -7.783  13.283  22.605  0.00  0.00    +0.000 C 
ATOM     19  C   UNL     1      -6.391  12.868  23.091  0.00  0.00    +0.000 C 
BRANCH  17  20
ATOM     20  O   UNL     1      -7.890  11.904  20.610  0.00  0.00    +0.000 OA
ATOM     21  H   UNL     1      -8.399  11.863  19.782  0.00  0.00    +0.000 HD
ENDBRANCH  17  20
BRANCH  19  22
ATOM     22  O   UNL     1      -6.340  13.043  24.506  0.00  0.00    +0.000 OA
ATOM     23  H   UNL     1      -5.492  13.473  24.708  0.00  0.00    +0.000 HD
ENDBRANCH  19  22
ENDBRANCH   1  15
BRANCH  11  24
ATOM     24  C   UNL     1       0.860   8.796  20.058  0.00  0.00    +0.000 C 
ATOM     25  C   UNL     1       0.337   8.313  21.422  0.00  0.00    +0.000 C 
BRANCH  24  26
ATOM     26  C   UNL     1       2.215   8.109  19.746  0.00  0.00    +0.000 C 
BRANCH  26  27
ATOM     27  C   UNL     1       2.139   7.106  18.576  0.00  0.00    +0.000 C 
ATOM     28  O   UNL     1       3.064   7.508  17.548  0.00  0.00    +0.000 OA
ATOM     29  C   UNL     1       4.210   6.776  17.648  0.00  0.00    +0.000 C 
ATOM     30  O   UNL     1       5.231   6.964  17.013  0.00  0.00    +0.000 OA
ATOM     31  C   UNL     1       3.965   5.707  18.642  0.00  0.00    +0.000 C 
ATOM     32  C   UNL     1       4.970   5.041  19.219  0.00  0.00    +0.000 C 
ATOM     33  C   UNL     1       2.490   5.647  18.892  0.00  0.00    +0.000 C 
ATOM     34  C   UNL     1       2.074   5.193  20.294  0.00  0.00    +0.000 C 
ATOM     35  C   UNL     1       1.809   4.733  17.853  0.00  0.00    +0.000 C 
ENDBRANCH  26  27
ENDBRANCH  24  26
ENDBRANCH  11  24
TORSDOF 6
ENDMDL
MODEL 6
REMARK VINA RESULT:      -7.6      1.247      1.721
REMARK  Name = 
REMARK  10 active torsions:
REMARK  status: ('A' for Active; 'I' for Inactive)
REMARK    1  A    between atoms: C_4  and  C_5
REMARK    2  A    between atoms: C_10  and  C_11
REMARK    3  A    between atoms: C_15  and  C_16
REMARK    4  A    between atoms: C_16  and  C_17
REMARK    5  A    between atoms: C_16  and  C_18
REMARK    6  A    between atoms: C_18  and  C_19
REMARK    7  A    between atoms: C_25  and  C_26
REMARK    8  A    between atoms: C_25  and  C_27
REMARK    9  A    between atoms: C_29  and  O_30
REMARK   10  A    between atoms: C_32  and  O_33
REMARK                            x       y       z     vdW  Elec       q    Type
REMARK                         _______ _______ _______ _____ _____    ______ ____
ROOT
ATOM      1  C   UNL     1       1.257   7.872  20.253  0.00  0.00    +0.000 C 
ATOM      2  C   UNL     1       0.368   8.681  20.851  0.00  0.00    +0.000 C 
ATOM      3  C   UNL     1      -0.136   8.510  22.282  0.00  0.00    +0.000 C 
ATOM      4  C   UNL     1      -0.149   9.817  23.085  0.00  0.00    +0.000 C 
ATOM      5  C   UNL     1      -0.856  10.960  22.352  0.00  0.00    +0.000 C 
ATOM      6  C   UNL     1      -0.335  11.136  20.912  0.00  0.00    +0.000 C 
ATOM      7  C   UNL     1       1.104  11.726  20.997  0.00  0.00    +0.000 C 
ATOM      8  C   UNL     1      -0.341   9.800  20.138  0.00  0.00    +0.000 C 
ATOM      9  C   UNL     1      -0.063  10.217  18.693  0.00  0.00    +0.000 C 
ATOM     10  C   UNL     1      -0.735  11.599  18.559  0.00  0.00    +0.000 C 
ATOM     11  C   UNL     1      -1.210  12.028  19.977  0.00  0.00    +0.000 C 
ENDROOT
BRANCH   1  15
ATOM     12  C   UNL     1       2.864   6.264  17.970  0.00  0.00    +0.000 C 
ATOM     13  C   UNL     1       2.248   5.366  18.766  0.00  0.00    +0.000 C 
ATOM     14  C   UNL     1       2.188   5.552  20.218  0.00  0.00    +0.000 C 
ATOM     15  C   UNL     1       1.783   6.667  20.850  0.00  0.00    +0.000 C 
ATOM     16  C   UNL     1       2.619   4.343  21.033  0.00  0.00    +0.000 C 
ATOM     17  C   UNL     1       1.934   3.053  20.564  0.00  0.00    +0.000 C 
ATOM     18  C   UNL     1       2.078   2.857  19.058  0.00  0.00    +0.000 C 
ATOM     19  C   UNL     1       1.606   4.081  18.266  0.00  0.00    +0.000 C 
BRANCH  17  20
ATOM     20  O   UNL     1       0.556   3.042  20.940  0.00  0.00    +0.000 OA
ATOM     21  H   UNL     1       0.026   2.774  20.170  0.00  0.00    +0.000 HD
ENDBRANCH  17  20
BRANCH  19  22
ATOM     22  O   UNL     1       1.889   3.857  16.886  0.00  0.00    +0.000 OA
ATOM     23  H   UNL     1       2.832   4.051  16.754  0.00  0.00    +0.000 HD
ENDBRANCH  19  22
ENDBRANCH   1  15
BRANCH  11  24
ATOM     24  C   UNL     1      -2.771  11.974  20.188  0.00  0.00    +0.000 C 
ATOM     25  C   UNL     1      -3.626  12.155  18.921  0.00  0.00    +0.000 C 
BRANCH  24  26
ATOM     26  C   UNL     1      -3.221  12.990  21.270  0.00  0.00    +0.000 C 
BRANCH  26  27
ATOM     27  C   UNL     1      -3.397  14.425  20.729  0.00  0.00    +0.000 C 
ATOM     28  O   UNL     1      -4.770  14.828  20.898  0.00  0.00    +0.000 OA
ATOM     29  C   UNL     1      -4.887  15.604  22.013  0.00  0.00    +0.000 C 
ATOM     30  O   UNL     1      -5.932  15.992  22.502  0.00  0.00    +0.000 OA
ATOM     31  C   UNL     1      -3.518  15.901  22.491  0.00  0.00    +0.000 C 
ATOM     32  C   UNL     1      -3.286  16.338  23.732  0.00  0.00    +0.000 C 
ATOM     33  C   UNL     1      -2.563  15.522  21.400  0.00  0.00    +0.000 C 
ATOM     34  C   UNL     1      -1.178  15.062  21.863  0.00  0.00    +0.000 C 
ATOM     35  C   UNL     1      -2.392  16.694  20.411  0.00  0.00    +0.000 C 
ENDBRANCH  26  27
ENDBRANCH  24  26
ENDBRANCH  11  24
TORSDOF 6
ENDMDL
MODEL 7
REMARK VINA RESULT:      -7.4      1.853      9.916
REMARK  Name = 
REMARK  10 active torsions:
REMARK  status: ('A' for Active; 'I' for Inactive)
REMARK    1  A    between atoms: C_4  and  C_5
REMARK    2  A    between atoms: C_10  and  C_11
REMARK    3  A    between atoms: C_15  and  C_16
REMARK    4  A    between atoms: C_16  and  C_17
REMARK    5  A    between atoms: C_16  and  C_18
REMARK    6  A    between atoms: C_18  and  C_19
REMARK    7  A    between atoms: C_25  and  C_26
REMARK    8  A    between atoms: C_25  and  C_27
REMARK    9  A    between atoms: C_29  and  O_30
REMARK   10  A    between atoms: C_32  and  O_33
REMARK                            x       y       z     vdW  Elec       q    Type
REMARK                         _______ _______ _______ _____ _____    ______ ____
ROOT
ATOM      1  C   UNL     1      -2.730  12.909  21.597  0.00  0.00    +0.000 C 
ATOM      2  C   UNL     1      -2.016  12.144  20.756  0.00  0.00    +0.000 C 
ATOM      3  C   UNL     1      -2.177  12.141  19.237  0.00  0.00    +0.000 C 
ATOM      4  C   UNL     1      -0.842  12.192  18.482  0.00  0.00    +0.000 C 
ATOM      5  C   UNL     1       0.156  11.136  18.963  0.00  0.00    +0.000 C 
ATOM      6  C   UNL     1       0.324  11.151  20.496  0.00  0.00    +0.000 C 
ATOM      7  C   UNL     1       1.103  12.446  20.874  0.00  0.00    +0.000 C 
ATOM      8  C   UNL     1      -1.041  11.096  21.217  0.00  0.00    +0.000 C 
ATOM      9  C   UNL     1      -0.666  10.848  22.680  0.00  0.00    +0.000 C 
ATOM     10  C   UNL     1       0.605   9.976  22.605  0.00  0.00    +0.000 C 
ATOM     11  C   UNL     1       1.041   9.911  21.113  0.00  0.00    +0.000 C 
ENDROOT
BRANCH   1  15
ATOM     12  C   UNL     1      -4.833  13.054  24.034  0.00  0.00    +0.000 C 
ATOM     13  C   UNL     1      -5.525  13.059  22.877  0.00  0.00    +0.000 C 
ATOM     14  C   UNL     1      -5.056  13.815  21.712  0.00  0.00    +0.000 C 
ATOM     15  C   UNL     1      -3.820  13.762  21.188  0.00  0.00    +0.000 C 
ATOM     16  C   UNL     1      -6.104  14.713  21.073  0.00  0.00    +0.000 C 
ATOM     17  C   UNL     1      -7.423  13.974  20.817  0.00  0.00    +0.000 C 
ATOM     18  C   UNL     1      -7.916  13.256  22.070  0.00  0.00    +0.000 C 
ATOM     19  C   UNL     1      -6.848  12.337  22.670  0.00  0.00    +0.000 C 
BRANCH  17  20
ATOM     20  O   UNL     1      -7.290  13.052  19.734  0.00  0.00    +0.000 OA
ATOM     21  H   UNL     1      -8.169  12.901  19.344  0.00  0.00    +0.000 HD
ENDBRANCH  17  20
BRANCH  19  22
ATOM     22  O   UNL     1      -7.352  11.807  23.896  0.00  0.00    +0.000 OA
ATOM     23  H   UNL     1      -7.349  12.533  24.542  0.00  0.00    +0.000 HD
ENDBRANCH  19  22
ENDBRANCH   1  15
BRANCH  11  24
ATOM     24  C   UNL     1       0.790   8.517  20.420  0.00  0.00    +0.000 C 
ATOM     25  C   UNL     1      -0.122   7.542  21.184  0.00  0.00    +0.000 C 
BRANCH  24  26
ATOM     26  C   UNL     1       2.131   7.818  20.078  0.00  0.00    +0.000 C 
BRANCH  26  27
ATOM     27  C   UNL     1       2.057   6.931  18.817  0.00  0.00    +0.000 C 
ATOM     28  O   UNL     1       2.933   7.469  17.808  0.00  0.00    +0.000 OA
ATOM     29  C   UNL     1       4.108   6.779  17.804  0.00  0.00    +0.000 C 
ATOM     30  O   UNL     1       5.101   7.070  17.161  0.00  0.00    +0.000 OA
ATOM     31  C   UNL     1       3.937   5.610  18.694  0.00  0.00    +0.000 C 
ATOM     32  C   UNL     1       4.985   4.933  19.175  0.00  0.00    +0.000 C 
ATOM     33  C   UNL     1       2.474   5.465  18.979  0.00  0.00    +0.000 C 
ATOM     34  C   UNL     1       2.121   4.860  20.341  0.00  0.00    +0.000 C 
ATOM     35  C   UNL     1       1.796   4.628  17.874  0.00  0.00    +0.000 C 
ENDBRANCH  26  27
ENDBRANCH  24  26
ENDBRANCH  11  24
TORSDOF 6
ENDMDL
MODEL 8
REMARK VINA RESULT:      -7.3      3.024      5.070
REMARK  Name = 
REMARK  10 active torsions:
REMARK  status: ('A' for Active; 'I' for Inactive)
REMARK    1  A    between atoms: C_4  and  C_5
REMARK    2  A    between atoms: C_10  and  C_11
REMARK    3  A    between atoms: C_15  and  C_16
REMARK    4  A    between atoms: C_16  and  C_17
REMARK    5  A    between atoms: C_16  and  C_18
REMARK    6  A    between atoms: C_18  and  C_19
REMARK    7  A    between atoms: C_25  and  C_26
REMARK    8  A    between atoms: C_25  and  C_27
REMARK    9  A    between atoms: C_29  and  O_30
REMARK   10  A    between atoms: C_32  and  O_33
REMARK                            x       y       z     vdW  Elec       q    Type
REMARK                         _______ _______ _______ _____ _____    ______ ____
ROOT
ATOM      1  C   UNL     1       2.537   8.018  19.165  0.00  0.00    +0.000 C 
ATOM      2  C   UNL     1       1.603   8.974  19.297  0.00  0.00    +0.000 C 
ATOM      3  C   UNL     1       1.007   9.771  18.139  0.00  0.00    +0.000 C 
ATOM      4  C   UNL     1      -0.521   9.890  18.203  0.00  0.00    +0.000 C 
ATOM      5  C   UNL     1      -1.026  10.376  19.563  0.00  0.00    +0.000 C 
ATOM      6  C   UNL     1      -0.431   9.560  20.728  0.00  0.00    +0.000 C 
ATOM      7  C   UNL     1      -1.079   8.144  20.695  0.00  0.00    +0.000 C 
ATOM      8  C   UNL     1       1.108   9.467  20.629  0.00  0.00    +0.000 C 
ATOM      9  C   UNL     1       1.522   8.876  21.978  0.00  0.00    +0.000 C 
ATOM     10  C   UNL     1       0.489   9.442  22.975  0.00  0.00    +0.000 C 
ATOM     11  C   UNL     1      -0.603  10.180  22.150  0.00  0.00    +0.000 C 
ENDROOT
BRANCH   1  15
ATOM     12  C   UNL     1       3.056   4.839  19.150  0.00  0.00    +0.000 C 
ATOM     13  C   UNL     1       4.096   5.440  18.536  0.00  0.00    +0.000 C 
ATOM     14  C   UNL     1       3.894   6.579  17.637  0.00  0.00    +0.000 C 
ATOM     15  C   UNL     1       3.181   7.683  17.917  0.00  0.00    +0.000 C 
ATOM     16  C   UNL     1       4.583   6.454  16.288  0.00  0.00    +0.000 C 
ATOM     17  C   UNL     1       6.057   6.052  16.425  0.00  0.00    +0.000 C 
ATOM     18  C   UNL     1       6.222   4.821  17.311  0.00  0.00    +0.000 C 
ATOM     19  C   UNL     1       5.543   4.991  18.673  0.00  0.00    +0.000 C 
BRANCH  17  20
ATOM     20  O   UNL     1       6.838   7.137  16.927  0.00  0.00    +0.000 OA
ATOM     21  H   UNL     1       7.239   7.606  16.174  0.00  0.00    +0.000 HD
ENDBRANCH  17  20
BRANCH  19  22
ATOM     22  O   UNL     1       5.644   3.757  19.381  0.00  0.00    +0.000 OA
ATOM     23  H   UNL     1       4.821   3.653  19.889  0.00  0.00    +0.000 HD
ENDBRANCH  19  22
ENDBRANCH   1  15
BRANCH  11  24
ATOM     24  C   UNL     1      -0.554  11.752  22.259  0.00  0.00    +0.000 C 
ATOM     25  C   UNL     1      -1.545  12.387  23.250  0.00  0.00    +0.000 C 
BRANCH  24  26
ATOM     26  C   UNL     1      -0.717  12.411  20.864  0.00  0.00    +0.000 C 
BRANCH  26  27
ATOM     27  C   UNL     1      -0.030  13.789  20.753  0.00  0.00    +0.000 C 
ATOM     28  O   UNL     1       1.110  13.821  21.633  0.00  0.00    +0.000 OA
ATOM     29  C   UNL     1       2.247  13.582  20.921  0.00  0.00    +0.000 C 
ATOM     30  O   UNL     1       3.358  13.413  21.392  0.00  0.00    +0.000 OA
ATOM     31  C   UNL     1       1.882  13.595  19.487  0.00  0.00    +0.000 C 
ATOM     32  C   UNL     1       2.678  13.063  18.554  0.00  0.00    +0.000 C 
ATOM     33  C   UNL     1       0.509  14.182  19.373  0.00  0.00    +0.000 C 
ATOM     34  C   UNL     1      -0.334  13.670  18.202  0.00  0.00    +0.000 C 
ATOM     35  C   UNL     1       0.592  15.721  19.289  0.00  0.00    +0.000 C 
ENDBRANCH  26  27
ENDBRANCH  24  26
ENDBRANCH  11  24
TORSDOF 6
ENDMDL
MODEL 9
REMARK VINA RESULT:      -7.2      1.752     10.168
REMARK  Name = 
REMARK  10 active torsions:
REMARK  status: ('A' for Active; 'I' for Inactive)
REMARK    1  A    between atoms: C_4  and  C_5
REMARK    2  A    between atoms: C_10  and  C_11
REMARK    3  A    between atoms: C_15  and  C_16
REMARK    4  A    between atoms: C_16  and  C_17
REMARK    5  A    between atoms: C_16  and  C_18
REMARK    6  A    between atoms: C_18  and  C_19
REMARK    7  A    between atoms: C_25  and  C_26
REMARK    8  A    between atoms: C_25  and  C_27
REMARK    9  A    between atoms: C_29  and  O_30
REMARK   10  A    between atoms: C_32  and  O_33
REMARK                            x       y       z     vdW  Elec       q    Type
REMARK                         _______ _______ _______ _____ _____    ______ ____
ROOT
ATOM      1  C   UNL     1      -1.683  11.697  20.778  0.00  0.00    +0.000 C 
ATOM      2  C   UNL     1      -1.255  10.743  19.935  0.00  0.00    +0.000 C 
ATOM      3  C   UNL     1      -1.933  10.382  18.616  0.00  0.00    +0.000 C 
ATOM      4  C   UNL     1      -0.951  10.231  17.447  0.00  0.00    +0.000 C 
ATOM      5  C   UNL     1       0.223   9.304  17.769  0.00  0.00    +0.000 C 
ATOM      6  C   UNL     1       0.912   9.680  19.096  0.00  0.00    +0.000 C 
ATOM      7  C   UNL     1       1.682  11.015  18.869  0.00  0.00    +0.000 C 
ATOM      8  C   UNL     1      -0.109   9.820  20.247  0.00  0.00    +0.000 C 
ATOM      9  C   UNL     1       0.767   9.919  21.497  0.00  0.00    +0.000 C 
ATOM     10  C   UNL     1       1.990   9.035  21.177  0.00  0.00    +0.000 C 
ATOM     11  C   UNL     1       1.883   8.611  19.685  0.00  0.00    +0.000 C 
ENDROOT
BRANCH   1  15
ATOM     12  C   UNL     1      -2.165  13.444  23.441  0.00  0.00    +0.000 C 
ATOM     13  C   UNL     1      -3.363  13.026  22.987  0.00  0.00    +0.000 C 
ATOM     14  C   UNL     1      -3.668  13.002  21.554  0.00  0.00    +0.000 C 
ATOM     15  C   UNL     1      -2.905  12.445  20.599  0.00  0.00    +0.000 C 
ATOM     16  C   UNL     1      -4.981  13.668  21.172  0.00  0.00    +0.000 C 
ATOM     17  C   UNL     1      -6.149  13.188  22.042  0.00  0.00    +0.000 C 
ATOM     18  C   UNL     1      -5.822  13.294  23.528  0.00  0.00    +0.000 C 
ATOM     19  C   UNL     1      -4.511  12.587  23.885  0.00  0.00    +0.000 C 
BRANCH  17  20
ATOM     20  O   UNL     1      -6.521  11.850  21.706  0.00  0.00    +0.000 OA
ATOM     21  H   UNL     1      -6.512  11.312  22.517  0.00  0.00    +0.000 HD
ENDBRANCH  17  20
BRANCH  19  22
ATOM     22  O   UNL     1      -4.226  12.839  25.260  0.00  0.00    +0.000 OA
ATOM     23  H   UNL     1      -5.042  13.184  25.660  0.00  0.00    +0.000 HD
ENDBRANCH  19  22
ENDBRANCH   1  15
BRANCH  11  24
ATOM     24  C   UNL     1       1.505   7.096  19.461  0.00  0.00    +0.000 C 
ATOM     25  C   UNL     1       1.505   6.212  20.721  0.00  0.00    +0.000 C 
BRANCH  24  26
ATOM     26  C   UNL     1       2.404   6.454  18.373  0.00  0.00    +0.000 C 
BRANCH  26  27
ATOM     27  C   UNL     1       3.570   5.624  18.952  0.00  0.00    +0.000 C 
ATOM     28  O   UNL     1       3.168   4.244  19.043  0.00  0.00    +0.000 OA
ATOM     29  C   UNL     1       3.658   3.551  17.977  0.00  0.00    +0.000 C 
ATOM     30  O   UNL     1       3.388   2.398  17.693  0.00  0.00    +0.000 OA
ATOM     31  C   UNL     1       4.591   4.448  17.258  0.00  0.00    +0.000 C 
ATOM     32  C   UNL     1       4.971   4.204  16.000  0.00  0.00    +0.000 C 
ATOM     33  C   UNL     1       4.876   5.616  18.150  0.00  0.00    +0.000 C 
ATOM     34  C   UNL     1       5.181   6.936  17.435  0.00  0.00    +0.000 C 
ATOM     35  C   UNL     1       6.045   5.288  19.103  0.00  0.00    +0.000 C 
ENDBRANCH  26  27
ENDBRANCH  24  26
ENDBRANCH  11  24
TORSDOF 6
ENDMDL
