MODEL 1
REMARK VINA RESULT:      -7.0      0.000      0.000
REMARK  Name = 
REMARK  6 active torsions:
REMARK  status: ('A' for Active; 'I' for Inactive)
REMARK    1  A    between atoms: C_1  and  O_2
REMARK    2  A    between atoms: O_2  and  C_3
REMARK    3  A    between atoms: C_5  and  O_6
REMARK    4  A    between atoms: C_9  and  C_10
REMARK    5  A    between atoms: N_13  and  C_14
REMARK    6  A    between atoms: C_18  and  N_19
REMARK                            x       y       z     vdW  Elec       q    Type
REMARK                         _______ _______ _______ _____ _____    ______ ____
ROOT
ATOM      1  C   UNL     1       0.298  10.759  20.588  0.00  0.00    +0.000 A 
ATOM      2  C   UNL     1       0.801  11.321  19.398  0.00  0.00    +0.000 A 
ATOM      3  C   UNL     1       1.574  10.551  18.526  0.00  0.00    +0.000 A 
ATOM      4  C   UNL     1       1.832   9.234  18.837  0.00  0.00    +0.000 A 
ATOM      5  C   UNL     1       1.321   8.678  20.011  0.00  0.00    +0.000 A 
ATOM      6  C   UNL     1       0.562   9.414  20.919  0.00  0.00    +0.000 A 
ATOM      7  C   UNL     1       0.021   8.842  22.198  0.00  0.00    +0.000 C 
ATOM      8  C   UNL     1       1.738   7.264  20.042  0.00  0.00    +0.000 C 
ATOM      9  O   UNL     1       1.447   6.506  20.945  0.00  0.00    +0.000 OA
ATOM     10  N   UNL     1       2.492   7.021  18.892  0.00  0.00    +0.000 N 
ATOM     11  C   UNL     1       2.638   8.225  18.089  0.00  0.00    +0.000 C 
ENDROOT
BRANCH  10  12
ATOM     12  C   UNL     1       3.001   5.755  18.497  0.00  0.00    +0.000 A 
ATOM     13  C   UNL     1       2.171   4.803  17.888  0.00  0.00    +0.000 A 
ATOM     14  C   UNL     1       2.682   3.594  17.417  0.00  0.00    +0.000 A 
ATOM     15  C   UNL     1       4.028   3.297  17.586  0.00  0.00    +0.000 A 
ATOM     16  C   UNL     1       4.862   4.178  18.275  0.00  0.00    +0.000 A 
ATOM     17  C   UNL     1       4.356   5.428  18.667  0.00  0.00    +0.000 A 
BRANCH  16  18
ATOM     18  N   UNL     1       6.235   3.908  18.370  0.00  0.00    +0.000 N 
ATOM     19  H   UNL     1       6.742   4.608  18.904  0.00  0.00    +0.000 HD
ATOM     20  H   UNL     1       6.673   3.727  17.473  0.00  0.00    +0.000 HD
ENDBRANCH  16  18
ENDBRANCH  10  12
BRANCH   1  22
ATOM     21  C   UNL     1      -1.580  12.144  21.067  0.00  0.00    +0.000 C 
ATOM     22  O   UNL     1      -0.423  11.460  21.523  0.00  0.00    +0.000 OA
ENDBRANCH   1  22
BRANCH   3  23
ATOM     23  O   UNL     1       2.087  11.075  17.378  0.00  0.00    +0.000 OA
ATOM     24  H   UNL     1       2.848  11.638  17.599  0.00  0.00    +0.000 HD
ENDBRANCH   3  23
TORSDOF 4
ENDMDL
MODEL 2
REMARK VINA RESULT:      -6.6      1.522      1.804
REMARK  Name = 
REMARK  6 active torsions:
REMARK  status: ('A' for Active; 'I' for Inactive)
REMARK    1  A    between atoms: C_1  and  O_2
REMARK    2  A    between atoms: O_2  and  C_3
REMARK    3  A    between atoms: C_5  and  O_6
REMARK    4  A    between atoms: C_9  and  C_10
REMARK    5  A    between atoms: N_13  and  C_14
REMARK    6  A    between atoms: C_18  and  N_19
REMARK                            x       y       z     vdW  Elec       q    Type
REMARK                         _______ _______ _______ _____ _____    ______ ____
ROOT
ATOM      1  C   UNL     1      -0.790  11.078  21.430  0.00  0.00    +0.000 A 
ATOM      2  C   UNL     1      -0.893  11.711  20.176  0.00  0.00    +0.000 A 
ATOM      3  C   UNL     1      -0.213  11.201  19.069  0.00  0.00    +0.000 A 
ATOM      4  C   UNL     1       0.556  10.066  19.213  0.00  0.00    +0.000 A 
ATOM      5  C   UNL     1       0.644   9.435  20.455  0.00  0.00    +0.000 A 
ATOM      6  C   UNL     1      -0.002   9.920  21.590  0.00  0.00    +0.000 A 
ATOM      7  C   UNL     1       0.098   9.268  22.939  0.00  0.00    +0.000 C 
ATOM      8  C   UNL     1       1.501   8.247  20.280  0.00  0.00    +0.000 C 
ATOM      9  O   UNL     1       1.772   7.484  21.185  0.00  0.00    +0.000 OA
ATOM     10  N   UNL     1       1.904   8.210  18.943  0.00  0.00    +0.000 N 
ATOM     11  C   UNL     1       1.384   9.348  18.201  0.00  0.00    +0.000 C 
ENDROOT
BRANCH  10  12
ATOM     12  C   UNL     1       2.662   7.170  18.342  0.00  0.00    +0.000 A 
ATOM     13  C   UNL     1       2.253   5.833  18.437  0.00  0.00    +0.000 A 
ATOM     14  C   UNL     1       2.942   4.816  17.776  0.00  0.00    +0.000 A 
ATOM     15  C   UNL     1       4.082   5.117  17.042  0.00  0.00    +0.000 A 
ATOM     16  C   UNL     1       4.574   6.421  17.008  0.00  0.00    +0.000 A 
ATOM     17  C   UNL     1       3.824   7.448  17.603  0.00  0.00    +0.000 A 
BRANCH  16  18
ATOM     18  N   UNL     1       5.678   6.729  16.198  0.00  0.00    +0.000 N 
ATOM     19  H   UNL     1       5.673   6.229  15.314  0.00  0.00    +0.000 HD
ATOM     20  H   UNL     1       6.568   6.639  16.678  0.00  0.00    +0.000 HD
ENDBRANCH  16  18
ENDBRANCH  10  12
BRANCH   1  22
ATOM     21  C   UNL     1      -1.175  12.911  22.902  0.00  0.00    +0.000 C 
ATOM     22  O   UNL     1      -1.383  11.545  22.577  0.00  0.00    +0.000 OA
ENDBRANCH   1  22
BRANCH   3  23
ATOM     23  O   UNL     1      -0.282  11.804  17.850  0.00  0.00    +0.000 OA
ATOM     24  H   UNL     1      -1.012  11.410  17.342  0.00  0.00    +0.000 HD
ENDBRANCH   3  23
TORSDOF 4
ENDMDL
MODEL 3
REMARK VINA RESULT:      -6.6      1.151      1.487
REMARK  Name = 
REMARK  6 active torsions:
REMARK  status: ('A' for Active; 'I' for Inactive)
REMARK    1  A    between atoms: C_1  and  O_2
REMARK    2  A    between atoms: O_2  and  C_3
REMARK    3  A    between atoms: C_5  and  O_6
REMARK    4  A    between atoms: C_9  and  C_10
REMARK    5  A    between atoms: N_13  and  C_14
REMARK    6  A    between atoms: C_18  and  N_19
REMARK                            x       y       z     vdW  Elec       q    Type
REMARK                         _______ _______ _______ _____ _____    ______ ____
ROOT
ATOM      1  C   UNL     1       0.617  10.637  20.614  0.00  0.00    +0.000 A 
ATOM      2  C   UNL     1       1.054  11.198  19.397  0.00  0.00    +0.000 A 
ATOM      3  C   UNL     1       1.729  10.414  18.460  0.00  0.00    +0.000 A 
ATOM      4  C   UNL     1       1.956   9.082  18.733  0.00  0.00    +0.000 A 
ATOM      5  C   UNL     1       1.509   8.528  19.933  0.00  0.00    +0.000 A 
ATOM      6  C   UNL     1       0.849   9.277  20.904  0.00  0.00    +0.000 A 
ATOM      7  C   UNL     1       0.380   8.705  22.211  0.00  0.00    +0.000 C 
ATOM      8  C   UNL     1       1.870   7.098  19.913  0.00  0.00    +0.000 C 
ATOM      9  O   UNL     1       1.614   6.336  20.824  0.00  0.00    +0.000 OA
ATOM     10  N   UNL     1       2.527   6.845  18.708  0.00  0.00    +0.000 N 
ATOM     11  C   UNL     1       2.663   8.055  17.913  0.00  0.00    +0.000 C 
ENDROOT
BRANCH  10  12
ATOM     12  C   UNL     1       2.954   5.566  18.258  0.00  0.00    +0.000 A 
ATOM     13  C   UNL     1       4.226   5.388  17.698  0.00  0.00    +0.000 A 
ATOM     14  C   UNL     1       4.686   4.122  17.335  0.00  0.00    +0.000 A 
ATOM     15  C   UNL     1       3.861   3.015  17.487  0.00  0.00    +0.000 A 
ATOM     16  C   UNL     1       2.553   3.170  17.948  0.00  0.00    +0.000 A 
ATOM     17  C   UNL     1       2.133   4.435  18.392  0.00  0.00    +0.000 A 
BRANCH  16  18
ATOM     18  N   UNL     1       1.756   2.039  18.175  0.00  0.00    +0.000 N 
ATOM     19  H   UNL     1       0.761   2.246  18.168  0.00  0.00    +0.000 HD
ATOM     20  H   UNL     1       2.026   1.514  19.000  0.00  0.00    +0.000 HD
ENDBRANCH  16  18
ENDBRANCH  10  12
BRANCH   1  22
ATOM     21  C   UNL     1      -1.245  11.961  21.287  0.00  0.00    +0.000 C 
ATOM     22  O   UNL     1      -0.005  11.350  21.608  0.00  0.00    +0.000 OA
ENDBRANCH   1  22
BRANCH   3  23
ATOM     23  O   UNL     1       2.178  10.937  17.285  0.00  0.00    +0.000 OA
ATOM     24  H   UNL     1       2.054  10.280  16.579  0.00  0.00    +0.000 HD
ENDBRANCH   3  23
TORSDOF 4
ENDMDL
MODEL 4
REMARK VINA RESULT:      -6.6      2.444      7.159
REMARK  Name = 
REMARK  6 active torsions:
REMARK  status: ('A' for Active; 'I' for Inactive)
REMARK    1  A    between atoms: C_1  and  O_2
REMARK    2  A    between atoms: O_2  and  C_3
REMARK    3  A    between atoms: C_5  and  O_6
REMARK    4  A    between atoms: C_9  and  C_10
REMARK    5  A    between atoms: N_13  and  C_14
REMARK    6  A    between atoms: C_18  and  N_19
REMARK                            x       y       z     vdW  Elec       q    Type
REMARK                         _______ _______ _______ _____ _____    ______ ____
ROOT
ATOM      1  C   UNL     1       4.399   5.187  18.134  0.00  0.00    +0.000 A 
ATOM      2  C   UNL     1       3.889   4.668  19.341  0.00  0.00    +0.000 A 
ATOM      3  C   UNL     1       2.960   5.397  20.086  0.00  0.00    +0.000 A 
ATOM      4  C   UNL     1       2.540   6.626  19.625  0.00  0.00    +0.000 A 
ATOM      5  C   UNL     1       3.037   7.129  18.422  0.00  0.00    +0.000 A 
ATOM      6  C   UNL     1       3.980   6.445  17.656  0.00  0.00    +0.000 A 
ATOM      7  C   UNL     1       4.545   6.979  16.371  0.00  0.00    +0.000 C 
ATOM      8  C   UNL     1       2.381   8.428  18.188  0.00  0.00    +0.000 C 
ATOM      9  O   UNL     1       2.605   9.120  17.216  0.00  0.00    +0.000 OA
ATOM     10  N   UNL     1       1.519   8.665  19.260  0.00  0.00    +0.000 N 
ATOM     11  C   UNL     1       1.584   7.592  20.241  0.00  0.00    +0.000 C 
ENDROOT
BRANCH  10  12
ATOM     12  C   UNL     1       0.627   9.766  19.371  0.00  0.00    +0.000 A 
ATOM     13  C   UNL     1       0.516  10.486  20.568  0.00  0.00    +0.000 A 
ATOM     14  C   UNL     1      -0.289  11.621  20.658  0.00  0.00    +0.000 A 
ATOM     15  C   UNL     1      -1.035  12.030  19.559  0.00  0.00    +0.000 A 
ATOM     16  C   UNL     1      -1.026  11.280  18.383  0.00  0.00    +0.000 A 
ATOM     17  C   UNL     1      -0.145  10.191  18.277  0.00  0.00    +0.000 A 
BRANCH  16  18
ATOM     18  N   UNL     1      -1.717  11.744  17.255  0.00  0.00    +0.000 N 
ATOM     19  H   UNL     1      -2.573  12.239  17.489  0.00  0.00    +0.000 HD
ATOM     20  H   UNL     1      -1.876  11.027  16.555  0.00  0.00    +0.000 HD
ENDBRANCH  16  18
ENDBRANCH  10  12
BRANCH   1  22
ATOM     21  C   UNL     1       6.679   4.545  17.877  0.00  0.00    +0.000 C 
ATOM     22  O   UNL     1       5.352   4.560  17.371  0.00  0.00    +0.000 OA
ENDBRANCH   1  22
BRANCH   3  23
ATOM     23  O   UNL     1       2.465   4.926  21.264  0.00  0.00    +0.000 OA
ATOM     24  H   UNL     1       1.828   5.569  21.620  0.00  0.00    +0.000 HD
ENDBRANCH   3  23
TORSDOF 4
ENDMDL
MODEL 5
REMARK VINA RESULT:      -6.6      2.537      7.160
REMARK  Name = 
REMARK  6 active torsions:
REMARK  status: ('A' for Active; 'I' for Inactive)
REMARK    1  A    between atoms: C_1  and  O_2
REMARK    2  A    between atoms: O_2  and  C_3
REMARK    3  A    between atoms: C_5  and  O_6
REMARK    4  A    between atoms: C_9  and  C_10
REMARK    5  A    between atoms: N_13  and  C_14
REMARK    6  A    between atoms: C_18  and  N_19
REMARK                            x       y       z     vdW  Elec       q    Type
REMARK                         _______ _______ _______ _____ _____    ______ ____
ROOT
ATOM      1  C   UNL     1       4.728   4.547  17.094  0.00  0.00    +0.000 A 
ATOM      2  C   UNL     1       4.306   3.651  18.096  0.00  0.00    +0.000 A 
ATOM      3  C   UNL     1       3.488   4.093  19.138  0.00  0.00    +0.000 A 
ATOM      4  C   UNL     1       3.091   5.412  19.172  0.00  0.00    +0.000 A 
ATOM      5  C   UNL     1       3.501   6.292  18.169  0.00  0.00    +0.000 A 
ATOM      6  C   UNL     1       4.333   5.899  17.122  0.00  0.00    +0.000 A 
ATOM      7  C   UNL     1       4.804   6.835  16.046  0.00  0.00    +0.000 C 
ATOM      8  C   UNL     1       2.894   7.603  18.465  0.00  0.00    +0.000 C 
ATOM      9  O   UNL     1       3.063   8.585  17.770  0.00  0.00    +0.000 OA
ATOM     10  N   UNL     1       2.147   7.468  19.636  0.00  0.00    +0.000 N 
ATOM     11  C   UNL     1       2.247   6.122  20.178  0.00  0.00    +0.000 C 
ENDROOT
BRANCH  10  12
ATOM     12  C   UNL     1       1.328   8.478  20.209  0.00  0.00    +0.000 A 
ATOM     13  C   UNL     1       0.783   9.498  19.418  0.00  0.00    +0.000 A 
ATOM     14  C   UNL     1      -0.093  10.441  19.955  0.00  0.00    +0.000 A 
ATOM     15  C   UNL     1      -0.406  10.404  21.308  0.00  0.00    +0.000 A 
ATOM     16  C   UNL     1       0.195   9.463  22.144  0.00  0.00    +0.000 A 
ATOM     17  C   UNL     1       1.006   8.467  21.576  0.00  0.00    +0.000 A 
BRANCH  16  18
ATOM     18  N   UNL     1      -0.188   9.382  23.491  0.00  0.00    +0.000 N 
ATOM     19  H   UNL     1      -1.068   8.892  23.624  0.00  0.00    +0.000 HD
ATOM     20  H   UNL     1      -0.180  10.278  23.968  0.00  0.00    +0.000 HD
ENDBRANCH  16  18
ENDBRANCH  10  12
BRANCH   1  22
ATOM     21  C   UNL     1       6.968   4.284  16.325  0.00  0.00    +0.000 C 
ATOM     22  O   UNL     1       5.574   4.206  16.067  0.00  0.00    +0.000 OA
ENDBRANCH   1  22
BRANCH   3  23
ATOM     23  O   UNL     1       3.080   3.252  20.128  0.00  0.00    +0.000 OA
ATOM     24  H   UNL     1       2.235   3.572  20.489  0.00  0.00    +0.000 HD
ENDBRANCH   3  23
TORSDOF 4
ENDMDL
MODEL 6
REMARK VINA RESULT:      -6.6      2.457      6.733
REMARK  Name = 
REMARK  6 active torsions:
REMARK  status: ('A' for Active; 'I' for Inactive)
REMARK    1  A    between atoms: C_1  and  O_2
REMARK    2  A    between atoms: O_2  and  C_3
REMARK    3  A    between atoms: C_5  and  O_6
REMARK    4  A    between atoms: C_9  and  C_10
REMARK    5  A    between atoms: N_13  and  C_14
REMARK    6  A    between atoms: C_18  and  N_19
REMARK                            x       y       z     vdW  Elec       q    Type
REMARK                         _______ _______ _______ _____ _____    ______ ____
ROOT
ATOM      1  C   UNL     1       3.836   4.673  19.166  0.00  0.00    +0.000 A 
ATOM      2  C   UNL     1       4.393   5.223  17.994  0.00  0.00    +0.000 A 
ATOM      3  C   UNL     1       3.994   6.484  17.547  0.00  0.00    +0.000 A 
ATOM      4  C   UNL     1       3.056   7.191  18.269  0.00  0.00    +0.000 A 
ATOM      5  C   UNL     1       2.518   6.648  19.436  0.00  0.00    +0.000 A 
ATOM      6  C   UNL     1       2.872   5.385  19.908  0.00  0.00    +0.000 A 
ATOM      7  C   UNL     1       2.288   4.774  21.149  0.00  0.00    +0.000 C 
ATOM      8  C   UNL     1       1.581   7.644  19.988  0.00  0.00    +0.000 C 
ATOM      9  O   UNL     1       0.948   7.466  21.010  0.00  0.00    +0.000 OA
ATOM     10  N   UNL     1       1.582   8.746  19.131  0.00  0.00    +0.000 N 
ATOM     11  C   UNL     1       2.459   8.530  17.991  0.00  0.00    +0.000 C 
ENDROOT
BRANCH  10  12
ATOM     12  C   UNL     1       0.884   9.962  19.356  0.00  0.00    +0.000 A 
ATOM     13  C   UNL     1       1.043  10.674  20.553  0.00  0.00    +0.000 A 
ATOM     14  C   UNL     1       0.432  11.913  20.746  0.00  0.00    +0.000 A 
ATOM     15  C   UNL     1      -0.388  12.442  19.757  0.00  0.00    +0.000 A 
ATOM     16  C   UNL     1      -0.648  11.715  18.595  0.00  0.00    +0.000 A 
ATOM     17  C   UNL     1       0.042  10.512  18.375  0.00  0.00    +0.000 A 
BRANCH  16  18
ATOM     18  N   UNL     1      -1.411  12.292  17.569  0.00  0.00    +0.000 N 
ATOM     19  H   UNL     1      -1.583  13.283  17.711  0.00  0.00    +0.000 HD
ATOM     20  H   UNL     1      -2.267  11.785  17.369  0.00  0.00    +0.000 HD
ENDBRANCH  16  18
ENDBRANCH  10  12
BRANCH   1  22
ATOM     21  C   UNL     1       3.775   2.316  18.826  0.00  0.00    +0.000 C 
ATOM     22  O   UNL     1       4.133   3.421  19.643  0.00  0.00    +0.000 OA
ENDBRANCH   1  22
BRANCH   3  23
ATOM     23  O   UNL     1       4.503   7.030  16.408  0.00  0.00    +0.000 OA
ATOM     24  H   UNL     1       5.473   7.054  16.475  0.00  0.00    +0.000 HD
ENDBRANCH   3  23
TORSDOF 4
ENDMDL
MODEL 7
REMARK VINA RESULT:      -6.5      3.866      6.279
REMARK  Name = 
REMARK  6 active torsions:
REMARK  status: ('A' for Active; 'I' for Inactive)
REMARK    1  A    between atoms: C_1  and  O_2
REMARK    2  A    between atoms: O_2  and  C_3
REMARK    3  A    between atoms: C_5  and  O_6
REMARK    4  A    between atoms: C_9  and  C_10
REMARK    5  A    between atoms: N_13  and  C_14
REMARK    6  A    between atoms: C_18  and  N_19
REMARK                            x       y       z     vdW  Elec       q    Type
REMARK                         _______ _______ _______ _____ _____    ______ ____
ROOT
ATOM      1  C   UNL     1       3.157   5.443  19.622  0.00  0.00    +0.000 A 
ATOM      2  C   UNL     1       3.457   4.085  19.852  0.00  0.00    +0.000 A 
ATOM      3  C   UNL     1       4.138   3.340  18.888  0.00  0.00    +0.000 A 
ATOM      4  C   UNL     1       4.523   3.947  17.713  0.00  0.00    +0.000 A 
ATOM      5  C   UNL     1       4.235   5.295  17.495  0.00  0.00    +0.000 A 
ATOM      6  C   UNL     1       3.541   6.072  18.420  0.00  0.00    +0.000 A 
ATOM      7  C   UNL     1       3.202   7.518  18.196  0.00  0.00    +0.000 C 
ATOM      8  C   UNL     1       4.797   5.653  16.179  0.00  0.00    +0.000 C 
ATOM      9  O   UNL     1       4.710   6.767  15.702  0.00  0.00    +0.000 OA
ATOM     10  N   UNL     1       5.394   4.508  15.649  0.00  0.00    +0.000 N 
ATOM     11  C   UNL     1       5.233   3.367  16.536  0.00  0.00    +0.000 C 
ENDROOT
BRANCH  10  12
ATOM     12  C   UNL     1       6.133   4.454  14.437  0.00  0.00    +0.000 A 
ATOM     13  C   UNL     1       5.728   3.622  13.383  0.00  0.00    +0.000 A 
ATOM     14  C   UNL     1       6.396   3.629  12.159  0.00  0.00    +0.000 A 
ATOM     15  C   UNL     1       7.511   4.438  11.982  0.00  0.00    +0.000 A 
ATOM     16  C   UNL     1       8.001   5.203  13.041  0.00  0.00    +0.000 A 
ATOM     17  C   UNL     1       7.269   5.255  14.238  0.00  0.00    +0.000 A 
BRANCH  16  18
ATOM     18  N   UNL     1       9.076   6.078  12.829  0.00  0.00    +0.000 N 
ATOM     19  H   UNL     1       8.868   6.808  12.154  0.00  0.00    +0.000 HD
ATOM     20  H   UNL     1       9.947   5.602  12.613  0.00  0.00    +0.000 HD
ENDBRANCH  16  18
ENDBRANCH  10  12
BRANCH   1  22
ATOM     21  C   UNL     1       1.101   5.854  20.754  0.00  0.00    +0.000 C 
ATOM     22  O   UNL     1       2.445   6.230  20.493  0.00  0.00    +0.000 OA
ENDBRANCH   1  22
BRANCH   3  23
ATOM     23  O   UNL     1       4.424   2.022  19.079  0.00  0.00    +0.000 OA
ATOM     24  H   UNL     1       5.257   1.947  19.575  0.00  0.00    +0.000 HD
ENDBRANCH   3  23
TORSDOF 4
ENDMDL
MODEL 8
REMARK VINA RESULT:      -6.5      3.825      8.336
REMARK  Name = 
REMARK  6 active torsions:
REMARK  status: ('A' for Active; 'I' for Inactive)
REMARK    1  A    between atoms: C_1  and  O_2
REMARK    2  A    between atoms: O_2  and  C_3
REMARK    3  A    between atoms: C_5  and  O_6
REMARK    4  A    between atoms: C_9  and  C_10
REMARK    5  A    between atoms: N_13  and  C_14
REMARK    6  A    between atoms: C_18  and  N_19
REMARK                            x       y       z     vdW  Elec       q    Type
REMARK                         _______ _______ _______ _____ _____    ______ ____
ROOT
ATOM      1  C   UNL     1       1.236   9.144  19.295  0.00  0.00    +0.000 A 
ATOM      2  C   UNL     1       0.653   9.949  18.296  0.00  0.00    +0.000 A 
ATOM      3  C   UNL     1      -0.263  10.946  18.639  0.00  0.00    +0.000 A 
ATOM      4  C   UNL     1      -0.585  11.141  19.965  0.00  0.00    +0.000 A 
ATOM      5  C   UNL     1       0.006  10.350  20.951  0.00  0.00    +0.000 A 
ATOM      6  C   UNL     1       0.910   9.331  20.653  0.00  0.00    +0.000 A 
ATOM      7  C   UNL     1       1.539   8.455  21.698  0.00  0.00    +0.000 C 
ATOM      8  C   UNL     1      -0.510  10.817  22.251  0.00  0.00    +0.000 C 
ATOM      9  O   UNL     1      -0.182  10.324  23.312  0.00  0.00    +0.000 OA
ATOM     10  N   UNL     1      -1.398  11.865  22.001  0.00  0.00    +0.000 N 
ATOM     11  C   UNL     1      -1.538  12.113  20.575  0.00  0.00    +0.000 C 
ENDROOT
BRANCH  10  12
ATOM     12  C   UNL     1      -2.039  12.653  22.995  0.00  0.00    +0.000 A 
ATOM     13  C   UNL     1      -1.468  13.851  23.443  0.00  0.00    +0.000 A 
ATOM     14  C   UNL     1      -2.133  14.675  24.352  0.00  0.00    +0.000 A 
ATOM     15  C   UNL     1      -3.366  14.289  24.862  0.00  0.00    +0.000 A 
ATOM     16  C   UNL     1      -3.917  13.056  24.514  0.00  0.00    +0.000 A 
ATOM     17  C   UNL     1      -3.281  12.278  23.533  0.00  0.00    +0.000 A 
BRANCH  16  18
ATOM     18  N   UNL     1      -5.198  12.712  24.970  0.00  0.00    +0.000 N 
ATOM     19  H   UNL     1      -5.778  13.521  25.173  0.00  0.00    +0.000 HD
ATOM     20  H   UNL     1      -5.188  12.052  25.741  0.00  0.00    +0.000 HD
ENDBRANCH  16  18
ENDBRANCH  10  12
BRANCH   1  22
ATOM     21  C   UNL     1       2.652   8.037  17.732  0.00  0.00    +0.000 C 
ATOM     22  O   UNL     1       2.102   8.111  19.039  0.00  0.00    +0.000 OA
ENDBRANCH   1  22
BRANCH   3  23
ATOM     23  O   UNL     1      -0.854  11.726  17.691  0.00  0.00    +0.000 OA
ATOM     24  H   UNL     1      -0.285  12.494  17.513  0.00  0.00    +0.000 HD
ENDBRANCH   3  23
TORSDOF 4
ENDMDL
MODEL 9
REMARK VINA RESULT:      -6.5      1.509      2.018
REMARK  Name = 
REMARK  6 active torsions:
REMARK  status: ('A' for Active; 'I' for Inactive)
REMARK    1  A    between atoms: C_1  and  O_2
REMARK    2  A    between atoms: O_2  and  C_3
REMARK    3  A    between atoms: C_5  and  O_6
REMARK    4  A    between atoms: C_9  and  C_10
REMARK    5  A    between atoms: N_13  and  C_14
REMARK    6  A    between atoms: C_18  and  N_19
REMARK                            x       y       z     vdW  Elec       q    Type
REMARK                         _______ _______ _______ _____ _____    ______ ____
ROOT
ATOM      1  C   UNL     1      -0.732  11.131  21.457  0.00  0.00    +0.000 A 
ATOM      2  C   UNL     1      -0.803  11.801  20.219  0.00  0.00    +0.000 A 
ATOM      3  C   UNL     1      -0.132  11.296  19.104  0.00  0.00    +0.000 A 
ATOM      4  C   UNL     1       0.595  10.131  19.223  0.00  0.00    +0.000 A 
ATOM      5  C   UNL     1       0.651   9.465  20.448  0.00  0.00    +0.000 A 
ATOM      6  C   UNL     1       0.013   9.942  21.591  0.00  0.00    +0.000 A 
ATOM      7  C   UNL     1       0.080   9.252  22.923  0.00  0.00    +0.000 C 
ATOM      8  C   UNL     1       1.467   8.253  20.247  0.00  0.00    +0.000 C 
ATOM      9  O   UNL     1       1.703   7.457  21.134  0.00  0.00    +0.000 OA
ATOM     10  N   UNL     1       1.879   8.237  18.913  0.00  0.00    +0.000 N 
ATOM     11  C   UNL     1       1.406   9.412  18.198  0.00  0.00    +0.000 C 
ENDROOT
BRANCH  10  12
ATOM     12  C   UNL     1       2.605   7.187  18.290  0.00  0.00    +0.000 A 
ATOM     13  C   UNL     1       3.817   7.439  17.634  0.00  0.00    +0.000 A 
ATOM     14  C   UNL     1       4.580   6.402  17.097  0.00  0.00    +0.000 A 
ATOM     15  C   UNL     1       4.118   5.094  17.169  0.00  0.00    +0.000 A 
ATOM     16  C   UNL     1       2.869   4.818  17.726  0.00  0.00    +0.000 A 
ATOM     17  C   UNL     1       2.153   5.857  18.341  0.00  0.00    +0.000 A 
BRANCH  16  18
ATOM     18  N   UNL     1       2.448   3.488  17.868  0.00  0.00    +0.000 N 
ATOM     19  H   UNL     1       1.522   3.321  17.485  0.00  0.00    +0.000 HD
ATOM     20  H   UNL     1       2.534   3.136  18.816  0.00  0.00    +0.000 HD
ENDBRANCH  16  18
ENDBRANCH  10  12
BRANCH   1  22
ATOM     21  C   UNL     1      -1.172  12.969  22.907  0.00  0.00    +0.000 C 
ATOM     22  O   UNL     1      -1.317  11.588  22.611  0.00  0.00    +0.000 OA
ENDBRANCH   1  22
BRANCH   3  23
ATOM     23  O   UNL     1      -0.170  11.934  17.901  0.00  0.00    +0.000 OA
ATOM     24  H   UNL     1       0.081  12.865  18.027  0.00  0.00    +0.000 HD
ENDBRANCH   3  23
TORSDOF 4
ENDMDL
