MODEL 1
REMARK VINA RESULT:      -7.9      0.000      0.000
REMARK  Name = 
REMARK  4 active torsions:
REMARK  status: ('A' for Active; 'I' for Inactive)
REMARK    1  A    between atoms: C_2  and  C_3
REMARK    2  A    between atoms: C_3  and  O_4
REMARK    3  A    between atoms: O_4  and  N_5
REMARK    4  A    between atoms: C_8  and  C_9
REMARK                            x       y       z     vdW  Elec       q    Type
REMARK                         _______ _______ _______ _____ _____    ______ ____
ROOT
ATOM      1  N   UNL     1       6.525   4.881  17.948  0.00  0.00    +0.000 N 
ATOM      2  C   UNL     1       5.407   4.949  18.747  0.00  0.00    +0.000 A 
ATOM      3  O   UNL     1       5.287   5.649  19.743  0.00  0.00    +0.000 OA
ATOM      4  C   UNL     1       4.269   4.041  18.374  0.00  0.00    +0.000 A 
ATOM      5  N   UNL     1       4.210   3.581  17.139  0.00  0.00    +0.000 N 
ATOM      6  O   UNL     1       3.307   2.760  16.765  0.00  0.00    +0.000 OA
ATOM      7  C   UNL     1       5.208   3.989  16.161  0.00  0.00    +0.000 A 
ATOM      8  C   UNL     1       4.964   3.773  14.795  0.00  0.00    +0.000 A 
ATOM      9  C   UNL     1       5.912   4.164  13.851  0.00  0.00    +0.000 A 
ATOM     10  C   UNL     1       7.108   4.743  14.272  0.00  0.00    +0.000 A 
ATOM     11  C   UNL     1       7.354   4.945  15.636  0.00  0.00    +0.000 A 
ATOM     12  C   UNL     1       6.390   4.588  16.584  0.00  0.00    +0.000 A 
ENDROOT
BRANCH   4  13
ATOM     13  C   UNL     1       3.242   3.704  19.405  0.00  0.00    +0.000 A 
ATOM     14  C   UNL     1       2.041   4.420  19.490  0.00  0.00    +0.000 A 
ATOM     15  C   UNL     1       1.144   4.181  20.534  0.00  0.00    +0.000 A 
ATOM     16  C   UNL     1       1.447   3.242  21.516  0.00  0.00    +0.000 A 
ATOM     17  C   UNL     1       2.631   2.515  21.437  0.00  0.00    +0.000 A 
ATOM     18  C   UNL     1       3.516   2.731  20.377  0.00  0.00    +0.000 A 
ENDBRANCH   4  13
BRANCH   1  19
ATOM     19  O   UNL     1       7.603   5.735  18.308  0.00  0.00    +0.000 OA
BRANCH  19  20
ATOM     20  C   UNL     1       7.393   7.034  17.735  0.00  0.00    +0.000 C 
BRANCH  20  22
ATOM     21  C   UNL     1       8.378   9.313  18.128  0.00  0.00    +0.000 C 
ATOM     22  C   UNL     1       8.325   8.002  18.396  0.00  0.00    +0.000 C 
ENDBRANCH  20  22
ENDBRANCH  19  20
ENDBRANCH   1  19
TORSDOF 4
ENDMDL
MODEL 2
REMARK VINA RESULT:      -7.9      0.460      1.131
REMARK  Name = 
REMARK  4 active torsions:
REMARK  status: ('A' for Active; 'I' for Inactive)
REMARK    1  A    between atoms: C_2  and  C_3
REMARK    2  A    between atoms: C_3  and  O_4
REMARK    3  A    between atoms: O_4  and  N_5
REMARK    4  A    between atoms: C_8  and  C_9
REMARK                            x       y       z     vdW  Elec       q    Type
REMARK                         _______ _______ _______ _____ _____    ______ ____
ROOT
ATOM      1  N   UNL     1       6.729   4.579  17.812  0.00  0.00    +0.000 N 
ATOM      2  C   UNL     1       5.720   4.777  18.726  0.00  0.00    +0.000 A 
ATOM      3  O   UNL     1       5.825   5.394  19.777  0.00  0.00    +0.000 OA
ATOM      4  C   UNL     1       4.402   4.128  18.410  0.00  0.00    +0.000 A 
ATOM      5  N   UNL     1       4.146   3.800  17.159  0.00  0.00    +0.000 N 
ATOM      6  O   UNL     1       3.074   3.193  16.823  0.00  0.00    +0.000 OA
ATOM      7  C   UNL     1       5.112   4.106  16.114  0.00  0.00    +0.000 A 
ATOM      8  C   UNL     1       4.710   4.062  14.768  0.00  0.00    +0.000 A 
ATOM      9  C   UNL     1       5.626   4.358  13.761  0.00  0.00    +0.000 A 
ATOM     10  C   UNL     1       6.943   4.669  14.094  0.00  0.00    +0.000 A 
ATOM     11  C   UNL     1       7.344   4.700  15.436  0.00  0.00    +0.000 A 
ATOM     12  C   UNL     1       6.419   4.439  16.452  0.00  0.00    +0.000 A 
ENDROOT
BRANCH   4  13
ATOM     13  C   UNL     1       3.426   3.892  19.516  0.00  0.00    +0.000 A 
ATOM     14  C   UNL     1       3.519   2.757  20.333  0.00  0.00    +0.000 A 
ATOM     15  C   UNL     1       2.531   2.481  21.281  0.00  0.00    +0.000 A 
ATOM     16  C   UNL     1       1.428   3.321  21.408  0.00  0.00    +0.000 A 
ATOM     17  C   UNL     1       1.329   4.458  20.612  0.00  0.00    +0.000 A 
ATOM     18  C   UNL     1       2.331   4.753  19.684  0.00  0.00    +0.000 A 
ENDBRANCH   4  13
BRANCH   1  19
ATOM     19  O   UNL     1       7.977   5.186  18.118  0.00  0.00    +0.000 OA
BRANCH  19  20
ATOM     20  C   UNL     1       7.747   6.471  18.716  0.00  0.00    +0.000 C 
BRANCH  20  22
ATOM     21  C   UNL     1       8.075   8.801  17.831  0.00  0.00    +0.000 C 
ATOM     22  C   UNL     1       7.777   7.509  17.637  0.00  0.00    +0.000 C 
ENDBRANCH  20  22
ENDBRANCH  19  20
ENDBRANCH   1  19
TORSDOF 4
ENDMDL
MODEL 3
REMARK VINA RESULT:      -7.7      0.951      1.363
REMARK  Name = 
REMARK  4 active torsions:
REMARK  status: ('A' for Active; 'I' for Inactive)
REMARK    1  A    between atoms: C_2  and  C_3
REMARK    2  A    between atoms: C_3  and  O_4
REMARK    3  A    between atoms: O_4  and  N_5
REMARK    4  A    between atoms: C_8  and  C_9
REMARK                            x       y       z     vdW  Elec       q    Type
REMARK                         _______ _______ _______ _____ _____    ______ ____
ROOT
ATOM      1  N   UNL     1       5.636   5.979  17.538  0.00  0.00    +0.000 N 
ATOM      2  C   UNL     1       4.473   5.759  18.240  0.00  0.00    +0.000 A 
ATOM      3  O   UNL     1       3.864   6.601  18.885  0.00  0.00    +0.000 OA
ATOM      4  C   UNL     1       3.956   4.348  18.243  0.00  0.00    +0.000 A 
ATOM      5  N   UNL     1       4.349   3.532  17.284  0.00  0.00    +0.000 N 
ATOM      6  O   UNL     1       3.999   2.306  17.253  0.00  0.00    +0.000 OA
ATOM      7  C   UNL     1       5.230   4.017  16.230  0.00  0.00    +0.000 A 
ATOM      8  C   UNL     1       5.377   3.263  15.053  0.00  0.00    +0.000 A 
ATOM      9  C   UNL     1       6.214   3.722  14.038  0.00  0.00    +0.000 A 
ATOM     10  C   UNL     1       6.920   4.911  14.208  0.00  0.00    +0.000 A 
ATOM     11  C   UNL     1       6.780   5.654  15.387  0.00  0.00    +0.000 A 
ATOM     12  C   UNL     1       5.913   5.217  16.394  0.00  0.00    +0.000 A 
ENDROOT
BRANCH   4  13
ATOM     13  C   UNL     1       3.010   3.925  19.317  0.00  0.00    +0.000 A 
ATOM     14  C   UNL     1       3.468   3.274  20.470  0.00  0.00    +0.000 A 
ATOM     15  C   UNL     1       2.564   2.771  21.409  0.00  0.00    +0.000 A 
ATOM     16  C   UNL     1       1.194   2.891  21.196  0.00  0.00    +0.000 A 
ATOM     17  C   UNL     1       0.724   3.546  20.061  0.00  0.00    +0.000 A 
ATOM     18  C   UNL     1       1.627   4.076  19.135  0.00  0.00    +0.000 A 
ENDBRANCH   4  13
BRANCH   1  19
ATOM     19  O   UNL     1       6.127   7.313  17.544  0.00  0.00    +0.000 OA
BRANCH  19  20
ATOM     20  C   UNL     1       7.484   7.318  18.012  0.00  0.00    +0.000 C 
BRANCH  20  22
ATOM     21  C   UNL     1       8.620   9.510  18.486  0.00  0.00    +0.000 C 
ATOM     22  C   UNL     1       8.117   8.618  17.622  0.00  0.00    +0.000 C 
ENDBRANCH  20  22
ENDBRANCH  19  20
ENDBRANCH   1  19
TORSDOF 4
ENDMDL
MODEL 4
REMARK VINA RESULT:      -7.2      2.342      5.965
REMARK  Name = 
REMARK  4 active torsions:
REMARK  status: ('A' for Active; 'I' for Inactive)
REMARK    1  A    between atoms: C_2  and  C_3
REMARK    2  A    between atoms: C_3  and  O_4
REMARK    3  A    between atoms: O_4  and  N_5
REMARK    4  A    between atoms: C_8  and  C_9
REMARK                            x       y       z     vdW  Elec       q    Type
REMARK                         _______ _______ _______ _____ _____    ______ ____
ROOT
ATOM      1  N   UNL     1       2.887   6.083  18.469  0.00  0.00    +0.000 N 
ATOM      2  C   UNL     1       4.041   6.019  17.722  0.00  0.00    +0.000 A 
ATOM      3  O   UNL     1       4.730   6.975  17.396  0.00  0.00    +0.000 OA
ATOM      4  C   UNL     1       4.439   4.654  17.234  0.00  0.00    +0.000 A 
ATOM      5  N   UNL     1       3.962   3.597  17.862  0.00  0.00    +0.000 N 
ATOM      6  O   UNL     1       4.209   2.408  17.469  0.00  0.00    +0.000 OA
ATOM      7  C   UNL     1       3.105   3.767  19.026  0.00  0.00    +0.000 A 
ATOM      8  C   UNL     1       2.872   2.673  19.877  0.00  0.00    +0.000 A 
ATOM      9  C   UNL     1       2.057   2.827  20.997  0.00  0.00    +0.000 A 
ATOM     10  C   UNL     1       1.455   4.059  21.249  0.00  0.00    +0.000 A 
ATOM     11  C   UNL     1       1.679   5.144  20.392  0.00  0.00    +0.000 A 
ATOM     12  C   UNL     1       2.526   5.004  19.287  0.00  0.00    +0.000 A 
ENDROOT
BRANCH   4  13
ATOM     13  C   UNL     1       5.369   4.544  16.070  0.00  0.00    +0.000 A 
ATOM     14  C   UNL     1       6.721   4.888  16.189  0.00  0.00    +0.000 A 
ATOM     15  C   UNL     1       7.553   4.901  15.067  0.00  0.00    +0.000 A 
ATOM     16  C   UNL     1       7.038   4.594  13.811  0.00  0.00    +0.000 A 
ATOM     17  C   UNL     1       5.699   4.238  13.680  0.00  0.00    +0.000 A 
ATOM     18  C   UNL     1       4.873   4.195  14.805  0.00  0.00    +0.000 A 
ENDBRANCH   4  13
BRANCH   1  19
ATOM     19  O   UNL     1       2.508   7.376  18.922  0.00  0.00    +0.000 OA
BRANCH  19  20
ATOM     20  C   UNL     1       1.851   8.080  17.858  0.00  0.00    +0.000 C 
BRANCH  20  22
ATOM     21  C   UNL     1       0.965  10.169  18.939  0.00  0.00    +0.000 C 
ATOM     22  C   UNL     1       1.868   9.544  18.173  0.00  0.00    +0.000 C 
ENDBRANCH  20  22
ENDBRANCH  19  20
ENDBRANCH   1  19
TORSDOF 4
ENDMDL
MODEL 5
REMARK VINA RESULT:      -7.2      4.771      6.659
REMARK  Name = 
REMARK  4 active torsions:
REMARK  status: ('A' for Active; 'I' for Inactive)
REMARK    1  A    between atoms: C_2  and  C_3
REMARK    2  A    between atoms: C_3  and  O_4
REMARK    3  A    between atoms: O_4  and  N_5
REMARK    4  A    between atoms: C_8  and  C_9
REMARK                            x       y       z     vdW  Elec       q    Type
REMARK                         _______ _______ _______ _____ _____    ______ ____
ROOT
ATOM      1  N   UNL     1       1.951   6.436  19.930  0.00  0.00    +0.000 N 
ATOM      2  C   UNL     1       1.544   7.662  20.404  0.00  0.00    +0.000 A 
ATOM      3  O   UNL     1       1.195   7.900  21.552  0.00  0.00    +0.000 OA
ATOM      4  C   UNL     1       1.481   8.775  19.395  0.00  0.00    +0.000 A 
ATOM      5  N   UNL     1       2.189   8.661  18.288  0.00  0.00    +0.000 N 
ATOM      6  O   UNL     1       2.140   9.537  17.361  0.00  0.00    +0.000 OA
ATOM      7  C   UNL     1       3.040   7.498  18.084  0.00  0.00    +0.000 A 
ATOM      8  C   UNL     1       4.027   7.533  17.085  0.00  0.00    +0.000 A 
ATOM      9  C   UNL     1       4.850   6.426  16.885  0.00  0.00    +0.000 A 
ATOM     10  C   UNL     1       4.670   5.282  17.660  0.00  0.00    +0.000 A 
ATOM     11  C   UNL     1       3.677   5.246  18.647  0.00  0.00    +0.000 A 
ATOM     12  C   UNL     1       2.873   6.368  18.877  0.00  0.00    +0.000 A 
ENDROOT
BRANCH   4  13
ATOM     13  C   UNL     1       0.634   9.970  19.686  0.00  0.00    +0.000 A 
ATOM     14  C   UNL     1      -0.669  10.074  19.184  0.00  0.00    +0.000 A 
ATOM     15  C   UNL     1      -1.406  11.248  19.355  0.00  0.00    +0.000 A 
ATOM     16  C   UNL     1      -0.842  12.339  20.010  0.00  0.00    +0.000 A 
ATOM     17  C   UNL     1       0.447  12.246  20.526  0.00  0.00    +0.000 A 
ATOM     18  C   UNL     1       1.176  11.062  20.381  0.00  0.00    +0.000 A 
ENDBRANCH   4  13
BRANCH   1  19
ATOM     19  O   UNL     1       2.002   5.384  20.885  0.00  0.00    +0.000 OA
BRANCH  19  20
ATOM     20  C   UNL     1       1.032   4.383  20.541  0.00  0.00    +0.000 C 
BRANCH  20  22
ATOM     21  C   UNL     1       2.641   2.689  21.469  0.00  0.00    +0.000 C 
ATOM     22  C   UNL     1       1.389   3.112  21.248  0.00  0.00    +0.000 C 
ENDBRANCH  20  22
ENDBRANCH  19  20
ENDBRANCH   1  19
TORSDOF 4
ENDMDL
MODEL 6
REMARK VINA RESULT:      -7.2      2.361      5.969
REMARK  Name = 
REMARK  4 active torsions:
REMARK  status: ('A' for Active; 'I' for Inactive)
REMARK    1  A    between atoms: C_2  and  C_3
REMARK    2  A    between atoms: C_3  and  O_4
REMARK    3  A    between atoms: O_4  and  N_5
REMARK    4  A    between atoms: C_8  and  C_9
REMARK                            x       y       z     vdW  Elec       q    Type
REMARK                         _______ _______ _______ _____ _____    ______ ____
ROOT
ATOM      1  N   UNL     1       2.867   6.209  18.505  0.00  0.00    +0.000 N 
ATOM      2  C   UNL     1       3.988   6.201  17.706  0.00  0.00    +0.000 A 
ATOM      3  O   UNL     1       4.625   7.189  17.367  0.00  0.00    +0.000 OA
ATOM      4  C   UNL     1       4.417   4.860  17.178  0.00  0.00    +0.000 A 
ATOM      5  N   UNL     1       4.009   3.776  17.809  0.00  0.00    +0.000 N 
ATOM      6  O   UNL     1       4.283   2.604  17.386  0.00  0.00    +0.000 OA
ATOM      7  C   UNL     1       3.198   3.895  19.012  0.00  0.00    +0.000 A 
ATOM      8  C   UNL     1       3.047   2.780  19.854  0.00  0.00    +0.000 A 
ATOM      9  C   UNL     1       2.277   2.886  21.011  0.00  0.00    +0.000 A 
ATOM     10  C   UNL     1       1.640   4.088  21.310  0.00  0.00    +0.000 A 
ATOM     11  C   UNL     1       1.783   5.194  20.462  0.00  0.00    +0.000 A 
ATOM     12  C   UNL     1       2.585   5.105  19.320  0.00  0.00    +0.000 A 
ENDROOT
BRANCH   4  13
ATOM     13  C   UNL     1       5.297   4.804  15.973  0.00  0.00    +0.000 A 
ATOM     14  C   UNL     1       4.808   4.349  14.742  0.00  0.00    +0.000 A 
ATOM     15  C   UNL     1       5.668   4.180  13.654  0.00  0.00    +0.000 A 
ATOM     16  C   UNL     1       7.029   4.443  13.790  0.00  0.00    +0.000 A 
ATOM     17  C   UNL     1       7.526   4.908  15.004  0.00  0.00    +0.000 A 
ATOM     18  C   UNL     1       6.662   5.105  16.085  0.00  0.00    +0.000 A 
ENDBRANCH   4  13
BRANCH   1  19
ATOM     19  O   UNL     1       2.459   7.479  18.996  0.00  0.00    +0.000 OA
BRANCH  19  20
ATOM     20  C   UNL     1       1.812   8.210  17.944  0.00  0.00    +0.000 C 
BRANCH  20  22
ATOM     21  C   UNL     1       0.637   9.853  19.441  0.00  0.00    +0.000 C 
ATOM     22  C   UNL     1       1.493   9.585  18.446  0.00  0.00    +0.000 C 
ENDBRANCH  20  22
ENDBRANCH  19  20
ENDBRANCH   1  19
TORSDOF 4
ENDMDL
MODEL 7
REMARK VINA RESULT:      -7.2      4.702      6.631
REMARK  Name = 
REMARK  4 active torsions:
REMARK  status: ('A' for Active; 'I' for Inactive)
REMARK    1  A    between atoms: C_2  and  C_3
REMARK    2  A    between atoms: C_3  and  O_4
REMARK    3  A    between atoms: O_4  and  N_5
REMARK    4  A    between atoms: C_8  and  C_9
REMARK                            x       y       z     vdW  Elec       q    Type
REMARK                         _______ _______ _______ _____ _____    ______ ____
ROOT
ATOM      1  N   UNL     1       1.947   6.398  19.881  0.00  0.00    +0.000 N 
ATOM      2  C   UNL     1       1.562   7.635  20.345  0.00  0.00    +0.000 A 
ATOM      3  O   UNL     1       1.200   7.885  21.486  0.00  0.00    +0.000 OA
ATOM      4  C   UNL     1       1.542   8.746  19.332  0.00  0.00    +0.000 A 
ATOM      5  N   UNL     1       2.264   8.612  18.237  0.00  0.00    +0.000 N 
ATOM      6  O   UNL     1       2.252   9.486  17.307  0.00  0.00    +0.000 OA
ATOM      7  C   UNL     1       3.090   7.428  18.050  0.00  0.00    +0.000 A 
ATOM      8  C   UNL     1       4.094   7.436  17.066  0.00  0.00    +0.000 A 
ATOM      9  C   UNL     1       4.892   6.308  16.882  0.00  0.00    +0.000 A 
ATOM     10  C   UNL     1       4.672   5.172  17.658  0.00  0.00    +0.000 A 
ATOM     11  C   UNL     1       3.663   5.163  18.629  0.00  0.00    +0.000 A 
ATOM     12  C   UNL     1       2.883   6.304  18.842  0.00  0.00    +0.000 A 
ENDROOT
BRANCH   4  13
ATOM     13  C   UNL     1       0.720   9.962  19.607  0.00  0.00    +0.000 A 
ATOM     14  C   UNL     1       1.178  10.964  20.472  0.00  0.00    +0.000 A 
ATOM     15  C   UNL     1       0.351  12.035  20.820  0.00  0.00    +0.000 A 
ATOM     16  C   UNL     1      -0.949  12.105  20.327  0.00  0.00    +0.000 A 
ATOM     17  C   UNL     1      -1.413  11.123  19.457  0.00  0.00    +0.000 A 
ATOM     18  C   UNL     1      -0.577  10.067  19.083  0.00  0.00    +0.000 A 
ENDBRANCH   4  13
BRANCH   1  19
ATOM     19  O   UNL     1       1.957   5.347  20.839  0.00  0.00    +0.000 OA
BRANCH  19  20
ATOM     20  C   UNL     1       0.906   4.418  20.536  0.00  0.00    +0.000 C 
BRANCH  20  22
ATOM     21  C   UNL     1       2.488   2.773  21.589  0.00  0.00    +0.000 C 
ATOM     22  C   UNL     1       1.362   3.043  20.916  0.00  0.00    +0.000 C 
ENDBRANCH  20  22
ENDBRANCH  19  20
ENDBRANCH   1  19
TORSDOF 4
ENDMDL
MODEL 8
REMARK VINA RESULT:      -7.1      3.243      4.619
REMARK  Name = 
REMARK  4 active torsions:
REMARK  status: ('A' for Active; 'I' for Inactive)
REMARK    1  A    between atoms: C_2  and  C_3
REMARK    2  A    between atoms: C_3  and  O_4
REMARK    3  A    between atoms: O_4  and  N_5
REMARK    4  A    between atoms: C_8  and  C_9
REMARK                            x       y       z     vdW  Elec       q    Type
REMARK                         _______ _______ _______ _____ _____    ______ ____
ROOT
ATOM      1  N   UNL     1       4.266   5.468  18.213  0.00  0.00    +0.000 N 
ATOM      2  C   UNL     1       3.520   6.620  18.317  0.00  0.00    +0.000 A 
ATOM      3  O   UNL     1       3.723   7.655  17.697  0.00  0.00    +0.000 OA
ATOM      4  C   UNL     1       2.401   6.597  19.319  0.00  0.00    +0.000 A 
ATOM      5  N   UNL     1       1.926   5.430  19.706  0.00  0.00    +0.000 N 
ATOM      6  O   UNL     1       1.017   5.330  20.596  0.00  0.00    +0.000 OA
ATOM      7  C   UNL     1       2.456   4.201  19.132  0.00  0.00    +0.000 A 
ATOM      8  C   UNL     1       1.741   3.002  19.289  0.00  0.00    +0.000 A 
ATOM      9  C   UNL     1       2.239   1.822  18.740  0.00  0.00    +0.000 A 
ATOM     10  C   UNL     1       3.456   1.835  18.061  0.00  0.00    +0.000 A 
ATOM     11  C   UNL     1       4.172   3.030  17.917  0.00  0.00    +0.000 A 
ATOM     12  C   UNL     1       3.659   4.224  18.435  0.00  0.00    +0.000 A 
ENDROOT
BRANCH   4  13
ATOM     13  C   UNL     1       1.858   7.892  19.829  0.00  0.00    +0.000 A 
ATOM     14  C   UNL     1       1.675   8.110  21.200  0.00  0.00    +0.000 A 
ATOM     15  C   UNL     1       1.051   9.273  21.658  0.00  0.00    +0.000 A 
ATOM     16  C   UNL     1       0.583  10.220  20.752  0.00  0.00    +0.000 A 
ATOM     17  C   UNL     1       0.768  10.022  19.387  0.00  0.00    +0.000 A 
ATOM     18  C   UNL     1       1.419   8.874  18.927  0.00  0.00    +0.000 A 
ENDBRANCH   4  13
BRANCH   1  19
ATOM     19  O   UNL     1       5.329   5.495  17.271  0.00  0.00    +0.000 OA
BRANCH  19  20
ATOM     20  C   UNL     1       6.574   5.675  17.962  0.00  0.00    +0.000 C 
BRANCH  20  22
ATOM     21  C   UNL     1       7.614   7.942  17.650  0.00  0.00    +0.000 C 
ATOM     22  C   UNL     1       7.386   6.693  17.223  0.00  0.00    +0.000 C 
ENDBRANCH  20  22
ENDBRANCH  19  20
ENDBRANCH   1  19
TORSDOF 4
ENDMDL
MODEL 9
REMARK VINA RESULT:      -7.1      2.802      6.499
REMARK  Name = 
REMARK  4 active torsions:
REMARK  status: ('A' for Active; 'I' for Inactive)
REMARK    1  A    between atoms: C_2  and  C_3
REMARK    2  A    between atoms: C_3  and  O_4
REMARK    3  A    between atoms: O_4  and  N_5
REMARK    4  A    between atoms: C_8  and  C_9
REMARK                            x       y       z     vdW  Elec       q    Type
REMARK                         _______ _______ _______ _____ _____    ______ ____
ROOT
ATOM      1  N   UNL     1       2.989   5.845  19.863  0.00  0.00    +0.000 N 
ATOM      2  C   UNL     1       3.504   5.103  18.825  0.00  0.00    +0.000 A 
ATOM      3  O   UNL     1       3.559   3.882  18.784  0.00  0.00    +0.000 OA
ATOM      4  C   UNL     1       4.089   5.882  17.680  0.00  0.00    +0.000 A 
ATOM      5  N   UNL     1       3.714   7.135  17.515  0.00  0.00    +0.000 N 
ATOM      6  O   UNL     1       4.211   7.875  16.602  0.00  0.00    +0.000 OA
ATOM      7  C   UNL     1       2.723   7.722  18.404  0.00  0.00    +0.000 A 
ATOM      8  C   UNL     1       2.089   8.921  18.035  0.00  0.00    +0.000 A 
ATOM      9  C   UNL     1       1.135   9.488  18.879  0.00  0.00    +0.000 A 
ATOM     10  C   UNL     1       0.836   8.876  20.094  0.00  0.00    +0.000 A 
ATOM     11  C   UNL     1       1.478   7.688  20.464  0.00  0.00    +0.000 A 
ATOM     12  C   UNL     1       2.410   7.095  19.606  0.00  0.00    +0.000 A 
ENDROOT
BRANCH   4  13
ATOM     13  C   UNL     1       5.058   5.208  16.766  0.00  0.00    +0.000 A 
ATOM     14  C   UNL     1       6.430   5.194  17.048  0.00  0.00    +0.000 A 
ATOM     15  C   UNL     1       7.341   4.672  16.127  0.00  0.00    +0.000 A 
ATOM     16  C   UNL     1       6.895   4.179  14.904  0.00  0.00    +0.000 A 
ATOM     17  C   UNL     1       5.534   4.175  14.614  0.00  0.00    +0.000 A 
ATOM     18  C   UNL     1       4.618   4.669  15.547  0.00  0.00    +0.000 A 
ENDBRANCH   4  13
BRANCH   1  19
ATOM     19  O   UNL     1       2.444   5.107  20.949  0.00  0.00    +0.000 OA
BRANCH  19  20
ATOM     20  C   UNL     1       1.204   4.509  20.543  0.00  0.00    +0.000 C 
BRANCH  20  22
ATOM     21  C   UNL     1       2.141   2.520  21.762  0.00  0.00    +0.000 C 
ATOM     22  C   UNL     1       1.175   3.094  21.033  0.00  0.00    +0.000 C 
ENDBRANCH  20  22
ENDBRANCH  19  20
ENDBRANCH   1  19
TORSDOF 4
ENDMDL
