MODEL 1
REMARK VINA RESULT:      -8.4      0.000      0.000
REMARK  Name = 
REMARK  6 active torsions:
REMARK  status: ('A' for Active; 'I' for Inactive)
REMARK    1  A    between atoms: C_1  and  C_2
REMARK    2  A    between atoms: C_2  and  N_3
REMARK    3  A    between atoms: C_5  and  C_6
REMARK    4  A    between atoms: C_8  and  C_9
REMARK    5  A    between atoms: N_11  and  C_12
REMARK    6  A    between atoms: N_20  and  C_21
REMARK                            x       y       z     vdW  Elec       q    Type
REMARK                         _______ _______ _______ _____ _____    ______ ____
ROOT
ATOM      1  C   UNL     1       2.791   5.313  18.290  0.00  0.00    +0.000 C 
ATOM      2  C   UNL     1       1.761   4.171  18.103  0.00  0.00    +0.000 C 
ATOM      3  C   UNL     1       2.230   2.736  17.733  0.00  0.00    +0.000 C 
ATOM      4  C   UNL     1       3.714   2.370  17.820  0.00  0.00    +0.000 C 
ATOM      5  C   UNL     1       4.530   3.557  18.070  0.00  0.00    +0.000 A 
ATOM      6  C   UNL     1       4.148   4.770  18.633  0.00  0.00    +0.000 A 
ATOM      7  C   UNL     1       5.404   5.200  19.126  0.00  0.00    +0.000 A 
ATOM      8  N   UNL     1       6.416   4.540  18.507  0.00  0.00    +0.000 NA
ATOM      9  N   UNL     1       5.738   3.919  17.489  0.00  0.00    +0.000 N 
ENDROOT
BRANCH   9  10
ATOM     10  C   UNL     1       5.881   4.433  16.141  0.00  0.00    +0.000 A 
ATOM     11  C   UNL     1       4.992   4.000  15.152  0.00  0.00    +0.000 A 
ATOM     12  C   UNL     1       5.360   4.088  13.811  0.00  0.00    +0.000 A 
ATOM     13  F   UNL     1       4.541   3.589  12.878  0.00  0.00    +0.000 F 
ATOM     14  C   UNL     1       6.589   4.611  13.425  0.00  0.00    +0.000 A 
ATOM     15  C   UNL     1       7.422   5.130  14.402  0.00  0.00    +0.000 A 
ATOM     16  F   UNL     1       8.620   5.621  14.053  0.00  0.00    +0.000 F 
ATOM     17  C   UNL     1       7.072   5.079  15.752  0.00  0.00    +0.000 A 
ENDBRANCH   9  10
BRANCH   1  20
ATOM     18  C   UNL     1       2.431   7.751  18.438  0.00  0.00    +0.000 C 
ATOM     19  O   UNL     1       3.387   7.888  17.666  0.00  0.00    +0.000 OA
ATOM     20  N   UNL     1       2.193   6.458  18.988  0.00  0.00    +0.000 N 
ATOM     21  H   UNL     1       1.314   6.323  19.479  0.00  0.00    +0.000 HD
BRANCH  18  27
ATOM     22  N   UNL     1       1.057   9.155  20.004  0.00  0.00    +0.000 N 
ATOM     23  N   UNL     1       0.219  10.208  20.063  0.00  0.00    +0.000 NA
ATOM     24  C   UNL     1       0.176  10.672  18.812  0.00  0.00    +0.000 A 
ATOM     25  C   UNL     1      -0.664  11.876  18.562  0.00  0.00    +0.000 C 
ATOM     26  C   UNL     1       0.984   9.870  17.953  0.00  0.00    +0.000 A 
ATOM     27  C   UNL     1       1.548   8.877  18.728  0.00  0.00    +0.000 A 
BRANCH  22  29
ATOM     28  C   UNL     1       0.558   9.167  22.445  0.00  0.00    +0.000 C 
ATOM     29  C   UNL     1       1.365   8.566  21.304  0.00  0.00    +0.000 C 
ENDBRANCH  22  29
ENDBRANCH  18  27
ENDBRANCH   1  20
TORSDOF 4
ENDMDL
MODEL 2
REMARK VINA RESULT:      -8.4      1.571      2.316
REMARK  Name = 
REMARK  6 active torsions:
REMARK  status: ('A' for Active; 'I' for Inactive)
REMARK    1  A    between atoms: C_1  and  C_2
REMARK    2  A    between atoms: C_2  and  N_3
REMARK    3  A    between atoms: C_5  and  C_6
REMARK    4  A    between atoms: C_8  and  C_9
REMARK    5  A    between atoms: N_11  and  C_12
REMARK    6  A    between atoms: N_20  and  C_21
REMARK                            x       y       z     vdW  Elec       q    Type
REMARK                         _______ _______ _______ _____ _____    ______ ____
ROOT
ATOM      1  C   UNL     1       2.374   5.000  19.595  0.00  0.00    +0.000 C 
ATOM      2  C   UNL     1       1.230   3.959  19.511  0.00  0.00    +0.000 C 
ATOM      3  C   UNL     1       1.498   2.530  18.959  0.00  0.00    +0.000 C 
ATOM      4  C   UNL     1       2.936   2.048  18.752  0.00  0.00    +0.000 C 
ATOM      5  C   UNL     1       3.885   3.144  18.939  0.00  0.00    +0.000 A 
ATOM      6  C   UNL     1       3.716   4.328  19.649  0.00  0.00    +0.000 A 
ATOM      7  C   UNL     1       5.071   4.618  19.939  0.00  0.00    +0.000 A 
ATOM      8  N   UNL     1       5.899   3.941  19.102  0.00  0.00    +0.000 NA
ATOM      9  N   UNL     1       5.003   3.464  18.179  0.00  0.00    +0.000 N 
ENDROOT
BRANCH   9  10
ATOM     10  C   UNL     1       4.957   4.082  16.868  0.00  0.00    +0.000 A 
ATOM     11  C   UNL     1       5.547   3.421  15.786  0.00  0.00    +0.000 A 
ATOM     12  C   UNL     1       5.930   4.152  14.662  0.00  0.00    +0.000 A 
ATOM     13  F   UNL     1       6.576   3.526  13.671  0.00  0.00    +0.000 F 
ATOM     14  C   UNL     1       5.729   5.524  14.581  0.00  0.00    +0.000 A 
ATOM     15  C   UNL     1       5.054   6.155  15.612  0.00  0.00    +0.000 A 
ATOM     16  F   UNL     1       4.867   7.482  15.562  0.00  0.00    +0.000 F 
ATOM     17  C   UNL     1       4.635   5.448  16.741  0.00  0.00    +0.000 A 
ENDBRANCH   9  10
BRANCH   1  20
ATOM     18  C   UNL     1       1.970   7.418  19.882  0.00  0.00    +0.000 C 
ATOM     19  O   UNL     1       2.579   7.594  18.820  0.00  0.00    +0.000 OA
ATOM     20  N   UNL     1       2.010   6.120  20.470  0.00  0.00    +0.000 N 
ATOM     21  H   UNL     1       1.373   5.947  21.242  0.00  0.00    +0.000 HD
BRANCH  18  27
ATOM     22  N   UNL     1       0.670   9.563  19.742  0.00  0.00    +0.000 N 
ATOM     23  N   UNL     1       0.025  10.489  20.478  0.00  0.00    +0.000 NA
ATOM     24  C   UNL     1       0.083  10.024  21.727  0.00  0.00    +0.000 A 
ATOM     25  C   UNL     1      -0.582  10.833  22.787  0.00  0.00    +0.000 C 
ATOM     26  C   UNL     1       0.805   8.795  21.770  0.00  0.00    +0.000 A 
ATOM     27  C   UNL     1       1.195   8.502  20.479  0.00  0.00    +0.000 A 
BRANCH  22  29
ATOM     28  C   UNL     1      -0.804  10.002  17.782  0.00  0.00    +0.000 C 
ATOM     29  C   UNL     1       0.611   9.801  18.303  0.00  0.00    +0.000 C 
ENDBRANCH  22  29
ENDBRANCH  18  27
ENDBRANCH   1  20
TORSDOF 4
ENDMDL
MODEL 3
REMARK VINA RESULT:      -8.2      1.106      1.350
REMARK  Name = 
REMARK  6 active torsions:
REMARK  status: ('A' for Active; 'I' for Inactive)
REMARK    1  A    between atoms: C_1  and  C_2
REMARK    2  A    between atoms: C_2  and  N_3
REMARK    3  A    between atoms: C_5  and  C_6
REMARK    4  A    between atoms: C_8  and  C_9
REMARK    5  A    between atoms: N_11  and  C_12
REMARK    6  A    between atoms: N_20  and  C_21
REMARK                            x       y       z     vdW  Elec       q    Type
REMARK                         _______ _______ _______ _____ _____    ______ ____
ROOT
ATOM      1  C   UNL     1       2.696   5.399  18.602  0.00  0.00    +0.000 C 
ATOM      2  C   UNL     1       1.637   4.313  18.285  0.00  0.00    +0.000 C 
ATOM      3  C   UNL     1       2.073   2.870  17.905  0.00  0.00    +0.000 C 
ATOM      4  C   UNL     1       3.526   2.432  18.107  0.00  0.00    +0.000 C 
ATOM      5  C   UNL     1       4.368   3.570  18.469  0.00  0.00    +0.000 A 
ATOM      6  C   UNL     1       3.993   4.782  19.041  0.00  0.00    +0.000 A 
ATOM      7  C   UNL     1       5.218   5.136  19.655  0.00  0.00    +0.000 A 
ATOM      8  N   UNL     1       6.251   4.449  19.102  0.00  0.00    +0.000 NA
ATOM      9  N   UNL     1       5.638   3.893  18.007  0.00  0.00    +0.000 N 
ENDROOT
BRANCH   9  10
ATOM     10  C   UNL     1       5.921   4.442  16.696  0.00  0.00    +0.000 A 
ATOM     11  C   UNL     1       5.497   5.742  16.399  0.00  0.00    +0.000 A 
ATOM     12  C   UNL     1       5.330   6.121  15.068  0.00  0.00    +0.000 A 
ATOM     13  F   UNL     1       4.837   7.336  14.796  0.00  0.00    +0.000 F 
ATOM     14  C   UNL     1       5.588   5.245  14.021  0.00  0.00    +0.000 A 
ATOM     15  C   UNL     1       6.104   3.995  14.319  0.00  0.00    +0.000 A 
ATOM     16  F   UNL     1       6.342   3.126  13.325  0.00  0.00    +0.000 F 
ATOM     17  C   UNL     1       6.306   3.592  15.640  0.00  0.00    +0.000 A 
ENDBRANCH   9  10
BRANCH   1  20
ATOM     18  C   UNL     1       2.283   7.831  18.696  0.00  0.00    +0.000 C 
ATOM     19  O   UNL     1       3.215   7.969  17.895  0.00  0.00    +0.000 OA
ATOM     20  N   UNL     1       2.091   6.548  19.286  0.00  0.00    +0.000 N 
ATOM     21  H   UNL     1       1.229   6.406  19.804  0.00  0.00    +0.000 HD
BRANCH  18  27
ATOM     22  N   UNL     1       0.903   9.232  20.260  0.00  0.00    +0.000 N 
ATOM     23  N   UNL     1       0.046  10.269  20.314  0.00  0.00    +0.000 NA
ATOM     24  C   UNL     1      -0.023  10.713  19.058  0.00  0.00    +0.000 A 
ATOM     25  C   UNL     1      -0.890  11.897  18.801  0.00  0.00    +0.000 C 
ATOM     26  C   UNL     1       0.788   9.914  18.200  0.00  0.00    +0.000 A 
ATOM     27  C   UNL     1       1.382   8.944  18.982  0.00  0.00    +0.000 A 
BRANCH  22  29
ATOM     28  C   UNL     1       0.544   9.369  22.721  0.00  0.00    +0.000 C 
ATOM     29  C   UNL     1       1.240   8.669  21.564  0.00  0.00    +0.000 C 
ENDBRANCH  22  29
ENDBRANCH  18  27
ENDBRANCH   1  20
TORSDOF 4
ENDMDL
MODEL 4
REMARK VINA RESULT:      -7.8      1.722      2.987
REMARK  Name = 
REMARK  6 active torsions:
REMARK  status: ('A' for Active; 'I' for Inactive)
REMARK    1  A    between atoms: C_1  and  C_2
REMARK    2  A    between atoms: C_2  and  N_3
REMARK    3  A    between atoms: C_5  and  C_6
REMARK    4  A    between atoms: C_8  and  C_9
REMARK    5  A    between atoms: N_11  and  C_12
REMARK    6  A    between atoms: N_20  and  C_21
REMARK                            x       y       z     vdW  Elec       q    Type
REMARK                         _______ _______ _______ _____ _____    ______ ____
ROOT
ATOM      1  C   UNL     1       2.483   5.528  19.218  0.00  0.00    +0.000 C 
ATOM      2  C   UNL     1       1.382   5.222  18.172  0.00  0.00    +0.000 C 
ATOM      3  C   UNL     1       1.512   3.998  17.221  0.00  0.00    +0.000 C 
ATOM      4  C   UNL     1       2.578   2.932  17.488  0.00  0.00    +0.000 C 
ATOM      5  C   UNL     1       3.486   3.358  18.552  0.00  0.00    +0.000 A 
ATOM      6  C   UNL     1       3.268   4.293  19.558  0.00  0.00    +0.000 A 
ATOM      7  C   UNL     1       4.191   3.817  20.519  0.00  0.00    +0.000 A 
ATOM      8  N   UNL     1       5.122   3.017  19.938  0.00  0.00    +0.000 NA
ATOM      9  N   UNL     1       4.869   3.246  18.609  0.00  0.00    +0.000 N 
ENDROOT
BRANCH   9  10
ATOM     10  C   UNL     1       5.794   4.069  17.855  0.00  0.00    +0.000 A 
ATOM     11  C   UNL     1       6.777   4.788  18.542  0.00  0.00    +0.000 A 
ATOM     12  C   UNL     1       7.354   5.906  17.943  0.00  0.00    +0.000 A 
ATOM     13  F   UNL     1       8.227   6.641  18.643  0.00  0.00    +0.000 F 
ATOM     14  C   UNL     1       6.988   6.321  16.668  0.00  0.00    +0.000 A 
ATOM     15  C   UNL     1       6.089   5.547  15.954  0.00  0.00    +0.000 A 
ATOM     16  F   UNL     1       5.708   5.940  14.730  0.00  0.00    +0.000 F 
ATOM     17  C   UNL     1       5.511   4.407  16.517  0.00  0.00    +0.000 A 
ENDBRANCH   9  10
BRANCH   1  20
ATOM     18  C   UNL     1       1.866   7.834  19.847  0.00  0.00    +0.000 C 
ATOM     19  O   UNL     1       2.485   8.218  18.848  0.00  0.00    +0.000 OA
ATOM     20  N   UNL     1       2.002   6.469  20.236  0.00  0.00    +0.000 N 
ATOM     21  H   UNL     1       1.362   6.129  20.947  0.00  0.00    +0.000 HD
BRANCH  18  27
ATOM     22  N   UNL     1       0.259   9.763  19.946  0.00  0.00    +0.000 N 
ATOM     23  N   UNL     1      -0.459  10.532  20.786  0.00  0.00    +0.000 NA
ATOM     24  C   UNL     1      -0.245  10.002  21.992  0.00  0.00    +0.000 A 
ATOM     25  C   UNL     1      -0.943  10.633  23.146  0.00  0.00    +0.000 C 
ATOM     26  C   UNL     1       0.651   8.896  21.900  0.00  0.00    +0.000 A 
ATOM     27  C   UNL     1       0.986   8.748  20.569  0.00  0.00    +0.000 A 
BRANCH  22  29
ATOM     28  C   UNL     1      -1.389  10.358  18.175  0.00  0.00    +0.000 C 
ATOM     29  C   UNL     1       0.063  10.079  18.534  0.00  0.00    +0.000 C 
ENDBRANCH  22  29
ENDBRANCH  18  27
ENDBRANCH   1  20
TORSDOF 4
ENDMDL
MODEL 5
REMARK VINA RESULT:      -7.7      1.344      1.419
REMARK  Name = 
REMARK  6 active torsions:
REMARK  status: ('A' for Active; 'I' for Inactive)
REMARK    1  A    between atoms: C_1  and  C_2
REMARK    2  A    between atoms: C_2  and  N_3
REMARK    3  A    between atoms: C_5  and  C_6
REMARK    4  A    between atoms: C_8  and  C_9
REMARK    5  A    between atoms: N_11  and  C_12
REMARK    6  A    between atoms: N_20  and  C_21
REMARK                            x       y       z     vdW  Elec       q    Type
REMARK                         _______ _______ _______ _____ _____    ______ ____
ROOT
ATOM      1  C   UNL     1       2.518   5.481  19.271  0.00  0.00    +0.000 C 
ATOM      2  C   UNL     1       1.489   4.334  19.431  0.00  0.00    +0.000 C 
ATOM      3  C   UNL     1       1.909   2.856  19.193  0.00  0.00    +0.000 C 
ATOM      4  C   UNL     1       3.391   2.492  19.072  0.00  0.00    +0.000 C 
ATOM      5  C   UNL     1       4.219   3.694  19.004  0.00  0.00    +0.000 A 
ATOM      6  C   UNL     1       3.923   4.979  19.446  0.00  0.00    +0.000 A 
ATOM      7  C   UNL     1       5.239   5.463  19.645  0.00  0.00    +0.000 A 
ATOM      8  N   UNL     1       6.138   4.711  18.960  0.00  0.00    +0.000 NA
ATOM      9  N   UNL     1       5.302   3.957  18.175  0.00  0.00    +0.000 N 
ENDROOT
BRANCH   9  10
ATOM     10  C   UNL     1       5.201   4.271  16.764  0.00  0.00    +0.000 A 
ATOM     11  C   UNL     1       5.799   3.414  15.834  0.00  0.00    +0.000 A 
ATOM     12  C   UNL     1       6.125   3.895  14.567  0.00  0.00    +0.000 A 
ATOM     13  F   UNL     1       6.778   3.095  13.716  0.00  0.00    +0.000 F 
ATOM     14  C   UNL     1       5.858   5.207  14.194  0.00  0.00    +0.000 A 
ATOM     15  C   UNL     1       5.175   6.020  15.084  0.00  0.00    +0.000 A 
ATOM     16  F   UNL     1       4.925   7.296  14.752  0.00  0.00    +0.000 F 
ATOM     17  C   UNL     1       4.813   5.561  16.351  0.00  0.00    +0.000 A 
ENDBRANCH   9  10
BRANCH   1  20
ATOM     18  C   UNL     1       2.116   7.912  19.114  0.00  0.00    +0.000 C 
ATOM     19  O   UNL     1       2.896   7.927  18.154  0.00  0.00    +0.000 OA
ATOM     20  N   UNL     1       2.034   6.720  19.891  0.00  0.00    +0.000 N 
ATOM     21  H   UNL     1       1.275   6.662  20.563  0.00  0.00    +0.000 HD
BRANCH  18  27
ATOM     22  N   UNL     1       0.890   9.436  20.691  0.00  0.00    +0.000 N 
ATOM     23  N   UNL     1       0.072  10.504  20.747  0.00  0.00    +0.000 NA
ATOM     24  C   UNL     1      -0.069  10.887  19.477  0.00  0.00    +0.000 A 
ATOM     25  C   UNL     1      -0.913  12.086  19.217  0.00  0.00    +0.000 C 
ATOM     26  C   UNL     1       0.657  10.018  18.610  0.00  0.00    +0.000 A 
ATOM     27  C   UNL     1       1.272   9.069  19.400  0.00  0.00    +0.000 A 
BRANCH  22  29
ATOM     28  C   UNL     1       0.374   9.358  23.126  0.00  0.00    +0.000 C 
ATOM     29  C   UNL     1       1.297   8.928  21.997  0.00  0.00    +0.000 C 
ENDBRANCH  22  29
ENDBRANCH  18  27
ENDBRANCH   1  20
TORSDOF 4
ENDMDL
MODEL 6
REMARK VINA RESULT:      -7.7      1.215      1.757
REMARK  Name = 
REMARK  6 active torsions:
REMARK  status: ('A' for Active; 'I' for Inactive)
REMARK    1  A    between atoms: C_1  and  C_2
REMARK    2  A    between atoms: C_2  and  N_3
REMARK    3  A    between atoms: C_5  and  C_6
REMARK    4  A    between atoms: C_8  and  C_9
REMARK    5  A    between atoms: N_11  and  C_12
REMARK    6  A    between atoms: N_20  and  C_21
REMARK                            x       y       z     vdW  Elec       q    Type
REMARK                         _______ _______ _______ _____ _____    ______ ____
ROOT
ATOM      1  C   UNL     1       3.121   6.035  18.448  0.00  0.00    +0.000 C 
ATOM      2  C   UNL     1       1.866   5.137  18.304  0.00  0.00    +0.000 C 
ATOM      3  C   UNL     1       2.004   3.642  17.901  0.00  0.00    +0.000 C 
ATOM      4  C   UNL     1       3.380   2.972  17.912  0.00  0.00    +0.000 C 
ATOM      5  C   UNL     1       4.438   3.956  18.129  0.00  0.00    +0.000 A 
ATOM      6  C   UNL     1       4.348   5.212  18.719  0.00  0.00    +0.000 A 
ATOM      7  C   UNL     1       5.688   5.360  19.150  0.00  0.00    +0.000 A 
ATOM      8  N   UNL     1       6.508   4.513  18.477  0.00  0.00    +0.000 NA
ATOM      9  N   UNL     1       5.667   4.066  17.490  0.00  0.00    +0.000 N 
ENDROOT
BRANCH   9  10
ATOM     10  C   UNL     1       5.851   4.561  16.140  0.00  0.00    +0.000 A 
ATOM     11  C   UNL     1       4.977   4.132  15.135  0.00  0.00    +0.000 A 
ATOM     12  C   UNL     1       5.379   4.198  13.802  0.00  0.00    +0.000 A 
ATOM     13  F   UNL     1       4.574   3.702  12.856  0.00  0.00    +0.000 F 
ATOM     14  C   UNL     1       6.625   4.695  13.440  0.00  0.00    +0.000 A 
ATOM     15  C   UNL     1       7.444   5.212  14.431  0.00  0.00    +0.000 A 
ATOM     16  F   UNL     1       8.659   5.678  14.105  0.00  0.00    +0.000 F 
ATOM     17  C   UNL     1       7.061   5.182  15.773  0.00  0.00    +0.000 A 
ENDBRANCH   9  10
BRANCH   1  20
ATOM     18  C   UNL     1       2.196   8.323  18.449  0.00  0.00    +0.000 C 
ATOM     19  O   UNL     1       2.291   8.308  17.216  0.00  0.00    +0.000 OA
ATOM     20  N   UNL     1       2.812   7.267  19.182  0.00  0.00    +0.000 N 
ATOM     21  H   UNL     1       2.583   7.200  20.169  0.00  0.00    +0.000 HD
BRANCH  18  27
ATOM     22  N   UNL     1       1.611  10.731  18.869  0.00  0.00    +0.000 N 
ATOM     23  N   UNL     1       0.844  11.544  19.621  0.00  0.00    +0.000 NA
ATOM     24  C   UNL     1       0.105  10.716  20.362  0.00  0.00    +0.000 A 
ATOM     25  C   UNL     1      -0.881  11.333  21.292  0.00  0.00    +0.000 C 
ATOM     26  C   UNL     1       0.442   9.359  20.084  0.00  0.00    +0.000 A 
ATOM     27  C   UNL     1       1.430   9.370  19.120  0.00  0.00    +0.000 A 
BRANCH  22  29
ATOM     28  C   UNL     1       2.590  12.909  18.162  0.00  0.00    +0.000 C 
ATOM     29  C   UNL     1       2.415  11.427  17.870  0.00  0.00    +0.000 C 
ENDBRANCH  22  29
ENDBRANCH  18  27
ENDBRANCH   1  20
TORSDOF 4
ENDMDL
MODEL 7
REMARK VINA RESULT:      -7.7      4.117      9.022
REMARK  Name = 
REMARK  6 active torsions:
REMARK  status: ('A' for Active; 'I' for Inactive)
REMARK    1  A    between atoms: C_1  and  C_2
REMARK    2  A    between atoms: C_2  and  N_3
REMARK    3  A    between atoms: C_5  and  C_6
REMARK    4  A    between atoms: C_8  and  C_9
REMARK    5  A    between atoms: N_11  and  C_12
REMARK    6  A    between atoms: N_20  and  C_21
REMARK                            x       y       z     vdW  Elec       q    Type
REMARK                         _______ _______ _______ _____ _____    ______ ____
ROOT
ATOM      1  C   UNL     1       0.994   9.699  18.196  0.00  0.00    +0.000 C 
ATOM      2  C   UNL     1      -0.307   9.276  17.468  0.00  0.00    +0.000 C 
ATOM      3  C   UNL     1      -1.583  10.159  17.553  0.00  0.00    +0.000 C 
ATOM      4  C   UNL     1      -1.495  11.579  18.118  0.00  0.00    +0.000 C 
ATOM      5  C   UNL     1      -0.177  11.827  18.701  0.00  0.00    +0.000 A 
ATOM      6  C   UNL     1       1.025  11.181  18.436  0.00  0.00    +0.000 A 
ATOM      7  C   UNL     1       1.925  12.208  18.809  0.00  0.00    +0.000 A 
ATOM      8  N   UNL     1       1.314  13.117  19.612  0.00  0.00    +0.000 NA
ATOM      9  N   UNL     1       0.139  12.467  19.893  0.00  0.00    +0.000 N 
ENDROOT
BRANCH   9  10
ATOM     10  C   UNL     1      -0.040  11.888  21.210  0.00  0.00    +0.000 A 
ATOM     11  C   UNL     1       0.667  10.728  21.542  0.00  0.00    +0.000 A 
ATOM     12  C   UNL     1       0.195   9.907  22.564  0.00  0.00    +0.000 A 
ATOM     13  F   UNL     1       0.827   8.753  22.814  0.00  0.00    +0.000 F 
ATOM     14  C   UNL     1      -0.957  10.217  23.277  0.00  0.00    +0.000 A 
ATOM     15  C   UNL     1      -1.594  11.417  23.011  0.00  0.00    +0.000 A 
ATOM     16  F   UNL     1      -2.719  11.727  23.674  0.00  0.00    +0.000 F 
ATOM     17  C   UNL     1      -1.134  12.274  22.010  0.00  0.00    +0.000 A 
ENDBRANCH   9  10
BRANCH   1  20
ATOM     18  C   UNL     1       2.560   7.806  18.436  0.00  0.00    +0.000 C 
ATOM     19  O   UNL     1       2.190   7.714  19.612  0.00  0.00    +0.000 OA
ATOM     20  N   UNL     1       2.152   8.951  17.691  0.00  0.00    +0.000 N 
ATOM     21  H   UNL     1       2.318   8.930  16.690  0.00  0.00    +0.000 HD
BRANCH  18  27
ATOM     22  N   UNL     1       2.929   5.413  17.766  0.00  0.00    +0.000 N 
ATOM     23  N   UNL     1       3.817   4.569  17.205  0.00  0.00    +0.000 NA
ATOM     24  C   UNL     1       4.837   5.350  16.841  0.00  0.00    +0.000 A 
ATOM     25  C   UNL     1       5.984   4.694  16.153  0.00  0.00    +0.000 C 
ATOM     26  C   UNL     1       4.587   6.704  17.212  0.00  0.00    +0.000 A 
ATOM     27  C   UNL     1       3.350   6.741  17.823  0.00  0.00    +0.000 A 
BRANCH  22  29
ATOM     28  C   UNL     1       1.655   4.173  19.510  0.00  0.00    +0.000 C 
ATOM     29  C   UNL     1       1.658   4.789  18.120  0.00  0.00    +0.000 C 
ENDBRANCH  22  29
ENDBRANCH  18  27
ENDBRANCH   1  20
TORSDOF 4
ENDMDL
MODEL 8
REMARK VINA RESULT:      -7.6      4.432      9.302
REMARK  Name = 
REMARK  6 active torsions:
REMARK  status: ('A' for Active; 'I' for Inactive)
REMARK    1  A    between atoms: C_1  and  C_2
REMARK    2  A    between atoms: C_2  and  N_3
REMARK    3  A    between atoms: C_5  and  C_6
REMARK    4  A    between atoms: C_8  and  C_9
REMARK    5  A    between atoms: N_11  and  C_12
REMARK    6  A    between atoms: N_20  and  C_21
REMARK                            x       y       z     vdW  Elec       q    Type
REMARK                         _______ _______ _______ _____ _____    ______ ____
ROOT
ATOM      1  C   UNL     1       0.637   9.891  18.459  0.00  0.00    +0.000 C 
ATOM      2  C   UNL     1      -0.663   9.620  17.661  0.00  0.00    +0.000 C 
ATOM      3  C   UNL     1      -1.788  10.691  17.594  0.00  0.00    +0.000 C 
ATOM      4  C   UNL     1      -1.515  12.118  18.078  0.00  0.00    +0.000 C 
ATOM      5  C   UNL     1      -0.217  12.203  18.744  0.00  0.00    +0.000 A 
ATOM      6  C   UNL     1       0.884  11.364  18.611  0.00  0.00    +0.000 A 
ATOM      7  C   UNL     1       1.908  12.266  18.990  0.00  0.00    +0.000 A 
ATOM      8  N   UNL     1       1.395  13.312  19.687  0.00  0.00    +0.000 NA
ATOM      9  N   UNL     1       0.116  12.871  19.916  0.00  0.00    +0.000 N 
ENDROOT
BRANCH   9  10
ATOM     10  C   UNL     1      -0.239  12.422  21.248  0.00  0.00    +0.000 A 
ATOM     11  C   UNL     1       0.040  11.101  21.615  0.00  0.00    +0.000 A 
ATOM     12  C   UNL     1      -0.674  10.514  22.658  0.00  0.00    +0.000 A 
ATOM     13  F   UNL     1      -0.465   9.222  22.941  0.00  0.00    +0.000 F 
ATOM     14  C   UNL     1      -1.651  11.212  23.357  0.00  0.00    +0.000 A 
ATOM     15  C   UNL     1      -1.850  12.549  23.056  0.00  0.00    +0.000 A 
ATOM     16  F   UNL     1      -2.801  13.236  23.706  0.00  0.00    +0.000 F 
ATOM     17  C   UNL     1      -1.134  13.174  22.034  0.00  0.00    +0.000 A 
ENDBRANCH   9  10
BRANCH   1  20
ATOM     18  C   UNL     1       2.080   7.985  19.076  0.00  0.00    +0.000 C 
ATOM     19  O   UNL     1       1.801   8.221  20.257  0.00  0.00    +0.000 OA
ATOM     20  N   UNL     1       1.694   8.941  18.091  0.00  0.00    +0.000 N 
ATOM     21  H   UNL     1       1.775   8.657  17.120  0.00  0.00    +0.000 HD
BRANCH  18  27
ATOM     22  N   UNL     1       2.586   5.549  19.424  0.00  0.00    +0.000 N 
ATOM     23  N   UNL     1       3.313   4.516  18.956  0.00  0.00    +0.000 NA
ATOM     24  C   UNL     1       3.935   5.004  17.881  0.00  0.00    +0.000 A 
ATOM     25  C   UNL     1       4.809   4.070  17.117  0.00  0.00    +0.000 C 
ATOM     26  C   UNL     1       3.609   6.380  17.696  0.00  0.00    +0.000 A 
ATOM     27  C   UNL     1       2.740   6.735  18.707  0.00  0.00    +0.000 A 
BRANCH  22  29
ATOM     28  C   UNL     1       0.992   3.871  20.345  0.00  0.00    +0.000 C 
ATOM     29  C   UNL     1       1.705   5.201  20.534  0.00  0.00    +0.000 C 
ENDBRANCH  22  29
ENDBRANCH  18  27
ENDBRANCH   1  20
TORSDOF 4
ENDMDL
MODEL 9
REMARK VINA RESULT:      -7.6      1.411      2.261
REMARK  Name = 
REMARK  6 active torsions:
REMARK  status: ('A' for Active; 'I' for Inactive)
REMARK    1  A    between atoms: C_1  and  C_2
REMARK    2  A    between atoms: C_2  and  N_3
REMARK    3  A    between atoms: C_5  and  C_6
REMARK    4  A    between atoms: C_8  and  C_9
REMARK    5  A    between atoms: N_11  and  C_12
REMARK    6  A    between atoms: N_20  and  C_21
REMARK                            x       y       z     vdW  Elec       q    Type
REMARK                         _______ _______ _______ _____ _____    ______ ____
ROOT
ATOM      1  C   UNL     1       2.961   5.620  19.064  0.00  0.00    +0.000 C 
ATOM      2  C   UNL     1       1.731   4.740  18.728  0.00  0.00    +0.000 C 
ATOM      3  C   UNL     1       1.916   3.315  18.135  0.00  0.00    +0.000 C 
ATOM      4  C   UNL     1       3.300   2.661  18.134  0.00  0.00    +0.000 C 
ATOM      5  C   UNL     1       4.328   3.616  18.543  0.00  0.00    +0.000 A 
ATOM      6  C   UNL     1       4.185   4.779  19.291  0.00  0.00    +0.000 A 
ATOM      7  C   UNL     1       5.496   4.879  19.815  0.00  0.00    +0.000 A 
ATOM      8  N   UNL     1       6.366   4.138  19.082  0.00  0.00    +0.000 NA
ATOM      9  N   UNL     1       5.589   3.822  17.996  0.00  0.00    +0.000 N 
ENDROOT
BRANCH   9  10
ATOM     10  C   UNL     1       5.840   4.498  16.739  0.00  0.00    +0.000 A 
ATOM     11  C   UNL     1       5.319   5.781  16.543  0.00  0.00    +0.000 A 
ATOM     12  C   UNL     1       5.134   6.256  15.246  0.00  0.00    +0.000 A 
ATOM     13  F   UNL     1       4.551   7.447  15.067  0.00  0.00    +0.000 F 
ATOM     14  C   UNL     1       5.468   5.491  14.134  0.00  0.00    +0.000 A 
ATOM     15  C   UNL     1       6.077   4.263  14.336  0.00  0.00    +0.000 A 
ATOM     16  F   UNL     1       6.389   3.501  13.278  0.00  0.00    +0.000 F 
ATOM     17  C   UNL     1       6.298   3.769  15.623  0.00  0.00    +0.000 A 
ENDBRANCH   9  10
BRANCH   1  20
ATOM     18  C   UNL     1       1.953   7.858  19.329  0.00  0.00    +0.000 C 
ATOM     19  O   UNL     1       2.075   8.002  18.107  0.00  0.00    +0.000 OA
ATOM     20  N   UNL     1       2.592   6.738  19.939  0.00  0.00    +0.000 N 
ATOM     21  H   UNL     1       2.345   6.539  20.904  0.00  0.00    +0.000 HD
BRANCH  18  27
ATOM     22  N   UNL     1       0.430   9.845  19.536  0.00  0.00    +0.000 N 
ATOM     23  N   UNL     1      -0.228  10.617  20.422  0.00  0.00    +0.000 NA
ATOM     24  C   UNL     1       0.004  10.044  21.604  0.00  0.00    +0.000 A 
ATOM     25  C   UNL     1      -0.630  10.668  22.799  0.00  0.00    +0.000 C 
ATOM     26  C   UNL     1       0.850   8.907  21.451  0.00  0.00    +0.000 A 
ATOM     27  C   UNL     1       1.135   8.785  20.106  0.00  0.00    +0.000 A 
BRANCH  22  29
ATOM     28  C   UNL     1      -1.238  10.006  17.693  0.00  0.00    +0.000 C 
ATOM     29  C   UNL     1       0.201  10.210  18.142  0.00  0.00    +0.000 C 
ENDBRANCH  22  29
ENDBRANCH  18  27
ENDBRANCH   1  20
TORSDOF 4
ENDMDL
