MODEL 1
REMARK VINA RESULT:      -7.8      0.000      0.000
REMARK  Name = 
REMARK  7 active torsions:
REMARK  status: ('A' for Active; 'I' for Inactive)
REMARK    1  A    between atoms: C_6  and  N_7
REMARK    2  A    between atoms: N_7  and  C_8
REMARK    3  A    between atoms: C_8  and  C_9
REMARK    4  A    between atoms: N_11  and  C_12
REMARK    5  A    between atoms: C_12  and  C_13
REMARK    6  A    between atoms: C_13  and  C_14
REMARK    7  A    between atoms: C_14  and  N_15
REMARK                            x       y       z     vdW  Elec       q    Type
REMARK                         _______ _______ _______ _____ _____    ______ ____
ROOT
ATOM      1  C   UNL     1       6.544   4.645  17.044  0.00  0.00    +0.000 C 
ENDROOT
BRANCH   1   2
ATOM      2  C   UNL     1       7.251   5.863  17.514  0.00  0.00    +0.000 A 
ATOM      3  C   UNL     1       7.295   7.113  16.941  0.00  0.00    +0.000 A 
ATOM      4  N   UNL     1       7.936   7.876  17.865  0.00  0.00    +0.000 N 
ATOM      5  N   UNL     1       8.324   7.140  18.920  0.00  0.00    +0.000 NA
ATOM      6  N   UNL     1       7.906   5.898  18.717  0.00  0.00    +0.000 NA
BRANCH   4   7
ATOM      7  C   UNL     1       8.197   9.295  17.842  0.00  0.00    +0.000 C 
BRANCH   7   8
ATOM      8  C   UNL     1       9.027   9.825  19.012  0.00  0.00    +0.000 C 
BRANCH   8   9
ATOM      9  C   UNL     1       9.831  11.087  18.660  0.00  0.00    +0.000 C 
BRANCH   9  10
ATOM     10  N   UNL     1       9.774  12.100  19.729  0.00  0.00    +0.000 NA
ATOM     11  C   UNL     1       9.077  13.345  19.336  0.00  0.00    +0.000 C 
ATOM     12  C   UNL     1       9.853  14.178  18.305  0.00  0.00    +0.000 C 
ATOM     13  O   UNL     1      11.147  14.533  18.805  0.00  0.00    +0.000 OA
ATOM     14  C   UNL     1      11.898  13.369  19.170  0.00  0.00    +0.000 C 
ATOM     15  C   UNL     1      11.136  12.486  20.176  0.00  0.00    +0.000 C 
ENDBRANCH   9  10
ENDBRANCH   8   9
ENDBRANCH   7   8
ENDBRANCH   4   7
ENDBRANCH   1   2
BRANCH   1  16
ATOM     16  N   UNL     1       5.142   4.794  16.638  0.00  0.00    +0.000 N 
ATOM     17  H   UNL     1       4.770   3.929  16.249  0.00  0.00    +0.000 HD
BRANCH  16  23
ATOM     18 CL   UNL     1       1.462   2.459  21.924  0.00  0.00    +0.000 Cl
ATOM     19  C   UNL     1       2.292   3.273  20.655  0.00  0.00    +0.000 A 
ATOM     20  C   UNL     1       3.206   2.589  19.868  0.00  0.00    +0.000 A 
ATOM     21  C   UNL     1       3.863   3.263  18.836  0.00  0.00    +0.000 A 
ATOM     22  C   UNL     1       3.619   4.639  18.581  0.00  0.00    +0.000 A 
ATOM     23  C   UNL     1       4.245   5.399  17.548  0.00  0.00    +0.000 A 
ATOM     24  C   UNL     1       3.841   6.731  17.387  0.00  0.00    +0.000 A 
ATOM     25  C   UNL     1       2.922   7.277  18.257  0.00  0.00    +0.000 A 
ATOM     26  N   UNL     1       2.348   6.594  19.257  0.00  0.00    +0.000 NA
ATOM     27  C   UNL     1       2.678   5.306  19.406  0.00  0.00    +0.000 A 
ATOM     28  C   UNL     1       2.036   4.618  20.420  0.00  0.00    +0.000 A 
ENDBRANCH  16  23
ENDBRANCH   1  16
TORSDOF 7
ENDMDL
MODEL 2
REMARK VINA RESULT:      -7.7      1.669      2.705
REMARK  Name = 
REMARK  7 active torsions:
REMARK  status: ('A' for Active; 'I' for Inactive)
REMARK    1  A    between atoms: C_6  and  N_7
REMARK    2  A    between atoms: N_7  and  C_8
REMARK    3  A    between atoms: C_8  and  C_9
REMARK    4  A    between atoms: N_11  and  C_12
REMARK    5  A    between atoms: C_12  and  C_13
REMARK    6  A    between atoms: C_13  and  C_14
REMARK    7  A    between atoms: C_14  and  N_15
REMARK                            x       y       z     vdW  Elec       q    Type
REMARK                         _______ _______ _______ _____ _____    ______ ____
ROOT
ATOM      1  C   UNL     1       5.821   4.404  15.985  0.00  0.00    +0.000 C 
ENDROOT
BRANCH   1   2
ATOM      2  C   UNL     1       6.789   5.060  16.901  0.00  0.00    +0.000 A 
ATOM      3  C   UNL     1       7.015   6.402  17.102  0.00  0.00    +0.000 A 
ATOM      4  N   UNL     1       7.875   6.436  18.154  0.00  0.00    +0.000 N 
ATOM      5  N   UNL     1       8.216   5.196  18.546  0.00  0.00    +0.000 NA
ATOM      6  N   UNL     1       7.551   4.340  17.782  0.00  0.00    +0.000 NA
BRANCH   4   7
ATOM      7  C   UNL     1       8.398   7.582  18.858  0.00  0.00    +0.000 C 
BRANCH   7   8
ATOM      8  C   UNL     1       8.386   8.892  18.070  0.00  0.00    +0.000 C 
BRANCH   8   9
ATOM      9  C   UNL     1       8.828  10.104  18.907  0.00  0.00    +0.000 C 
BRANCH   9  10
ATOM     10  N   UNL     1       9.819  10.936  18.203  0.00  0.00    +0.000 NA
ATOM     11  C   UNL     1      11.046  11.196  18.989  0.00  0.00    +0.000 C 
ATOM     12  C   UNL     1      10.815  12.125  20.190  0.00  0.00    +0.000 C 
ATOM     13  O   UNL     1      10.284  13.386  19.765  0.00  0.00    +0.000 OA
ATOM     14  C   UNL     1       9.067  13.214  19.029  0.00  0.00    +0.000 C 
ATOM     15  C   UNL     1       9.249  12.256  17.835  0.00  0.00    +0.000 C 
ENDBRANCH   9  10
ENDBRANCH   8   9
ENDBRANCH   7   8
ENDBRANCH   4   7
ENDBRANCH   1   2
BRANCH   1  16
ATOM     16  N   UNL     1       4.398   4.707  16.178  0.00  0.00    +0.000 N 
ATOM     17  H   UNL     1       3.847   4.455  15.360  0.00  0.00    +0.000 HD
BRANCH  16  23
ATOM     18 CL   UNL     1       1.076   7.994  21.188  0.00  0.00    +0.000 Cl
ATOM     19  C   UNL     1       1.859   6.957  20.059  0.00  0.00    +0.000 A 
ATOM     20  C   UNL     1       2.360   7.470  18.873  0.00  0.00    +0.000 A 
ATOM     21  C   UNL     1       3.002   6.614  17.972  0.00  0.00    +0.000 A 
ATOM     22  C   UNL     1       3.145   5.228  18.246  0.00  0.00    +0.000 A 
ATOM     23  C   UNL     1       3.787   4.290  17.383  0.00  0.00    +0.000 A 
ATOM     24  C   UNL     1       3.904   2.969  17.834  0.00  0.00    +0.000 A 
ATOM     25  C   UNL     1       3.345   2.606  19.041  0.00  0.00    +0.000 A 
ATOM     26  N   UNL     1       2.705   3.460  19.852  0.00  0.00    +0.000 NA
ATOM     27  C   UNL     1       2.620   4.740  19.470  0.00  0.00    +0.000 A 
ATOM     28  C   UNL     1       1.992   5.604  20.347  0.00  0.00    +0.000 A 
ENDBRANCH  16  23
ENDBRANCH   1  16
TORSDOF 7
ENDMDL
MODEL 3
REMARK VINA RESULT:      -7.5      6.113      9.275
REMARK  Name = 
REMARK  7 active torsions:
REMARK  status: ('A' for Active; 'I' for Inactive)
REMARK    1  A    between atoms: C_6  and  N_7
REMARK    2  A    between atoms: N_7  and  C_8
REMARK    3  A    between atoms: C_8  and  C_9
REMARK    4  A    between atoms: N_11  and  C_12
REMARK    5  A    between atoms: C_12  and  C_13
REMARK    6  A    between atoms: C_13  and  C_14
REMARK    7  A    between atoms: C_14  and  N_15
REMARK                            x       y       z     vdW  Elec       q    Type
REMARK                         _______ _______ _______ _____ _____    ______ ____
ROOT
ATOM      1  C   UNL     1       1.715   7.790  20.810  0.00  0.00    +0.000 C 
ENDROOT
BRANCH   1   2
ATOM      2  C   UNL     1       0.970   9.051  21.053  0.00  0.00    +0.000 A 
ATOM      3  C   UNL     1       0.829  10.144  20.228  0.00  0.00    +0.000 A 
ATOM      4  N   UNL     1      -0.079  10.925  20.872  0.00  0.00    +0.000 N 
ATOM      5  N   UNL     1      -0.435  10.389  22.051  0.00  0.00    +0.000 NA
ATOM      6  N   UNL     1       0.202   9.232  22.173  0.00  0.00    +0.000 NA
BRANCH   4   7
ATOM      7  C   UNL     1      -0.674  12.165  20.436  0.00  0.00    +0.000 C 
BRANCH   7   8
ATOM      8  C   UNL     1      -2.029  12.029  19.740  0.00  0.00    +0.000 C 
BRANCH   8   9
ATOM      9  C   UNL     1      -1.909  11.649  18.255  0.00  0.00    +0.000 C 
BRANCH   9  10
ATOM     10  N   UNL     1      -2.659  10.422  17.932  0.00  0.00    +0.000 NA
ATOM     11  C   UNL     1      -2.307   9.835  16.619  0.00  0.00    +0.000 C 
ATOM     12  C   UNL     1      -2.776  10.683  15.428  0.00  0.00    +0.000 C 
ATOM     13  O   UNL     1      -4.195  10.872  15.463  0.00  0.00    +0.000 OA
ATOM     14  C   UNL     1      -4.606  11.477  16.695  0.00  0.00    +0.000 C 
ATOM     15  C   UNL     1      -4.122  10.675  17.918  0.00  0.00    +0.000 C 
ENDBRANCH   9  10
ENDBRANCH   8   9
ENDBRANCH   7   8
ENDBRANCH   4   7
ENDBRANCH   1   2
BRANCH   1  16
ATOM     16  N   UNL     1       2.149   7.516  19.436  0.00  0.00    +0.000 N 
ATOM     17  H   UNL     1       2.829   8.202  19.114  0.00  0.00    +0.000 HD
BRANCH  16  23
ATOM     18 CL   UNL     1       6.335   4.813  14.733  0.00  0.00    +0.000 Cl
ATOM     19  C   UNL     1       5.248   5.254  15.993  0.00  0.00    +0.000 A 
ATOM     20  C   UNL     1       5.008   6.591  16.271  0.00  0.00    +0.000 A 
ATOM     21  C   UNL     1       4.115   6.931  17.291  0.00  0.00    +0.000 A 
ATOM     22  C   UNL     1       3.453   5.932  18.054  0.00  0.00    +0.000 A 
ATOM     23  C   UNL     1       2.527   6.194  19.107  0.00  0.00    +0.000 A 
ATOM     24  C   UNL     1       1.909   5.093  19.715  0.00  0.00    +0.000 A 
ATOM     25  C   UNL     1       2.257   3.816  19.334  0.00  0.00    +0.000 A 
ATOM     26  N   UNL     1       3.151   3.544  18.372  0.00  0.00    +0.000 NA
ATOM     27  C   UNL     1       3.722   4.575  17.740  0.00  0.00    +0.000 A 
ATOM     28  C   UNL     1       4.608   4.262  16.725  0.00  0.00    +0.000 A 
ENDBRANCH  16  23
ENDBRANCH   1  16
TORSDOF 7
ENDMDL
MODEL 4
REMARK VINA RESULT:      -7.4      5.101      7.663
REMARK  Name = 
REMARK  7 active torsions:
REMARK  status: ('A' for Active; 'I' for Inactive)
REMARK    1  A    between atoms: C_6  and  N_7
REMARK    2  A    between atoms: N_7  and  C_8
REMARK    3  A    between atoms: C_8  and  C_9
REMARK    4  A    between atoms: N_11  and  C_12
REMARK    5  A    between atoms: C_12  and  C_13
REMARK    6  A    between atoms: C_13  and  C_14
REMARK    7  A    between atoms: C_14  and  N_15
REMARK                            x       y       z     vdW  Elec       q    Type
REMARK                         _______ _______ _______ _____ _____    ______ ____
ROOT
ATOM      1  C   UNL     1       1.259   6.015  20.934  0.00  0.00    +0.000 C 
ENDROOT
BRANCH   1   2
ATOM      2  C   UNL     1       1.583   4.746  20.234  0.00  0.00    +0.000 A 
ATOM      3  C   UNL     1       1.821   4.534  18.896  0.00  0.00    +0.000 A 
ATOM      4  N   UNL     1       2.227   3.238  18.836  0.00  0.00    +0.000 N 
ATOM      5  N   UNL     1       2.185   2.658  20.047  0.00  0.00    +0.000 NA
ATOM      6  N   UNL     1       1.792   3.578  20.918  0.00  0.00    +0.000 NA
BRANCH   4   7
ATOM      7  C   UNL     1       2.690   2.487  17.694  0.00  0.00    +0.000 C 
BRANCH   7   8
ATOM      8  C   UNL     1       4.053   2.910  17.145  0.00  0.00    +0.000 C 
BRANCH   8   9
ATOM      9  C   UNL     1       4.240   4.436  17.100  0.00  0.00    +0.000 C 
BRANCH   9  10
ATOM     10  N   UNL     1       5.110   4.858  15.989  0.00  0.00    +0.000 NA
ATOM     11  C   UNL     1       6.435   4.197  15.984  0.00  0.00    +0.000 C 
ATOM     12  C   UNL     1       7.343   4.647  17.138  0.00  0.00    +0.000 C 
ATOM     13  O   UNL     1       7.553   6.063  17.102  0.00  0.00    +0.000 OA
ATOM     14  C   UNL     1       6.309   6.772  17.144  0.00  0.00    +0.000 C 
ATOM     15  C   UNL     1       5.353   6.322  16.022  0.00  0.00    +0.000 C 
ENDBRANCH   9  10
ENDBRANCH   8   9
ENDBRANCH   7   8
ENDBRANCH   4   7
ENDBRANCH   1   2
BRANCH   1  16
ATOM     16  N   UNL     1       2.144   7.161  20.698  0.00  0.00    +0.000 N 
ATOM     17  H   UNL     1       3.008   6.879  20.240  0.00  0.00    +0.000 HD
BRANCH  16  23
ATOM     18 CL   UNL     1      -1.806  12.222  23.093  0.00  0.00    +0.000 Cl
ATOM     19  C   UNL     1      -0.814  11.078  22.273  0.00  0.00    +0.000 A 
ATOM     20  C   UNL     1      -0.263  10.011  22.965  0.00  0.00    +0.000 A 
ATOM     21  C   UNL     1       0.531   9.086  22.280  0.00  0.00    +0.000 A 
ATOM     22  C   UNL     1       0.791   9.223  20.890  0.00  0.00    +0.000 A 
ATOM     23  C   UNL     1       1.587   8.325  20.119  0.00  0.00    +0.000 A 
ATOM     24  C   UNL     1       1.687   8.565  18.743  0.00  0.00    +0.000 A 
ATOM     25  C   UNL     1       1.085   9.679  18.197  0.00  0.00    +0.000 A 
ATOM     26  N   UNL     1       0.363  10.557  18.907  0.00  0.00    +0.000 NA
ATOM     27  C   UNL     1       0.209  10.327  20.216  0.00  0.00    +0.000 A 
ATOM     28  C   UNL     1      -0.576  11.228  20.912  0.00  0.00    +0.000 A 
ENDBRANCH  16  23
ENDBRANCH   1  16
TORSDOF 7
ENDMDL
MODEL 5
REMARK VINA RESULT:      -7.4      5.011      7.956
REMARK  Name = 
REMARK  7 active torsions:
REMARK  status: ('A' for Active; 'I' for Inactive)
REMARK    1  A    between atoms: C_6  and  N_7
REMARK    2  A    between atoms: N_7  and  C_8
REMARK    3  A    between atoms: C_8  and  C_9
REMARK    4  A    between atoms: N_11  and  C_12
REMARK    5  A    between atoms: C_12  and  C_13
REMARK    6  A    between atoms: C_13  and  C_14
REMARK    7  A    between atoms: C_14  and  N_15
REMARK                            x       y       z     vdW  Elec       q    Type
REMARK                         _______ _______ _______ _____ _____    ______ ____
ROOT
ATOM      1  C   UNL     1       1.306   8.538  20.722  0.00  0.00    +0.000 C 
ENDROOT
BRANCH   1   2
ATOM      2  C   UNL     1       1.992   7.499  19.912  0.00  0.00    +0.000 A 
ATOM      3  C   UNL     1       2.227   6.179  20.221  0.00  0.00    +0.000 A 
ATOM      4  N   UNL     1       2.731   5.658  19.071  0.00  0.00    +0.000 N 
ATOM      5  N   UNL     1       2.861   6.602  18.124  0.00  0.00    +0.000 NA
ATOM      6  N   UNL     1       2.406   7.741  18.629  0.00  0.00    +0.000 NA
BRANCH   4   7
ATOM      7  C   UNL     1       3.086   4.290  18.777  0.00  0.00    +0.000 C 
BRANCH   7   8
ATOM      8  C   UNL     1       4.544   3.921  19.053  0.00  0.00    +0.000 C 
BRANCH   8   9
ATOM      9  C   UNL     1       5.468   5.146  19.151  0.00  0.00    +0.000 C 
BRANCH   9  10
ATOM     10  N   UNL     1       6.845   4.840  18.724  0.00  0.00    +0.000 NA
ATOM     11  C   UNL     1       7.784   5.974  18.879  0.00  0.00    +0.000 C 
ATOM     12  C   UNL     1       7.516   7.124  17.898  0.00  0.00    +0.000 C 
ATOM     13  O   UNL     1       7.591   6.669  16.542  0.00  0.00    +0.000 OA
ATOM     14  C   UNL     1       6.675   5.592  16.307  0.00  0.00    +0.000 C 
ATOM     15  C   UNL     1       6.887   4.431  17.298  0.00  0.00    +0.000 C 
ENDBRANCH   9  10
ENDBRANCH   8   9
ENDBRANCH   7   8
ENDBRANCH   4   7
ENDBRANCH   1   2
BRANCH   1  16
ATOM     16  N   UNL     1       1.242   9.894  20.165  0.00  0.00    +0.000 N 
ATOM     17  H   UNL     1       1.507   9.909  19.182  0.00  0.00    +0.000 HD
BRANCH  16  23
ATOM     18 CL   UNL     1      -4.349  11.383  16.495  0.00  0.00    +0.000 Cl
ATOM     19  C   UNL     1      -3.053  11.142  17.603  0.00  0.00    +0.000 A 
ATOM     20  C   UNL     1      -1.999  10.306  17.271  0.00  0.00    +0.000 A 
ATOM     21  C   UNL     1      -0.951  10.130  18.179  0.00  0.00    +0.000 A 
ATOM     22  C   UNL     1      -0.948  10.786  19.439  0.00  0.00    +0.000 A 
ATOM     23  C   UNL     1       0.082  10.663  20.418  0.00  0.00    +0.000 A 
ATOM     24  C   UNL     1      -0.034  11.433  21.582  0.00  0.00    +0.000 A 
ATOM     25  C   UNL     1      -1.151  12.218  21.775  0.00  0.00    +0.000 A 
ATOM     26  N   UNL     1      -2.149  12.322  20.885  0.00  0.00    +0.000 NA
ATOM     27  C   UNL     1      -2.043  11.635  19.743  0.00  0.00    +0.000 A 
ATOM     28  C   UNL     1      -3.068  11.797  18.828  0.00  0.00    +0.000 A 
ENDBRANCH  16  23
ENDBRANCH   1  16
TORSDOF 7
ENDMDL
MODEL 6
REMARK VINA RESULT:      -7.4      4.267      9.655
REMARK  Name = 
REMARK  7 active torsions:
REMARK  status: ('A' for Active; 'I' for Inactive)
REMARK    1  A    between atoms: C_6  and  N_7
REMARK    2  A    between atoms: N_7  and  C_8
REMARK    3  A    between atoms: C_8  and  C_9
REMARK    4  A    between atoms: N_11  and  C_12
REMARK    5  A    between atoms: C_12  and  C_13
REMARK    6  A    between atoms: C_13  and  C_14
REMARK    7  A    between atoms: C_14  and  N_15
REMARK                            x       y       z     vdW  Elec       q    Type
REMARK                         _______ _______ _______ _____ _____    ______ ____
ROOT
ATOM      1  C   UNL     1       8.352   9.382  18.141  0.00  0.00    +0.000 C 
ENDROOT
BRANCH   1   2
ATOM      2  C   UNL     1       7.900   7.978  17.962  0.00  0.00    +0.000 A 
ATOM      3  C   UNL     1       7.218   7.419  16.906  0.00  0.00    +0.000 A 
ATOM      4  N   UNL     1       7.214   6.088  17.186  0.00  0.00    +0.000 N 
ATOM      5  N   UNL     1       7.798   5.838  18.370  0.00  0.00    +0.000 NA
ATOM      6  N   UNL     1       8.228   6.994  18.856  0.00  0.00    +0.000 NA
BRANCH   4   7
ATOM      7  C   UNL     1       6.708   4.998  16.388  0.00  0.00    +0.000 C 
BRANCH   7   8
ATOM      8  C   UNL     1       5.678   4.105  17.081  0.00  0.00    +0.000 C 
BRANCH   8   9
ATOM      9  C   UNL     1       4.375   4.843  17.429  0.00  0.00    +0.000 C 
BRANCH   9  10
ATOM     10  N   UNL     1       3.192   3.973  17.307  0.00  0.00    +0.000 NA
ATOM     11  C   UNL     1       1.955   4.567  17.862  0.00  0.00    +0.000 C 
ATOM     12  C   UNL     1       1.968   4.681  19.393  0.00  0.00    +0.000 C 
ATOM     13  O   UNL     1       2.155   3.397  20.000  0.00  0.00    +0.000 OA
ATOM     14  C   UNL     1       3.362   2.778  19.538  0.00  0.00    +0.000 C 
ATOM     15  C   UNL     1       3.404   2.678  18.001  0.00  0.00    +0.000 C 
ENDBRANCH   9  10
ENDBRANCH   8   9
ENDBRANCH   7   8
ENDBRANCH   4   7
ENDBRANCH   1   2
BRANCH   1  16
ATOM     16  N   UNL     1       9.247   9.663  19.268  0.00  0.00    +0.000 N 
ATOM     17  H   UNL     1       9.891   8.893  19.438  0.00  0.00    +0.000 HD
BRANCH  16  23
ATOM     18 CL   UNL     1       9.139  14.922  23.659  0.00  0.00    +0.000 Cl
ATOM     19  C   UNL     1       9.337  13.736  22.428  0.00  0.00    +0.000 A 
ATOM     20  C   UNL     1       8.704  12.507  22.534  0.00  0.00    +0.000 A 
ATOM     21  C   UNL     1       8.869  11.560  21.520  0.00  0.00    +0.000 A 
ATOM     22  C   UNL     1       9.679  11.828  20.384  0.00  0.00    +0.000 A 
ATOM     23  C   UNL     1       9.896  10.919  19.306  0.00  0.00    +0.000 A 
ATOM     24  C   UNL     1      10.668  11.366  18.226  0.00  0.00    +0.000 A 
ATOM     25  C   UNL     1      11.242  12.619  18.267  0.00  0.00    +0.000 A 
ATOM     26  N   UNL     1      11.082  13.477  19.285  0.00  0.00    +0.000 NA
ATOM     27  C   UNL     1      10.310  13.096  20.309  0.00  0.00    +0.000 A 
ATOM     28  C   UNL     1      10.130  14.020  21.323  0.00  0.00    +0.000 A 
ENDBRANCH  16  23
ENDBRANCH   1  16
TORSDOF 7
ENDMDL
MODEL 7
REMARK VINA RESULT:      -7.3      4.356      9.697
REMARK  Name = 
REMARK  7 active torsions:
REMARK  status: ('A' for Active; 'I' for Inactive)
REMARK    1  A    between atoms: C_6  and  N_7
REMARK    2  A    between atoms: N_7  and  C_8
REMARK    3  A    between atoms: C_8  and  C_9
REMARK    4  A    between atoms: N_11  and  C_12
REMARK    5  A    between atoms: C_12  and  C_13
REMARK    6  A    between atoms: C_13  and  C_14
REMARK    7  A    between atoms: C_14  and  N_15
REMARK                            x       y       z     vdW  Elec       q    Type
REMARK                         _______ _______ _______ _____ _____    ______ ____
ROOT
ATOM      1  C   UNL     1       8.597   9.722  18.163  0.00  0.00    +0.000 C 
ENDROOT
BRANCH   1   2
ATOM      2  C   UNL     1       7.979   8.400  17.888  0.00  0.00    +0.000 A 
ATOM      3  C   UNL     1       8.149   7.210  18.559  0.00  0.00    +0.000 A 
ATOM      4  N   UNL     1       7.229   6.382  17.996  0.00  0.00    +0.000 N 
ATOM      5  N   UNL     1       6.570   6.993  16.997  0.00  0.00    +0.000 NA
ATOM      6  N   UNL     1       7.021   8.237  16.922  0.00  0.00    +0.000 NA
BRANCH   4   7
ATOM      7  C   UNL     1       6.895   5.025  18.355  0.00  0.00    +0.000 C 
BRANCH   7   8
ATOM      8  C   UNL     1       5.870   4.343  17.448  0.00  0.00    +0.000 C 
BRANCH   8   9
ATOM      9  C   UNL     1       4.691   3.731  18.221  0.00  0.00    +0.000 C 
BRANCH   9  10
ATOM     10  N   UNL     1       3.869   4.756  18.888  0.00  0.00    +0.000 NA
ATOM     11  C   UNL     1       3.168   4.267  20.096  0.00  0.00    +0.000 C 
ATOM     12  C   UNL     1       2.041   3.272  19.784  0.00  0.00    +0.000 C 
ATOM     13  O   UNL     1       1.067   3.859  18.913  0.00  0.00    +0.000 OA
ATOM     14  C   UNL     1       1.671   4.321  17.699  0.00  0.00    +0.000 C 
ATOM     15  C   UNL     1       2.834   5.295  17.970  0.00  0.00    +0.000 C 
ENDBRANCH   9  10
ENDBRANCH   8   9
ENDBRANCH   7   8
ENDBRANCH   4   7
ENDBRANCH   1   2
BRANCH   1  16
ATOM     16  N   UNL     1       9.328   9.876  19.425  0.00  0.00    +0.000 N 
ATOM     17  H   UNL     1       9.902   9.060  19.629  0.00  0.00    +0.000 HD
BRANCH  16  23
ATOM     18 CL   UNL     1       8.618  14.980  23.940  0.00  0.00    +0.000 Cl
ATOM     19  C   UNL     1       8.997  13.826  22.721  0.00  0.00    +0.000 A 
ATOM     20  C   UNL     1       8.290  12.636  22.642  0.00  0.00    +0.000 A 
ATOM     21  C   UNL     1       8.605  11.715  21.639  0.00  0.00    +0.000 A 
ATOM     22  C   UNL     1       9.641  11.971  20.702  0.00  0.00    +0.000 A 
ATOM     23  C   UNL     1      10.022  11.087  19.650  0.00  0.00    +0.000 A 
ATOM     24  C   UNL     1      11.021  11.521  18.767  0.00  0.00    +0.000 A 
ATOM     25  C   UNL     1      11.641  12.734  18.980  0.00  0.00    +0.000 A 
ATOM     26  N   UNL     1      11.325  13.565  19.983  0.00  0.00    +0.000 NA
ATOM     27  C   UNL     1      10.342  13.199  20.813  0.00  0.00    +0.000 A 
ATOM     28  C   UNL     1      10.011  14.097  21.811  0.00  0.00    +0.000 A 
ENDBRANCH  16  23
ENDBRANCH   1  16
TORSDOF 7
ENDMDL
MODEL 8
REMARK VINA RESULT:      -7.3      4.944      7.494
REMARK  Name = 
REMARK  7 active torsions:
REMARK  status: ('A' for Active; 'I' for Inactive)
REMARK    1  A    between atoms: C_6  and  N_7
REMARK    2  A    between atoms: N_7  and  C_8
REMARK    3  A    between atoms: C_8  and  C_9
REMARK    4  A    between atoms: N_11  and  C_12
REMARK    5  A    between atoms: C_12  and  C_13
REMARK    6  A    between atoms: C_13  and  C_14
REMARK    7  A    between atoms: C_14  and  N_15
REMARK                            x       y       z     vdW  Elec       q    Type
REMARK                         _______ _______ _______ _____ _____    ______ ____
ROOT
ATOM      1  C   UNL     1       4.173   3.500  19.028  0.00  0.00    +0.000 C 
ENDROOT
BRANCH   1   2
ATOM      2  C   UNL     1       3.355   4.732  18.894  0.00  0.00    +0.000 A 
ATOM      3  C   UNL     1       3.115   5.715  19.826  0.00  0.00    +0.000 A 
ATOM      4  N   UNL     1       2.452   6.674  19.127  0.00  0.00    +0.000 N 
ATOM      5  N   UNL     1       2.235   6.291  17.858  0.00  0.00    +0.000 NA
ATOM      6  N   UNL     1       2.789   5.097  17.701  0.00  0.00    +0.000 NA
BRANCH   4   7
ATOM      7  C   UNL     1       2.015   7.976  19.571  0.00  0.00    +0.000 C 
BRANCH   7   8
ATOM      8  C   UNL     1       1.787   9.001  18.460  0.00  0.00    +0.000 C 
BRANCH   8   9
ATOM      9  C   UNL     1       0.504   9.827  18.653  0.00  0.00    +0.000 C 
BRANCH   9  10
ATOM     10  N   UNL     1       0.784  11.178  19.168  0.00  0.00    +0.000 NA
ATOM     11  C   UNL     1       0.858  11.251  20.645  0.00  0.00    +0.000 C 
ATOM     12  C   UNL     1      -0.498  11.046  21.333  0.00  0.00    +0.000 C 
ATOM     13  O   UNL     1      -1.450  12.020  20.888  0.00  0.00    +0.000 OA
ATOM     14  C   UNL     1      -1.605  11.979  19.465  0.00  0.00    +0.000 C 
ATOM     15  C   UNL     1      -0.257  12.145  18.736  0.00  0.00    +0.000 C 
ENDBRANCH   9  10
ENDBRANCH   8   9
ENDBRANCH   7   8
ENDBRANCH   4   7
ENDBRANCH   1   2
BRANCH   1  16
ATOM     16  N   UNL     1       5.630   3.660  19.087  0.00  0.00    +0.000 N 
ATOM     17  H   UNL     1       6.109   2.764  19.024  0.00  0.00    +0.000 HD
BRANCH  16  23
ATOM     18 CL   UNL     1       6.667   4.191  12.335  0.00  0.00    +0.000 Cl
ATOM     19  C   UNL     1       6.511   4.288  14.047  0.00  0.00    +0.000 A 
ATOM     20  C   UNL     1       5.841   3.294  14.743  0.00  0.00    +0.000 A 
ATOM     21  C   UNL     1       5.733   3.384  16.134  0.00  0.00    +0.000 A 
ATOM     22  C   UNL     1       6.290   4.478  16.848  0.00  0.00    +0.000 A 
ATOM     23  C   UNL     1       6.226   4.643  18.263  0.00  0.00    +0.000 A 
ATOM     24  C   UNL     1       6.888   5.746  18.818  0.00  0.00    +0.000 A 
ATOM     25  C   UNL     1       7.508   6.658  17.992  0.00  0.00    +0.000 A 
ATOM     26  N   UNL     1       7.551   6.544  16.657  0.00  0.00    +0.000 NA
ATOM     27  C   UNL     1       6.969   5.475  16.102  0.00  0.00    +0.000 A 
ATOM     28  C   UNL     1       7.066   5.364  14.727  0.00  0.00    +0.000 A 
ENDBRANCH  16  23
ENDBRANCH   1  16
TORSDOF 7
ENDMDL
MODEL 9
REMARK VINA RESULT:      -7.2      4.450     10.049
REMARK  Name = 
REMARK  7 active torsions:
REMARK  status: ('A' for Active; 'I' for Inactive)
REMARK    1  A    between atoms: C_6  and  N_7
REMARK    2  A    between atoms: N_7  and  C_8
REMARK    3  A    between atoms: C_8  and  C_9
REMARK    4  A    between atoms: N_11  and  C_12
REMARK    5  A    between atoms: C_12  and  C_13
REMARK    6  A    between atoms: C_13  and  C_14
REMARK    7  A    between atoms: C_14  and  N_15
REMARK                            x       y       z     vdW  Elec       q    Type
REMARK                         _______ _______ _______ _____ _____    ______ ____
ROOT
ATOM      1  C   UNL     1       8.947   9.214  19.012  0.00  0.00    +0.000 C 
ENDROOT
BRANCH   1   2
ATOM      2  C   UNL     1       8.287   8.082  18.313  0.00  0.00    +0.000 A 
ATOM      3  C   UNL     1       8.164   6.772  18.715  0.00  0.00    +0.000 A 
ATOM      4  N   UNL     1       7.336   6.221  17.788  0.00  0.00    +0.000 N 
ATOM      5  N   UNL     1       7.011   7.110  16.834  0.00  0.00    +0.000 NA
ATOM      6  N   UNL     1       7.589   8.262  17.148  0.00  0.00    +0.000 NA
BRANCH   4   7
ATOM      7  C   UNL     1       6.788   4.887  17.745  0.00  0.00    +0.000 C 
BRANCH   7   8
ATOM      8  C   UNL     1       5.628   4.689  16.769  0.00  0.00    +0.000 C 
BRANCH   8   9
ATOM      9  C   UNL     1       4.256   4.648  17.462  0.00  0.00    +0.000 C 
BRANCH   9  10
ATOM     10  N   UNL     1       3.898   3.290  17.909  0.00  0.00    +0.000 NA
ATOM     11  C   UNL     1       2.534   2.871  17.514  0.00  0.00    +0.000 C 
ATOM     12  C   UNL     1       1.426   3.631  18.256  0.00  0.00    +0.000 C 
ATOM     13  O   UNL     1       1.549   3.459  19.673  0.00  0.00    +0.000 OA
ATOM     14  C   UNL     1       2.837   3.884  20.135  0.00  0.00    +0.000 C 
ATOM     15  C   UNL     1       3.980   3.171  19.387  0.00  0.00    +0.000 C 
ENDBRANCH   9  10
ENDBRANCH   8   9
ENDBRANCH   7   8
ENDBRANCH   4   7
ENDBRANCH   1   2
BRANCH   1  16
ATOM     16  N   UNL     1       8.733  10.560  18.469  0.00  0.00    +0.000 N 
ATOM     17  H   UNL     1       7.846  10.952  18.776  0.00  0.00    +0.000 HD
BRANCH  16  23
ATOM     18 CL   UNL     1      10.188  15.644  22.825  0.00  0.00    +0.000 Cl
ATOM     19  C   UNL     1      10.042  14.425  21.619  0.00  0.00    +0.000 A 
ATOM     20  C   UNL     1       8.995  13.517  21.668  0.00  0.00    +0.000 A 
ATOM     21  C   UNL     1       8.886  12.541  20.673  0.00  0.00    +0.000 A 
ATOM     22  C   UNL     1       9.832  12.455  19.617  0.00  0.00    +0.000 A 
ATOM     23  C   UNL     1       9.792  11.493  18.565  0.00  0.00    +0.000 A 
ATOM     24  C   UNL     1      10.764  11.589  17.560  0.00  0.00    +0.000 A 
ATOM     25  C   UNL     1      11.751  12.546  17.653  0.00  0.00    +0.000 A 
ATOM     26  N   UNL     1      11.831  13.438  18.651  0.00  0.00    +0.000 NA
ATOM     27  C   UNL     1      10.889  13.401  19.599  0.00  0.00    +0.000 A 
ATOM     28  C   UNL     1      10.975  14.361  20.591  0.00  0.00    +0.000 A 
ENDBRANCH  16  23
ENDBRANCH   1  16
TORSDOF 7
ENDMDL
