MODEL 1
REMARK VINA RESULT:      -7.4      0.000      0.000
REMARK  Name = 
REMARK  8 active torsions:
REMARK  status: ('A' for Active; 'I' for Inactive)
REMARK    1  A    between atoms: C_1  and  O_2
REMARK    2  A    between atoms: O_2  and  C_3
REMARK    3  A    between atoms: C_3  and  C_4
REMARK    4  A    between atoms: C_4  and  C_5
REMARK    5  A    between atoms: C_11  and  C_12
REMARK    6  A    between atoms: C_12  and  O_13
REMARK    7  A    between atoms: O_13  and  C_14
REMARK    8  A    between atoms: C_14  and  C_16
REMARK                            x       y       z     vdW  Elec       q    Type
REMARK                         _______ _______ _______ _____ _____    ______ ____
ROOT
ATOM      1  C   UNL     1       0.597  10.596  20.388  0.00  0.00    +0.000 A 
ATOM      2  N   UNL     1       1.177  10.250  19.283  0.00  0.00    +0.000 NA
ATOM      3  N   UNL     1       1.578   8.941  19.376  0.00  0.00    +0.000 N 
ATOM      4  C   UNL     1       2.188   8.309  18.322  0.00  0.00    +0.000 A 
ATOM      5  O   UNL     1       2.435   8.789  17.219  0.00  0.00    +0.000 OA
ATOM      6  C   UNL     1       2.538   6.903  18.601  0.00  0.00    +0.000 A 
ATOM      7  C   UNL     1       2.248   6.367  19.799  0.00  0.00    +0.000 A 
ATOM      8  N   UNL     1       1.596   7.056  20.812  0.00  0.00    +0.000 NA
ATOM      9  C   UNL     1       1.308   8.289  20.550  0.00  0.00    +0.000 A 
ATOM     10  S   UNL     1       0.493   9.378  21.639  0.00  0.00    +0.000 S 
ENDROOT
BRANCH   1  11
ATOM     11  C   UNL     1       0.034  11.967  20.601  0.00  0.00    +0.000 C 
BRANCH  11  12
ATOM     12  C   UNL     1       1.180  12.965  20.733  0.00  0.00    +0.000 C 
BRANCH  12  14
ATOM     13  C   UNL     1      -0.376  13.814  22.277  0.00  0.00    +0.000 C 
ATOM     14  O   UNL     1       1.000  13.762  21.905  0.00  0.00    +0.000 OA
ENDBRANCH  12  14
ENDBRANCH  11  12
ENDBRANCH   1  11
BRANCH   7  15
ATOM     15  C   UNL     1       2.646   4.931  20.079  0.00  0.00    +0.000 C 
BRANCH  15  16
ATOM     16  O   UNL     1       4.039   4.721  19.802  0.00  0.00    +0.000 OA
BRANCH  16  17
ATOM     17  C   UNL     1       4.294   3.785  18.854  0.00  0.00    +0.000 C 
ATOM     18  O   UNL     1       3.835   2.656  18.828  0.00  0.00    +0.000 OA
BRANCH  17  19
ATOM     19  C   UNL     1       5.237   4.307  17.828  0.00  0.00    +0.000 A 
ATOM     20  C   UNL     1       6.246   5.250  18.136  0.00  0.00    +0.000 A 
ATOM     21  C   UNL     1       7.129   5.700  17.146  0.00  0.00    +0.000 A 
ATOM     22  C   UNL     1       6.971   5.204  15.870  0.00  0.00    +0.000 A 
ATOM     23  C   UNL     1       5.984   4.297  15.563  0.00  0.00    +0.000 A 
ATOM     24  C   UNL     1       5.106   3.825  16.516  0.00  0.00    +0.000 A 
ATOM     25  O   UNL     1       5.999   3.940  14.251  0.00  0.00    +0.000 OA
ATOM     26  C   UNL     1       7.077   4.761  13.757  0.00  0.00    +0.000 C 
ATOM     27  O   UNL     1       7.732   5.525  14.791  0.00  0.00    +0.000 OA
ENDBRANCH  17  19
ENDBRANCH  16  17
ENDBRANCH  15  16
ENDBRANCH   7  15
TORSDOF 7
ENDMDL
MODEL 2
REMARK VINA RESULT:      -7.4      1.291      1.521
REMARK  Name = 
REMARK  8 active torsions:
REMARK  status: ('A' for Active; 'I' for Inactive)
REMARK    1  A    between atoms: C_1  and  O_2
REMARK    2  A    between atoms: O_2  and  C_3
REMARK    3  A    between atoms: C_3  and  C_4
REMARK    4  A    between atoms: C_4  and  C_5
REMARK    5  A    between atoms: C_11  and  C_12
REMARK    6  A    between atoms: C_12  and  O_13
REMARK    7  A    between atoms: O_13  and  C_14
REMARK    8  A    between atoms: C_14  and  C_16
REMARK                            x       y       z     vdW  Elec       q    Type
REMARK                         _______ _______ _______ _____ _____    ______ ____
ROOT
ATOM      1  C   UNL     1       0.286  10.719  20.199  0.00  0.00    +0.000 A 
ATOM      2  N   UNL     1       0.915  10.369  19.122  0.00  0.00    +0.000 NA
ATOM      3  N   UNL     1       1.418   9.104  19.284  0.00  0.00    +0.000 N 
ATOM      4  C   UNL     1       2.100   8.475  18.273  0.00  0.00    +0.000 A 
ATOM      5  O   UNL     1       2.331   8.922  17.152  0.00  0.00    +0.000 OA
ATOM      6  C   UNL     1       2.556   7.117  18.625  0.00  0.00    +0.000 A 
ATOM      7  C   UNL     1       2.285   6.616  19.842  0.00  0.00    +0.000 A 
ATOM      8  N   UNL     1       1.558   7.295  20.809  0.00  0.00    +0.000 NA
ATOM      9  C   UNL     1       1.177   8.487  20.483  0.00  0.00    +0.000 A 
ATOM     10  S   UNL     1       0.254   9.555  21.504  0.00  0.00    +0.000 S 
ENDROOT
BRANCH   1  11
ATOM     11  C   UNL     1      -0.391  12.048  20.336  0.00  0.00    +0.000 C 
BRANCH  11  12
ATOM     12  C   UNL     1      -1.264  12.294  19.110  0.00  0.00    +0.000 C 
BRANCH  12  14
ATOM     13  C   UNL     1      -3.377  11.633  18.323  0.00  0.00    +0.000 C 
ATOM     14  O   UNL     1      -2.640  12.111  19.447  0.00  0.00    +0.000 OA
ENDBRANCH  12  14
ENDBRANCH  11  12
ENDBRANCH   1  11
BRANCH   7  15
ATOM     15  C   UNL     1       2.791   5.231  20.198  0.00  0.00    +0.000 C 
BRANCH  15  16
ATOM     16  O   UNL     1       4.184   5.095  19.876  0.00  0.00    +0.000 OA
BRANCH  16  17
ATOM     17  C   UNL     1       4.480   4.047  19.069  0.00  0.00    +0.000 C 
ATOM     18  O   UNL     1       4.098   2.900  19.224  0.00  0.00    +0.000 OA
BRANCH  17  19
ATOM     19  C   UNL     1       5.363   4.469  17.947  0.00  0.00    +0.000 A 
ATOM     20  C   UNL     1       6.402   5.414  18.116  0.00  0.00    +0.000 A 
ATOM     21  C   UNL     1       7.226   5.768  17.039  0.00  0.00    +0.000 A 
ATOM     22  C   UNL     1       6.980   5.176  15.819  0.00  0.00    +0.000 A 
ATOM     23  C   UNL     1       5.964   4.266  15.648  0.00  0.00    +0.000 A 
ATOM     24  C   UNL     1       5.142   3.888  16.689  0.00  0.00    +0.000 A 
ATOM     25  O   UNL     1       5.890   3.807  14.370  0.00  0.00    +0.000 OA
ATOM     26  C   UNL     1       6.945   4.566  13.746  0.00  0.00    +0.000 C 
ATOM     27  O   UNL     1       7.676   5.397  14.672  0.00  0.00    +0.000 OA
ENDBRANCH  17  19
ENDBRANCH  16  17
ENDBRANCH  15  16
ENDBRANCH   7  15
TORSDOF 7
ENDMDL
MODEL 3
REMARK VINA RESULT:      -7.4      1.030      1.038
REMARK  Name = 
REMARK  8 active torsions:
REMARK  status: ('A' for Active; 'I' for Inactive)
REMARK    1  A    between atoms: C_1  and  O_2
REMARK    2  A    between atoms: O_2  and  C_3
REMARK    3  A    between atoms: C_3  and  C_4
REMARK    4  A    between atoms: C_4  and  C_5
REMARK    5  A    between atoms: C_11  and  C_12
REMARK    6  A    between atoms: C_12  and  O_13
REMARK    7  A    between atoms: O_13  and  C_14
REMARK    8  A    between atoms: C_14  and  C_16
REMARK                            x       y       z     vdW  Elec       q    Type
REMARK                         _______ _______ _______ _____ _____    ______ ____
ROOT
ATOM      1  C   UNL     1       0.623  10.543  20.965  0.00  0.00    +0.000 A 
ATOM      2  N   UNL     1       1.018  10.467  19.733  0.00  0.00    +0.000 NA
ATOM      3  N   UNL     1       1.472   9.197  19.483  0.00  0.00    +0.000 N 
ATOM      4  C   UNL     1       1.916   8.834  18.237  0.00  0.00    +0.000 A 
ATOM      5  O   UNL     1       1.956   9.544  17.234  0.00  0.00    +0.000 OA
ATOM      6  C   UNL     1       2.354   7.428  18.154  0.00  0.00    +0.000 A 
ATOM      7  C   UNL     1       2.289   6.643  19.242  0.00  0.00    +0.000 A 
ATOM      8  N   UNL     1       1.795   7.066  20.468  0.00  0.00    +0.000 NA
ATOM      9  C   UNL     1       1.427   8.304  20.520  0.00  0.00    +0.000 A 
ATOM     10  S   UNL     1       0.772   9.092  21.930  0.00  0.00    +0.000 S 
ENDROOT
BRANCH   1  11
ATOM     11  C   UNL     1       0.058  11.801  21.549  0.00  0.00    +0.000 C 
BRANCH  11  12
ATOM     12  C   UNL     1      -0.578  12.628  20.437  0.00  0.00    +0.000 C 
BRANCH  12  14
ATOM     13  C   UNL     1      -2.247  12.545  22.089  0.00  0.00    +0.000 C 
ATOM     14  O   UNL     1      -1.957  12.859  20.728  0.00  0.00    +0.000 OA
ENDBRANCH  12  14
ENDBRANCH  11  12
ENDBRANCH   1  11
BRANCH   7  15
ATOM     15  C   UNL     1       2.775   5.209  19.146  0.00  0.00    +0.000 C 
BRANCH  15  16
ATOM     16  O   UNL     1       3.988   5.028  19.894  0.00  0.00    +0.000 OA
BRANCH  16  17
ATOM     17  C   UNL     1       4.811   4.064  19.413  0.00  0.00    +0.000 C 
ATOM     18  O   UNL     1       4.945   2.945  19.879  0.00  0.00    +0.000 OA
BRANCH  17  19
ATOM     19  C   UNL     1       5.566   4.549  18.225  0.00  0.00    +0.000 A 
ATOM     20  C   UNL     1       6.461   5.642  18.292  0.00  0.00    +0.000 A 
ATOM     21  C   UNL     1       7.170   6.055  17.155  0.00  0.00    +0.000 A 
ATOM     22  C   UNL     1       6.954   5.369  15.980  0.00  0.00    +0.000 A 
ATOM     23  C   UNL     1       6.077   4.313  15.908  0.00  0.00    +0.000 A 
ATOM     24  C   UNL     1       5.372   3.875  17.009  0.00  0.00    +0.000 A 
ATOM     25  O   UNL     1       6.009   3.781  14.659  0.00  0.00    +0.000 OA
ATOM     26  C   UNL     1       6.908   4.651  13.942  0.00  0.00    +0.000 C 
ATOM     27  O   UNL     1       7.553   5.627  14.787  0.00  0.00    +0.000 OA
ENDBRANCH  17  19
ENDBRANCH  16  17
ENDBRANCH  15  16
ENDBRANCH   7  15
TORSDOF 7
ENDMDL
MODEL 4
REMARK VINA RESULT:      -7.4      3.091      8.855
REMARK  Name = 
REMARK  8 active torsions:
REMARK  status: ('A' for Active; 'I' for Inactive)
REMARK    1  A    between atoms: C_1  and  O_2
REMARK    2  A    between atoms: O_2  and  C_3
REMARK    3  A    between atoms: C_3  and  C_4
REMARK    4  A    between atoms: C_4  and  C_5
REMARK    5  A    between atoms: C_11  and  C_12
REMARK    6  A    between atoms: C_12  and  O_13
REMARK    7  A    between atoms: O_13  and  C_14
REMARK    8  A    between atoms: C_14  and  C_16
REMARK                            x       y       z     vdW  Elec       q    Type
REMARK                         _______ _______ _______ _____ _____    ______ ____
ROOT
ATOM      1  C   UNL     1       4.714   4.803  17.276  0.00  0.00    +0.000 A 
ATOM      2  N   UNL     1       4.070   4.170  18.204  0.00  0.00    +0.000 NA
ATOM      3  N   UNL     1       3.336   5.069  18.936  0.00  0.00    +0.000 N 
ATOM      4  C   UNL     1       2.527   4.656  19.964  0.00  0.00    +0.000 A 
ATOM      5  O   UNL     1       2.349   3.500  20.342  0.00  0.00    +0.000 OA
ATOM      6  C   UNL     1       1.809   5.759  20.629  0.00  0.00    +0.000 A 
ATOM      7  C   UNL     1       1.983   7.022  20.204  0.00  0.00    +0.000 A 
ATOM      8  N   UNL     1       2.794   7.367  19.132  0.00  0.00    +0.000 NA
ATOM      9  C   UNL     1       3.421   6.386  18.571  0.00  0.00    +0.000 A 
ATOM     10  S   UNL     1       4.499   6.537  17.210  0.00  0.00    +0.000 S 
ENDROOT
BRANCH   1  11
ATOM     11  C   UNL     1       5.601   4.099  16.295  0.00  0.00    +0.000 C 
BRANCH  11  12
ATOM     12  C   UNL     1       7.022   4.637  16.429  0.00  0.00    +0.000 C 
BRANCH  12  14
ATOM     13  C   UNL     1       6.660   4.503  14.111  0.00  0.00    +0.000 C 
ATOM     14  O   UNL     1       7.567   4.904  15.136  0.00  0.00    +0.000 OA
ENDBRANCH  12  14
ENDBRANCH  11  12
ENDBRANCH   1  11
BRANCH   7  15
ATOM     15  C   UNL     1       1.262   8.147  20.921  0.00  0.00    +0.000 C 
BRANCH  15  16
ATOM     16  O   UNL     1       1.146   9.303  20.076  0.00  0.00    +0.000 OA
BRANCH  16  17
ATOM     17  C   UNL     1       0.457  10.336  20.621  0.00  0.00    +0.000 C 
ATOM     18  O   UNL     1       0.706  10.874  21.686  0.00  0.00    +0.000 OA
BRANCH  17  19
ATOM     19  C   UNL     1      -0.680  10.739  19.748  0.00  0.00    +0.000 A 
ATOM     20  C   UNL     1      -1.608  11.737  20.126  0.00  0.00    +0.000 A 
ATOM     21  C   UNL     1      -2.652  12.103  19.267  0.00  0.00    +0.000 A 
ATOM     22  C   UNL     1      -2.746  11.452  18.056  0.00  0.00    +0.000 A 
ATOM     23  C   UNL     1      -1.853  10.474  17.688  0.00  0.00    +0.000 A 
ATOM     24  C   UNL     1      -0.809  10.097  18.506  0.00  0.00    +0.000 A 
ATOM     25  O   UNL     1      -2.127   9.958  16.461  0.00  0.00    +0.000 OA
ATOM     26  C   UNL     1      -3.320  10.690  16.116  0.00  0.00    +0.000 C 
ATOM     27  O   UNL     1      -3.687  11.679  17.102  0.00  0.00    +0.000 OA
ENDBRANCH  17  19
ENDBRANCH  16  17
ENDBRANCH  15  16
ENDBRANCH   7  15
TORSDOF 7
ENDMDL
MODEL 5
REMARK VINA RESULT:      -7.0      3.429      9.272
REMARK  Name = 
REMARK  8 active torsions:
REMARK  status: ('A' for Active; 'I' for Inactive)
REMARK    1  A    between atoms: C_1  and  O_2
REMARK    2  A    between atoms: O_2  and  C_3
REMARK    3  A    between atoms: C_3  and  C_4
REMARK    4  A    between atoms: C_4  and  C_5
REMARK    5  A    between atoms: C_11  and  C_12
REMARK    6  A    between atoms: C_12  and  O_13
REMARK    7  A    between atoms: O_13  and  C_14
REMARK    8  A    between atoms: C_14  and  C_16
REMARK                            x       y       z     vdW  Elec       q    Type
REMARK                         _______ _______ _______ _____ _____    ______ ____
ROOT
ATOM      1  C   UNL     1       4.823   4.977  17.414  0.00  0.00    +0.000 A 
ATOM      2  N   UNL     1       4.235   4.538  18.481  0.00  0.00    +0.000 NA
ATOM      3  N   UNL     1       3.434   5.527  18.994  0.00  0.00    +0.000 N 
ATOM      4  C   UNL     1       2.664   5.311  20.109  0.00  0.00    +0.000 A 
ATOM      5  O   UNL     1       2.581   4.269  20.755  0.00  0.00    +0.000 OA
ATOM      6  C   UNL     1       1.862   6.483  20.507  0.00  0.00    +0.000 A 
ATOM      7  C   UNL     1       1.933   7.616  19.789  0.00  0.00    +0.000 A 
ATOM      8  N   UNL     1       2.709   7.756  18.647  0.00  0.00    +0.000 NA
ATOM      9  C   UNL     1       3.411   6.720  18.323  0.00  0.00    +0.000 A 
ATOM     10  S   UNL     1       4.468   6.624  16.940  0.00  0.00    +0.000 S 
ENDROOT
BRANCH   1  11
ATOM     11  C   UNL     1       5.759   4.130  16.609  0.00  0.00    +0.000 C 
BRANCH  11  12
ATOM     12  C   UNL     1       7.161   4.727  16.680  0.00  0.00    +0.000 C 
BRANCH  12  14
ATOM     13  C   UNL     1       6.917   4.769  14.343  0.00  0.00    +0.000 C 
ATOM     14  O   UNL     1       7.445   5.448  15.481  0.00  0.00    +0.000 OA
ENDBRANCH  12  14
ENDBRANCH  11  12
ENDBRANCH   1  11
BRANCH   7  15
ATOM     15  C   UNL     1       1.126   8.821  20.233  0.00  0.00    +0.000 C 
BRANCH  15  16
ATOM     16  O   UNL     1       1.017   9.785  19.173  0.00  0.00    +0.000 OA
BRANCH  16  17
ATOM     17  C   UNL     1       0.266  10.873  19.472  0.00  0.00    +0.000 C 
ATOM     18  O   UNL     1       0.579  11.763  20.245  0.00  0.00    +0.000 OA
BRANCH  17  19
ATOM     19  C   UNL     1      -1.028  10.848  18.736  0.00  0.00    +0.000 A 
ATOM     20  C   UNL     1      -1.221  10.071  17.571  0.00  0.00    +0.000 A 
ATOM     21  C   UNL     1      -2.462  10.057  16.920  0.00  0.00    +0.000 A 
ATOM     22  C   UNL     1      -3.473  10.832  17.446  0.00  0.00    +0.000 A 
ATOM     23  C   UNL     1      -3.286  11.598  18.572  0.00  0.00    +0.000 A 
ATOM     24  C   UNL     1      -2.081  11.626  19.242  0.00  0.00    +0.000 A 
ATOM     25  O   UNL     1      -4.405  12.288  18.920  0.00  0.00    +0.000 OA
ATOM     26  C   UNL     1      -5.303  11.905  17.859  0.00  0.00    +0.000 C 
ATOM     27  O   UNL     1      -4.734  10.938  16.950  0.00  0.00    +0.000 OA
ENDBRANCH  17  19
ENDBRANCH  16  17
ENDBRANCH  15  16
ENDBRANCH   7  15
TORSDOF 7
ENDMDL
MODEL 6
REMARK VINA RESULT:      -6.9      3.593      6.484
REMARK  Name = 
REMARK  8 active torsions:
REMARK  status: ('A' for Active; 'I' for Inactive)
REMARK    1  A    between atoms: C_1  and  O_2
REMARK    2  A    between atoms: O_2  and  C_3
REMARK    3  A    between atoms: C_3  and  C_4
REMARK    4  A    between atoms: C_4  and  C_5
REMARK    5  A    between atoms: C_11  and  C_12
REMARK    6  A    between atoms: C_12  and  O_13
REMARK    7  A    between atoms: O_13  and  C_14
REMARK    8  A    between atoms: C_14  and  C_16
REMARK                            x       y       z     vdW  Elec       q    Type
REMARK                         _______ _______ _______ _____ _____    ______ ____
ROOT
ATOM      1  C   UNL     1       7.867   7.390  18.180  0.00  0.00    +0.000 A 
ATOM      2  N   UNL     1       7.136   7.361  17.112  0.00  0.00    +0.000 NA
ATOM      3  N   UNL     1       6.378   6.218  17.115  0.00  0.00    +0.000 N 
ATOM      4  C   UNL     1       5.481   5.956  16.110  0.00  0.00    +0.000 A 
ATOM      5  O   UNL     1       5.239   6.666  15.137  0.00  0.00    +0.000 OA
ATOM      6  C   UNL     1       4.750   4.688  16.288  0.00  0.00    +0.000 A 
ATOM      7  C   UNL     1       4.994   3.920  17.363  0.00  0.00    +0.000 A 
ATOM      8  N   UNL     1       5.893   4.262  18.363  0.00  0.00    +0.000 NA
ATOM      9  C   UNL     1       6.530   5.372  18.182  0.00  0.00    +0.000 A 
ATOM     10  S   UNL     1       7.711   6.037  19.278  0.00  0.00    +0.000 S 
ENDROOT
BRANCH   1  11
ATOM     11  C   UNL     1       8.802   8.520  18.480  0.00  0.00    +0.000 C 
BRANCH  11  12
ATOM     12  C   UNL     1       8.241   9.807  17.884  0.00  0.00    +0.000 C 
BRANCH  12  14
ATOM     13  C   UNL     1      10.070  11.275  18.026  0.00  0.00    +0.000 C 
ATOM     14  O   UNL     1       8.791  10.938  18.560  0.00  0.00    +0.000 OA
ENDBRANCH  12  14
ENDBRANCH  11  12
ENDBRANCH   1  11
BRANCH   7  15
ATOM     15  C   UNL     1       4.257   2.604  17.512  0.00  0.00    +0.000 C 
BRANCH  15  16
ATOM     16  O   UNL     1       3.452   2.597  18.702  0.00  0.00    +0.000 OA
BRANCH  16  17
ATOM     17  C   UNL     1       2.188   3.055  18.534  0.00  0.00    +0.000 C 
ATOM     18  O   UNL     1       1.271   2.439  18.017  0.00  0.00    +0.000 OA
BRANCH  17  19
ATOM     19  C   UNL     1       2.048   4.443  19.055  0.00  0.00    +0.000 A 
ATOM     20  C   UNL     1       1.859   4.720  20.429  0.00  0.00    +0.000 A 
ATOM     21  C   UNL     1       1.754   6.042  20.882  0.00  0.00    +0.000 A 
ATOM     22  C   UNL     1       1.829   7.050  19.946  0.00  0.00    +0.000 A 
ATOM     23  C   UNL     1       2.001   6.785  18.609  0.00  0.00    +0.000 A 
ATOM     24  C   UNL     1       2.118   5.497  18.130  0.00  0.00    +0.000 A 
ATOM     25  O   UNL     1       2.044   7.918  17.858  0.00  0.00    +0.000 OA
ATOM     26  C   UNL     1       1.833   8.924  18.869  0.00  0.00    +0.000 C 
ATOM     27  O   UNL     1       1.750   8.383  20.204  0.00  0.00    +0.000 OA
ENDBRANCH  17  19
ENDBRANCH  16  17
ENDBRANCH  15  16
ENDBRANCH   7  15
TORSDOF 7
ENDMDL
MODEL 7
REMARK VINA RESULT:      -6.9      5.815      9.205
REMARK  Name = 
REMARK  8 active torsions:
REMARK  status: ('A' for Active; 'I' for Inactive)
REMARK    1  A    between atoms: C_1  and  O_2
REMARK    2  A    between atoms: O_2  and  C_3
REMARK    3  A    between atoms: C_3  and  C_4
REMARK    4  A    between atoms: C_4  and  C_5
REMARK    5  A    between atoms: C_11  and  C_12
REMARK    6  A    between atoms: C_12  and  O_13
REMARK    7  A    between atoms: O_13  and  C_14
REMARK    8  A    between atoms: C_14  and  C_16
REMARK                            x       y       z     vdW  Elec       q    Type
REMARK                         _______ _______ _______ _____ _____    ______ ____
ROOT
ATOM      1  C   UNL     1       5.047   4.577  17.238  0.00  0.00    +0.000 A 
ATOM      2  N   UNL     1       5.909   4.548  18.204  0.00  0.00    +0.000 NA
ATOM      3  N   UNL     1       6.638   5.709  18.193  0.00  0.00    +0.000 N 
ATOM      4  C   UNL     1       7.600   5.954  19.141  0.00  0.00    +0.000 A 
ATOM      5  O   UNL     1       7.914   5.221  20.076  0.00  0.00    +0.000 OA
ATOM      6  C   UNL     1       8.271   7.256  18.977  0.00  0.00    +0.000 A 
ATOM      7  C   UNL     1       7.913   8.071  17.969  0.00  0.00    +0.000 A 
ATOM      8  N   UNL     1       6.905   7.775  17.063  0.00  0.00    +0.000 NA
ATOM      9  C   UNL     1       6.337   6.625  17.220  0.00  0.00    +0.000 A 
ATOM     10  S   UNL     1       5.046   6.004  16.226  0.00  0.00    +0.000 S 
ENDROOT
BRANCH   1  11
ATOM     11  C   UNL     1       4.086   3.456  16.986  0.00  0.00    +0.000 C 
BRANCH  11  12
ATOM     12  C   UNL     1       3.734   2.791  18.313  0.00  0.00    +0.000 C 
BRANCH  12  14
ATOM     13  C   UNL     1       1.582   2.551  19.226  0.00  0.00    +0.000 C 
ATOM     14  O   UNL     1       2.632   3.467  18.920  0.00  0.00    +0.000 OA
ENDBRANCH  12  14
ENDBRANCH  11  12
ENDBRANCH   1  11
BRANCH   7  15
ATOM     15  C   UNL     1       8.638   9.391  17.797  0.00  0.00    +0.000 C 
BRANCH  15  16
ATOM     16  O   UNL     1       9.203   9.834  19.041  0.00  0.00    +0.000 OA
BRANCH  16  17
ATOM     17  C   UNL     1       9.721  11.086  19.015  0.00  0.00    +0.000 C 
ATOM     18  O   UNL     1      10.328  11.586  18.083  0.00  0.00    +0.000 OA
BRANCH  17  19
ATOM     19  C   UNL     1       9.468  11.796  20.299  0.00  0.00    +0.000 A 
ATOM     20  C   UNL     1       9.812  13.154  20.493  0.00  0.00    +0.000 A 
ATOM     21  C   UNL     1       9.537  13.793  21.710  0.00  0.00    +0.000 A 
ATOM     22  C   UNL     1       8.936  13.051  22.704  0.00  0.00    +0.000 A 
ATOM     23  C   UNL     1       8.611  11.728  22.524  0.00  0.00    +0.000 A 
ATOM     24  C   UNL     1       8.858  11.072  21.336  0.00  0.00    +0.000 A 
ATOM     25  O   UNL     1       8.033  11.182  23.626  0.00  0.00    +0.000 OA
ATOM     26  C   UNL     1       8.073  12.299  24.537  0.00  0.00    +0.000 C 
ATOM     27  O   UNL     1       8.596  13.504  23.940  0.00  0.00    +0.000 OA
ENDBRANCH  17  19
ENDBRANCH  16  17
ENDBRANCH  15  16
ENDBRANCH   7  15
TORSDOF 7
ENDMDL
MODEL 8
REMARK VINA RESULT:      -6.9      3.666      4.730
REMARK  Name = 
REMARK  8 active torsions:
REMARK  status: ('A' for Active; 'I' for Inactive)
REMARK    1  A    between atoms: C_1  and  O_2
REMARK    2  A    between atoms: O_2  and  C_3
REMARK    3  A    between atoms: C_3  and  C_4
REMARK    4  A    between atoms: C_4  and  C_5
REMARK    5  A    between atoms: C_11  and  C_12
REMARK    6  A    between atoms: C_12  and  O_13
REMARK    7  A    between atoms: O_13  and  C_14
REMARK    8  A    between atoms: C_14  and  C_16
REMARK                            x       y       z     vdW  Elec       q    Type
REMARK                         _______ _______ _______ _____ _____    ______ ____
ROOT
ATOM      1  C   UNL     1      -3.583  11.108  17.451  0.00  0.00    +0.000 A 
ATOM      2  N   UNL     1      -3.064  11.508  18.568  0.00  0.00    +0.000 NA
ATOM      3  N   UNL     1      -1.791  11.009  18.678  0.00  0.00    +0.000 N 
ATOM      4  C   UNL     1      -0.999  11.314  19.756  0.00  0.00    +0.000 A 
ATOM      5  O   UNL     1      -1.294  12.037  20.705  0.00  0.00    +0.000 OA
ATOM      6  C   UNL     1       0.339  10.696  19.698  0.00  0.00    +0.000 A 
ATOM      7  C   UNL     1       0.673   9.924  18.650  0.00  0.00    +0.000 A 
ATOM      8  N   UNL     1      -0.167   9.684  17.573  0.00  0.00    +0.000 NA
ATOM      9  C   UNL     1      -1.338  10.226  17.650  0.00  0.00    +0.000 A 
ATOM     10  S   UNL     1      -2.585  10.087  16.441  0.00  0.00    +0.000 S 
ENDROOT
BRANCH   1  11
ATOM     11  C   UNL     1      -4.966  11.494  17.027  0.00  0.00    +0.000 C 
BRANCH  11  12
ATOM     12  C   UNL     1      -5.953  11.109  18.125  0.00  0.00    +0.000 C 
BRANCH  12  14
ATOM     13  C   UNL     1      -7.357  11.980  19.796  0.00  0.00    +0.000 C 
ATOM     14  O   UNL     1      -6.621  12.275  18.610  0.00  0.00    +0.000 OA
ENDBRANCH  12  14
ENDBRANCH  11  12
ENDBRANCH   1  11
BRANCH   7  15
ATOM     15  C   UNL     1       2.041   9.270  18.624  0.00  0.00    +0.000 C 
BRANCH  15  16
ATOM     16  O   UNL     1       1.990   7.997  17.961  0.00  0.00    +0.000 OA
BRANCH  16  17
ATOM     17  C   UNL     1       2.396   6.947  18.717  0.00  0.00    +0.000 C 
ATOM     18  O   UNL     1       2.116   6.764  19.889  0.00  0.00    +0.000 OA
BRANCH  17  19
ATOM     19  C   UNL     1       3.260   6.025  17.930  0.00  0.00    +0.000 A 
ATOM     20  C   UNL     1       2.992   4.641  17.825  0.00  0.00    +0.000 A 
ATOM     21  C   UNL     1       3.818   3.810  17.057  0.00  0.00    +0.000 A 
ATOM     22  C   UNL     1       4.898   4.385  16.423  0.00  0.00    +0.000 A 
ATOM     23  C   UNL     1       5.169   5.728  16.532  0.00  0.00    +0.000 A 
ATOM     24  C   UNL     1       4.371   6.575  17.271  0.00  0.00    +0.000 A 
ATOM     25  O   UNL     1       6.280   6.090  15.835  0.00  0.00    +0.000 OA
ATOM     26  C   UNL     1       6.703   4.814  15.314  0.00  0.00    +0.000 C 
ATOM     27  O   UNL     1       5.799   3.736  15.639  0.00  0.00    +0.000 OA
ENDBRANCH  17  19
ENDBRANCH  16  17
ENDBRANCH  15  16
ENDBRANCH   7  15
TORSDOF 7
ENDMDL
MODEL 9
REMARK VINA RESULT:      -6.9      2.495      4.602
REMARK  Name = 
REMARK  8 active torsions:
REMARK  status: ('A' for Active; 'I' for Inactive)
REMARK    1  A    between atoms: C_1  and  O_2
REMARK    2  A    between atoms: O_2  and  C_3
REMARK    3  A    between atoms: C_3  and  C_4
REMARK    4  A    between atoms: C_4  and  C_5
REMARK    5  A    between atoms: C_11  and  C_12
REMARK    6  A    between atoms: C_12  and  O_13
REMARK    7  A    between atoms: O_13  and  C_14
REMARK    8  A    between atoms: C_14  and  C_16
REMARK                            x       y       z     vdW  Elec       q    Type
REMARK                         _______ _______ _______ _____ _____    ______ ____
ROOT
ATOM      1  C   UNL     1      -0.315  10.365  22.027  0.00  0.00    +0.000 A 
ATOM      2  N   UNL     1      -0.020  11.176  21.061  0.00  0.00    +0.000 NA
ATOM      3  N   UNL     1       0.661  10.490  20.088  0.00  0.00    +0.000 N 
ATOM      4  C   UNL     1       1.061  11.108  18.930  0.00  0.00    +0.000 A 
ATOM      5  O   UNL     1       0.869  12.280  18.617  0.00  0.00    +0.000 OA
ATOM      6  C   UNL     1       1.769  10.211  17.998  0.00  0.00    +0.000 A 
ATOM      7  C   UNL     1       1.961   8.922  18.326  0.00  0.00    +0.000 A 
ATOM      8  N   UNL     1       1.498   8.351  19.503  0.00  0.00    +0.000 NA
ATOM      9  C   UNL     1       0.890   9.158  20.310  0.00  0.00    +0.000 A 
ATOM     10  S   UNL     1       0.212   8.706  21.850  0.00  0.00    +0.000 S 
ENDROOT
BRANCH   1  11
ATOM     11  C   UNL     1      -1.073  10.807  23.240  0.00  0.00    +0.000 C 
BRANCH  11  12
ATOM     12  C   UNL     1      -1.589  12.225  23.020  0.00  0.00    +0.000 C 
BRANCH  12  14
ATOM     13  C   UNL     1      -3.389  13.469  22.166  0.00  0.00    +0.000 C 
ATOM     14  O   UNL     1      -2.961  12.189  22.627  0.00  0.00    +0.000 OA
ENDBRANCH  12  14
ENDBRANCH  11  12
ENDBRANCH   1  11
BRANCH   7  15
ATOM     15  C   UNL     1       2.721   8.023  17.369  0.00  0.00    +0.000 C 
BRANCH  15  16
ATOM     16  O   UNL     1       3.845   7.412  18.023  0.00  0.00    +0.000 OA
BRANCH  16  17
ATOM     17  C   UNL     1       4.124   6.151  17.610  0.00  0.00    +0.000 C 
ATOM     18  O   UNL     1       4.976   5.841  16.796  0.00  0.00    +0.000 OA
BRANCH  17  19
ATOM     19  C   UNL     1       3.232   5.162  18.275  0.00  0.00    +0.000 A 
ATOM     20  C   UNL     1       2.321   4.357  17.552  0.00  0.00    +0.000 A 
ATOM     21  C   UNL     1       1.514   3.421  18.213  0.00  0.00    +0.000 A 
ATOM     22  C   UNL     1       1.632   3.325  19.583  0.00  0.00    +0.000 A 
ATOM     23  C   UNL     1       2.507   4.114  20.291  0.00  0.00    +0.000 A 
ATOM     24  C   UNL     1       3.322   5.037  19.671  0.00  0.00    +0.000 A 
ATOM     25  O   UNL     1       2.463   3.865  21.627  0.00  0.00    +0.000 OA
ATOM     26  C   UNL     1       1.428   2.862  21.684  0.00  0.00    +0.000 C 
ATOM     27  O   UNL     1       0.934   2.477  20.384  0.00  0.00    +0.000 OA
ENDBRANCH  17  19
ENDBRANCH  16  17
ENDBRANCH  15  16
ENDBRANCH   7  15
TORSDOF 7
ENDMDL
