MODEL 1
REMARK VINA RESULT:      -7.3      0.000      0.000
REMARK  Name = 
REMARK  7 active torsions:
REMARK  status: ('A' for Active; 'I' for Inactive)
REMARK    1  A    between atoms: O_1  and  C_2
REMARK    2  A    between atoms: C_2  and  C_3
REMARK    3  A    between atoms: C_4  and  C_5
REMARK    4  A    between atoms: C_8  and  C_9
REMARK    5  A    between atoms: C_10  and  C_11
REMARK    6  A    between atoms: C_14  and  O_15
REMARK    7  A    between atoms: C_16  and  O_17
REMARK                            x       y       z     vdW  Elec       q    Type
REMARK                         _______ _______ _______ _____ _____    ______ ____
ROOT
ATOM      1  C   UNL     1       8.590   8.513  18.506  0.00  0.00    +0.000 C 
ATOM      2  C   UNL     1       8.323   9.777  18.140  0.00  0.00    +0.000 C 
ENDROOT
BRANCH   1   6
ATOM      3  C   UNL     1       6.040   5.215  17.442  0.00  0.00    +0.000 A 
ATOM      4  C   UNL     1       5.903   6.472  16.843  0.00  0.00    +0.000 A 
ATOM      5  C   UNL     1       6.751   7.528  17.195  0.00  0.00    +0.000 A 
ATOM      6  C   UNL     1       7.737   7.360  18.170  0.00  0.00    +0.000 A 
ATOM      7  C   UNL     1       7.877   6.101  18.769  0.00  0.00    +0.000 A 
ATOM      8  C   UNL     1       7.026   5.044  18.419  0.00  0.00    +0.000 A 
BRANCH   3  10
ATOM      9  C   UNL     1       4.320   3.521  18.007  0.00  0.00    +0.000 C 
ATOM     10  C   UNL     1       5.143   4.098  17.115  0.00  0.00    +0.000 C 
BRANCH   9  11
ATOM     11  C   UNL     1       3.424   2.370  17.710  0.00  0.00    +0.000 C 
BRANCH  11  12
ATOM     12  O   UNL     1       3.988   1.225  18.330  0.00  0.00    +0.000 OA
ATOM     13  H   UNL     1       4.896   1.460  18.580  0.00  0.00    +0.000 HD
ENDBRANCH  11  12
ENDBRANCH   9  11
ENDBRANCH   3  10
ENDBRANCH   1   6
BRANCH   2  14
ATOM     14  C   UNL     1       9.219  10.921  18.369  0.00  0.00    +0.000 A 
ATOM     15  C   UNL     1      10.206  10.817  19.364  0.00  0.00    +0.000 A 
ATOM     16  C   UNL     1      11.004  11.914  19.706  0.00  0.00    +0.000 A 
ATOM     17  C   UNL     1      10.805  13.123  19.054  0.00  0.00    +0.000 A 
ATOM     18  C   UNL     1       9.835  13.233  18.062  0.00  0.00    +0.000 A 
ATOM     19  C   UNL     1       9.042  12.147  17.714  0.00  0.00    +0.000 A 
BRANCH  17  20
ATOM     20  O   UNL     1      11.530  14.240  19.363  0.00  0.00    +0.000 OA
ATOM     21  H   UNL     1      12.467  14.053  19.180  0.00  0.00    +0.000 HD
ENDBRANCH  17  20
BRANCH  18  22
ATOM     22  O   UNL     1       9.632  14.432  17.438  0.00  0.00    +0.000 OA
ATOM     23  H   UNL     1      10.514  14.857  17.436  0.00  0.00    +0.000 HD
ENDBRANCH  18  22
ENDBRANCH   2  14
TORSDOF 7
ENDMDL
MODEL 2
REMARK VINA RESULT:      -7.3      0.725      1.302
REMARK  Name = 
REMARK  7 active torsions:
REMARK  status: ('A' for Active; 'I' for Inactive)
REMARK    1  A    between atoms: O_1  and  C_2
REMARK    2  A    between atoms: C_2  and  C_3
REMARK    3  A    between atoms: C_4  and  C_5
REMARK    4  A    between atoms: C_8  and  C_9
REMARK    5  A    between atoms: C_10  and  C_11
REMARK    6  A    between atoms: C_14  and  O_15
REMARK    7  A    between atoms: C_16  and  O_17
REMARK                            x       y       z     vdW  Elec       q    Type
REMARK                         _______ _______ _______ _____ _____    ______ ____
ROOT
ATOM      1  C   UNL     1       7.925   8.665  17.681  0.00  0.00    +0.000 C 
ATOM      2  C   UNL     1       8.616   9.040  18.770  0.00  0.00    +0.000 C 
ENDROOT
BRANCH   1   6
ATOM      3  C   UNL     1       5.757   4.956  17.465  0.00  0.00    +0.000 A 
ATOM      4  C   UNL     1       6.990   5.048  18.118  0.00  0.00    +0.000 A 
ATOM      5  C   UNL     1       7.674   6.267  18.188  0.00  0.00    +0.000 A 
ATOM      6  C   UNL     1       7.153   7.415  17.585  0.00  0.00    +0.000 A 
ATOM      7  C   UNL     1       5.916   7.324  16.933  0.00  0.00    +0.000 A 
ATOM      8  C   UNL     1       5.234   6.103  16.860  0.00  0.00    +0.000 A 
BRANCH   3  10
ATOM      9  C   UNL     1       3.856   3.438  17.947  0.00  0.00    +0.000 C 
ATOM     10  C   UNL     1       5.034   3.682  17.348  0.00  0.00    +0.000 C 
BRANCH   9  11
ATOM     11  C   UNL     1       3.118   2.147  17.869  0.00  0.00    +0.000 C 
BRANCH  11  12
ATOM     12  O   UNL     1       3.999   1.130  18.318  0.00  0.00    +0.000 OA
ATOM     13  H   UNL     1       3.449   0.444  18.729  0.00  0.00    +0.000 HD
ENDBRANCH  11  12
ENDBRANCH   9  11
ENDBRANCH   3  10
ENDBRANCH   1   6
BRANCH   2  14
ATOM     14  C   UNL     1       9.298  10.335  18.924  0.00  0.00    +0.000 A 
ATOM     15  C   UNL     1       9.720  10.728  20.207  0.00  0.00    +0.000 A 
ATOM     16  C   UNL     1      10.263  11.998  20.429  0.00  0.00    +0.000 A 
ATOM     17  C   UNL     1      10.374  12.880  19.364  0.00  0.00    +0.000 A 
ATOM     18  C   UNL     1       9.965  12.497  18.090  0.00  0.00    +0.000 A 
ATOM     19  C   UNL     1       9.430  11.236  17.860  0.00  0.00    +0.000 A 
BRANCH  17  20
ATOM     20  O   UNL     1      10.867  14.146  19.521  0.00  0.00    +0.000 OA
ATOM     21  H   UNL     1      10.139  14.774  19.371  0.00  0.00    +0.000 HD
ENDBRANCH  17  20
BRANCH  18  22
ATOM     22  O   UNL     1      10.061  13.379  17.050  0.00  0.00    +0.000 OA
ATOM     23  H   UNL     1       9.683  12.897  16.287  0.00  0.00    +0.000 HD
ENDBRANCH  18  22
ENDBRANCH   2  14
TORSDOF 7
ENDMDL
MODEL 3
REMARK VINA RESULT:      -7.2      0.948      1.415
REMARK  Name = 
REMARK  7 active torsions:
REMARK  status: ('A' for Active; 'I' for Inactive)
REMARK    1  A    between atoms: O_1  and  C_2
REMARK    2  A    between atoms: C_2  and  C_3
REMARK    3  A    between atoms: C_4  and  C_5
REMARK    4  A    between atoms: C_8  and  C_9
REMARK    5  A    between atoms: C_10  and  C_11
REMARK    6  A    between atoms: C_14  and  O_15
REMARK    7  A    between atoms: C_16  and  O_17
REMARK                            x       y       z     vdW  Elec       q    Type
REMARK                         _______ _______ _______ _____ _____    ______ ____
ROOT
ATOM      1  C   UNL     1       8.285   8.766  17.571  0.00  0.00    +0.000 C 
ATOM      2  C   UNL     1       8.643   9.632  18.533  0.00  0.00    +0.000 C 
ENDROOT
BRANCH   1   6
ATOM      3  C   UNL     1       5.984   5.213  18.341  0.00  0.00    +0.000 A 
ATOM      4  C   UNL     1       7.205   5.450  18.981  0.00  0.00    +0.000 A 
ATOM      5  C   UNL     1       7.932   6.618  18.725  0.00  0.00    +0.000 A 
ATOM      6  C   UNL     1       7.469   7.563  17.807  0.00  0.00    +0.000 A 
ATOM      7  C   UNL     1       6.244   7.328  17.167  0.00  0.00    +0.000 A 
ATOM      8  C   UNL     1       5.518   6.157  17.420  0.00  0.00    +0.000 A 
BRANCH   3  10
ATOM      9  C   UNL     1       4.252   3.545  17.738  0.00  0.00    +0.000 C 
ATOM     10  C   UNL     1       5.216   3.981  18.566  0.00  0.00    +0.000 C 
BRANCH   9  11
ATOM     11  C   UNL     1       3.439   2.317  17.958  0.00  0.00    +0.000 C 
BRANCH  11  12
ATOM     12  O   UNL     1       2.186   2.521  17.326  0.00  0.00    +0.000 OA
ATOM     13  H   UNL     1       2.278   2.206  16.413  0.00  0.00    +0.000 HD
ENDBRANCH  11  12
ENDBRANCH   9  11
ENDBRANCH   3  10
ENDBRANCH   1   6
BRANCH   2  14
ATOM     14  C   UNL     1       9.360  10.895  18.297  0.00  0.00    +0.000 A 
ATOM     15  C   UNL     1      10.720  10.975  18.645  0.00  0.00    +0.000 A 
ATOM     16  C   UNL     1      11.417  12.184  18.555  0.00  0.00    +0.000 A 
ATOM     17  C   UNL     1      10.746  13.320  18.123  0.00  0.00    +0.000 A 
ATOM     18  C   UNL     1       9.402  13.248  17.770  0.00  0.00    +0.000 A 
ATOM     19  C   UNL     1       8.704  12.050  17.851  0.00  0.00    +0.000 A 
BRANCH  17  20
ATOM     20  O   UNL     1      11.362  14.538  18.043  0.00  0.00    +0.000 OA
ATOM     21  H   UNL     1      10.680  15.227  18.122  0.00  0.00    +0.000 HD
ENDBRANCH  17  20
BRANCH  18  22
ATOM     22  O   UNL     1       8.744  14.375  17.363  0.00  0.00    +0.000 OA
ATOM     23  H   UNL     1       9.404  15.091  17.461  0.00  0.00    +0.000 HD
ENDBRANCH  18  22
ENDBRANCH   2  14
TORSDOF 7
ENDMDL
MODEL 4
REMARK VINA RESULT:      -7.1      1.168      1.735
REMARK  Name = 
REMARK  7 active torsions:
REMARK  status: ('A' for Active; 'I' for Inactive)
REMARK    1  A    between atoms: O_1  and  C_2
REMARK    2  A    between atoms: C_2  and  C_3
REMARK    3  A    between atoms: C_4  and  C_5
REMARK    4  A    between atoms: C_8  and  C_9
REMARK    5  A    between atoms: C_10  and  C_11
REMARK    6  A    between atoms: C_14  and  O_15
REMARK    7  A    between atoms: C_16  and  O_17
REMARK                            x       y       z     vdW  Elec       q    Type
REMARK                         _______ _______ _______ _____ _____    ______ ____
ROOT
ATOM      1  C   UNL     1       7.735   8.426  17.594  0.00  0.00    +0.000 C 
ATOM      2  C   UNL     1       8.466   8.737  18.677  0.00  0.00    +0.000 C 
ENDROOT
BRANCH   1   6
ATOM      3  C   UNL     1       5.424   4.829  17.110  0.00  0.00    +0.000 A 
ATOM      4  C   UNL     1       4.906   6.085  16.777  0.00  0.00    +0.000 A 
ATOM      5  C   UNL     1       5.679   7.242  16.930  0.00  0.00    +0.000 A 
ATOM      6  C   UNL     1       6.976   7.173  17.443  0.00  0.00    +0.000 A 
ATOM      7  C   UNL     1       7.497   5.915  17.776  0.00  0.00    +0.000 A 
ATOM      8  C   UNL     1       6.723   4.757  17.626  0.00  0.00    +0.000 A 
BRANCH   3  10
ATOM      9  C   UNL     1       3.440   3.426  17.600  0.00  0.00    +0.000 C 
ATOM     10  C   UNL     1       4.624   3.603  16.991  0.00  0.00    +0.000 C 
BRANCH   9  11
ATOM     11  C   UNL     1       2.625   2.182  17.520  0.00  0.00    +0.000 C 
BRANCH  11  12
ATOM     12  O   UNL     1       3.018   1.349  18.598  0.00  0.00    +0.000 OA
ATOM     13  H   UNL     1       3.635   1.866  19.141  0.00  0.00    +0.000 HD
ENDBRANCH  11  12
ENDBRANCH   9  11
ENDBRANCH   3  10
ENDBRANCH   1   6
BRANCH   2  14
ATOM     14  C   UNL     1       9.136  10.029  18.891  0.00  0.00    +0.000 A 
ATOM     15  C   UNL     1       9.654  10.714  17.778  0.00  0.00    +0.000 A 
ATOM     16  C   UNL     1      10.404  11.884  17.937  0.00  0.00    +0.000 A 
ATOM     17  C   UNL     1      10.644  12.364  19.217  0.00  0.00    +0.000 A 
ATOM     18  C   UNL     1      10.129  11.696  20.324  0.00  0.00    +0.000 A 
ATOM     19  C   UNL     1       9.378  10.537  20.174  0.00  0.00    +0.000 A 
BRANCH  17  20
ATOM     20  O   UNL     1      11.395  13.484  19.442  0.00  0.00    +0.000 OA
ATOM     21  H   UNL     1      11.044  13.930  20.231  0.00  0.00    +0.000 HD
ENDBRANCH  17  20
BRANCH  18  22
ATOM     22  O   UNL     1      10.385  12.165  21.582  0.00  0.00    +0.000 OA
ATOM     23  H   UNL     1       9.758  11.679  22.155  0.00  0.00    +0.000 HD
ENDBRANCH  18  22
ENDBRANCH   2  14
TORSDOF 7
ENDMDL
MODEL 5
REMARK VINA RESULT:      -7.1      6.385      7.514
REMARK  Name = 
REMARK  7 active torsions:
REMARK  status: ('A' for Active; 'I' for Inactive)
REMARK    1  A    between atoms: O_1  and  C_2
REMARK    2  A    between atoms: C_2  and  C_3
REMARK    3  A    between atoms: C_4  and  C_5
REMARK    4  A    between atoms: C_8  and  C_9
REMARK    5  A    between atoms: C_10  and  C_11
REMARK    6  A    between atoms: C_14  and  O_15
REMARK    7  A    between atoms: C_16  and  O_17
REMARK                            x       y       z     vdW  Elec       q    Type
REMARK                         _______ _______ _______ _____ _____    ______ ____
ROOT
ATOM      1  C   UNL     1       2.945   6.622  18.444  0.00  0.00    +0.000 C 
ATOM      2  C   UNL     1       2.404   7.840  18.278  0.00  0.00    +0.000 C 
ENDROOT
BRANCH   1   6
ATOM      3  C   UNL     1       5.439   4.768  15.468  0.00  0.00    +0.000 A 
ATOM      4  C   UNL     1       5.373   6.158  15.609  0.00  0.00    +0.000 A 
ATOM      5  C   UNL     1       4.565   6.741  16.591  0.00  0.00    +0.000 A 
ATOM      6  C   UNL     1       3.785   5.950  17.439  0.00  0.00    +0.000 A 
ATOM      7  C   UNL     1       3.852   4.557  17.300  0.00  0.00    +0.000 A 
ATOM      8  C   UNL     1       4.658   3.973  16.314  0.00  0.00    +0.000 A 
BRANCH   3  10
ATOM      9  C   UNL     1       5.767   3.752  13.231  0.00  0.00    +0.000 C 
ATOM     10  C   UNL     1       6.253   4.131  14.424  0.00  0.00    +0.000 C 
BRANCH   9  11
ATOM     11  C   UNL     1       6.563   3.077  12.168  0.00  0.00    +0.000 C 
BRANCH  11  12
ATOM     12  O   UNL     1       5.808   1.964  11.718  0.00  0.00    +0.000 OA
ATOM     13  H   UNL     1       6.307   1.168  11.966  0.00  0.00    +0.000 HD
ENDBRANCH  11  12
ENDBRANCH   9  11
ENDBRANCH   3  10
ENDBRANCH   1   6
BRANCH   2  14
ATOM     14  C   UNL     1       1.658   8.572  19.314  0.00  0.00    +0.000 A 
ATOM     15  C   UNL     1       1.582   8.023  20.606  0.00  0.00    +0.000 A 
ATOM     16  C   UNL     1       0.787   8.615  21.594  0.00  0.00    +0.000 A 
ATOM     17  C   UNL     1       0.060   9.755  21.283  0.00  0.00    +0.000 A 
ATOM     18  C   UNL     1       0.135  10.309  20.009  0.00  0.00    +0.000 A 
ATOM     19  C   UNL     1       0.926   9.731  19.023  0.00  0.00    +0.000 A 
BRANCH  17  20
ATOM     20  O   UNL     1      -0.758  10.362  22.194  0.00  0.00    +0.000 OA
ATOM     21  H   UNL     1      -1.562  10.655  21.731  0.00  0.00    +0.000 HD
ENDBRANCH  17  20
BRANCH  18  22
ATOM     22  O   UNL     1      -0.599  11.421  19.705  0.00  0.00    +0.000 OA
ATOM     23  H   UNL     1      -1.430  11.068  19.328  0.00  0.00    +0.000 HD
ENDBRANCH  18  22
ENDBRANCH   2  14
TORSDOF 7
ENDMDL
MODEL 6
REMARK VINA RESULT:      -7.0      6.349      7.506
REMARK  Name = 
REMARK  7 active torsions:
REMARK  status: ('A' for Active; 'I' for Inactive)
REMARK    1  A    between atoms: O_1  and  C_2
REMARK    2  A    between atoms: C_2  and  C_3
REMARK    3  A    between atoms: C_4  and  C_5
REMARK    4  A    between atoms: C_8  and  C_9
REMARK    5  A    between atoms: C_10  and  C_11
REMARK    6  A    between atoms: C_14  and  O_15
REMARK    7  A    between atoms: C_16  and  O_17
REMARK                            x       y       z     vdW  Elec       q    Type
REMARK                         _______ _______ _______ _____ _____    ______ ____
ROOT
ATOM      1  C   UNL     1       3.207   6.648  18.361  0.00  0.00    +0.000 C 
ATOM      2  C   UNL     1       2.437   7.730  18.167  0.00  0.00    +0.000 C 
ENDROOT
BRANCH   1   6
ATOM      3  C   UNL     1       5.464   4.629  15.305  0.00  0.00    +0.000 A 
ATOM      4  C   UNL     1       4.732   3.922  16.264  0.00  0.00    +0.000 A 
ATOM      5  C   UNL     1       3.994   4.598  17.242  0.00  0.00    +0.000 A 
ATOM      6  C   UNL     1       3.992   5.994  17.300  0.00  0.00    +0.000 A 
ATOM      7  C   UNL     1       4.724   6.703  16.338  0.00  0.00    +0.000 A 
ATOM      8  C   UNL     1       5.466   6.026  15.361  0.00  0.00    +0.000 A 
BRANCH   3  10
ATOM      9  C   UNL     1       5.837   3.680  13.044  0.00  0.00    +0.000 C 
ATOM     10  C   UNL     1       6.274   3.945  14.287  0.00  0.00    +0.000 C 
BRANCH   9  11
ATOM     11  C   UNL     1       6.626   2.963  12.005  0.00  0.00    +0.000 C 
BRANCH  11  12
ATOM     12  O   UNL     1       5.913   1.781  11.676  0.00  0.00    +0.000 OA
ATOM     13  H   UNL     1       5.456   1.495  12.483  0.00  0.00    +0.000 HD
ENDBRANCH  11  12
ENDBRANCH   9  11
ENDBRANCH   3  10
ENDBRANCH   1   6
BRANCH   2  14
ATOM     14  C   UNL     1       1.738   8.462  19.235  0.00  0.00    +0.000 A 
ATOM     15  C   UNL     1       1.658   7.879  20.512  0.00  0.00    +0.000 A 
ATOM     16  C   UNL     1       0.904   8.473  21.530  0.00  0.00    +0.000 A 
ATOM     17  C   UNL     1       0.219   9.651  21.263  0.00  0.00    +0.000 A 
ATOM     18  C   UNL     1       0.298  10.238  20.004  0.00  0.00    +0.000 A 
ATOM     19  C   UNL     1       1.049   9.657  18.990  0.00  0.00    +0.000 A 
BRANCH  17  20
ATOM     20  O   UNL     1      -0.560  10.264  22.204  0.00  0.00    +0.000 OA
ATOM     21  H   UNL     1      -0.203  10.044  23.082  0.00  0.00    +0.000 HD
ENDBRANCH  17  20
BRANCH  18  22
ATOM     22  O   UNL     1      -0.395  11.387  19.744  0.00  0.00    +0.000 OA
ATOM     23  H   UNL     1      -1.335  11.126  19.817  0.00  0.00    +0.000 HD
ENDBRANCH  18  22
ENDBRANCH   2  14
TORSDOF 7
ENDMDL
MODEL 7
REMARK VINA RESULT:      -7.0      1.351      1.801
REMARK  Name = 
REMARK  7 active torsions:
REMARK  status: ('A' for Active; 'I' for Inactive)
REMARK    1  A    between atoms: O_1  and  C_2
REMARK    2  A    between atoms: C_2  and  C_3
REMARK    3  A    between atoms: C_4  and  C_5
REMARK    4  A    between atoms: C_8  and  C_9
REMARK    5  A    between atoms: C_10  and  C_11
REMARK    6  A    between atoms: C_14  and  O_15
REMARK    7  A    between atoms: C_16  and  O_17
REMARK                            x       y       z     vdW  Elec       q    Type
REMARK                         _______ _______ _______ _____ _____    ______ ____
ROOT
ATOM      1  C   UNL     1       7.977   8.724  17.437  0.00  0.00    +0.000 C 
ATOM      2  C   UNL     1       8.590   9.478  18.364  0.00  0.00    +0.000 C 
ENDROOT
BRANCH   1   6
ATOM      3  C   UNL     1       5.939   5.013  18.203  0.00  0.00    +0.000 A 
ATOM      4  C   UNL     1       5.409   5.977  17.338  0.00  0.00    +0.000 A 
ATOM      5  C   UNL     1       6.094   7.172  17.093  0.00  0.00    +0.000 A 
ATOM      6  C   UNL     1       7.310   7.443  17.725  0.00  0.00    +0.000 A 
ATOM      7  C   UNL     1       7.843   6.478  18.590  0.00  0.00    +0.000 A 
ATOM      8  C   UNL     1       7.155   5.282  18.839  0.00  0.00    +0.000 A 
BRANCH   3  10
ATOM      9  C   UNL     1       4.397   3.616  19.551  0.00  0.00    +0.000 C 
ATOM     10  C   UNL     1       5.225   3.765  18.504  0.00  0.00    +0.000 C 
BRANCH   9  11
ATOM     11  C   UNL     1       3.686   2.353  19.894  0.00  0.00    +0.000 C 
BRANCH  11  12
ATOM     12  O   UNL     1       2.315   2.542  19.581  0.00  0.00    +0.000 OA
ATOM     13  H   UNL     1       2.134   3.491  19.675  0.00  0.00    +0.000 HD
ENDBRANCH  11  12
ENDBRANCH   9  11
ENDBRANCH   3  10
ENDBRANCH   1   6
BRANCH   2  14
ATOM     14  C   UNL     1       9.160  10.811  18.115  0.00  0.00    +0.000 A 
ATOM     15  C   UNL     1       8.286  11.903  17.971  0.00  0.00    +0.000 A 
ATOM     16  C   UNL     1       8.766  13.168  17.614  0.00  0.00    +0.000 A 
ATOM     17  C   UNL     1      10.125  13.336  17.392  0.00  0.00    +0.000 A 
ATOM     18  C   UNL     1      10.998  12.262  17.539  0.00  0.00    +0.000 A 
ATOM     19  C   UNL     1      10.530  11.005  17.899  0.00  0.00    +0.000 A 
BRANCH  17  20
ATOM     20  O   UNL     1      10.653  14.538  17.011  0.00  0.00    +0.000 OA
ATOM     21  H   UNL     1      10.893  15.031  17.814  0.00  0.00    +0.000 HD
ENDBRANCH  17  20
BRANCH  18  22
ATOM     22  O   UNL     1      12.333  12.432  17.300  0.00  0.00    +0.000 OA
ATOM     23  H   UNL     1      12.367  13.001  16.505  0.00  0.00    +0.000 HD
ENDBRANCH  18  22
ENDBRANCH   2  14
TORSDOF 7
ENDMDL
MODEL 8
REMARK VINA RESULT:      -7.0      0.998      1.012
REMARK  Name = 
REMARK  7 active torsions:
REMARK  status: ('A' for Active; 'I' for Inactive)
REMARK    1  A    between atoms: O_1  and  C_2
REMARK    2  A    between atoms: C_2  and  C_3
REMARK    3  A    between atoms: C_4  and  C_5
REMARK    4  A    between atoms: C_8  and  C_9
REMARK    5  A    between atoms: C_10  and  C_11
REMARK    6  A    between atoms: C_14  and  O_15
REMARK    7  A    between atoms: C_16  and  O_17
REMARK                            x       y       z     vdW  Elec       q    Type
REMARK                         _______ _______ _______ _____ _____    ______ ____
ROOT
ATOM      1  C   UNL     1       8.259   8.701  17.596  0.00  0.00    +0.000 C 
ATOM      2  C   UNL     1       8.652   9.573  18.539  0.00  0.00    +0.000 C 
ENDROOT
BRANCH   1   6
ATOM      3  C   UNL     1       5.958   5.141  18.332  0.00  0.00    +0.000 A 
ATOM      4  C   UNL     1       5.551   6.098  17.397  0.00  0.00    +0.000 A 
ATOM      5  C   UNL     1       6.320   7.243  17.164  0.00  0.00    +0.000 A 
ATOM      6  C   UNL     1       7.499   7.471  17.877  0.00  0.00    +0.000 A 
ATOM      7  C   UNL     1       7.910   6.511  18.812  0.00  0.00    +0.000 A 
ATOM      8  C   UNL     1       7.138   5.366  19.049  0.00  0.00    +0.000 A 
BRANCH   3  10
ATOM      9  C   UNL     1       4.217   3.462  17.789  0.00  0.00    +0.000 C 
ATOM     10  C   UNL     1       5.154   3.945  18.621  0.00  0.00    +0.000 C 
BRANCH   9  11
ATOM     11  C   UNL     1       3.368   2.271  18.071  0.00  0.00    +0.000 C 
BRANCH  11  12
ATOM     12  O   UNL     1       2.123   2.747  18.559  0.00  0.00    +0.000 OA
ATOM     13  H   UNL     1       2.295   3.607  18.974  0.00  0.00    +0.000 HD
ENDBRANCH  11  12
ENDBRANCH   9  11
ENDBRANCH   3  10
ENDBRANCH   1   6
BRANCH   2  14
ATOM     14  C   UNL     1       9.310  10.860  18.266  0.00  0.00    +0.000 A 
ATOM     15  C   UNL     1      10.687  10.983  18.524  0.00  0.00    +0.000 A 
ATOM     16  C   UNL     1      11.337  12.216  18.397  0.00  0.00    +0.000 A 
ATOM     17  C   UNL     1      10.602  13.330  18.019  0.00  0.00    +0.000 A 
ATOM     18  C   UNL     1       9.240  13.216  17.755  0.00  0.00    +0.000 A 
ATOM     19  C   UNL     1       8.589  11.995  17.874  0.00  0.00    +0.000 A 
BRANCH  17  20
ATOM     20  O   UNL     1      11.171  14.569  17.908  0.00  0.00    +0.000 OA
ATOM     21  H   UNL     1      11.946  14.494  17.325  0.00  0.00    +0.000 HD
ENDBRANCH  17  20
BRANCH  18  22
ATOM     22  O   UNL     1       8.520  14.323  17.403  0.00  0.00    +0.000 OA
ATOM     23  H   UNL     1       7.780  13.971  16.868  0.00  0.00    +0.000 HD
ENDBRANCH  18  22
ENDBRANCH   2  14
TORSDOF 7
ENDMDL
MODEL 9
REMARK VINA RESULT:      -7.0      2.458      9.441
REMARK  Name = 
REMARK  7 active torsions:
REMARK  status: ('A' for Active; 'I' for Inactive)
REMARK    1  A    between atoms: O_1  and  C_2
REMARK    2  A    between atoms: C_2  and  C_3
REMARK    3  A    between atoms: C_4  and  C_5
REMARK    4  A    between atoms: C_8  and  C_9
REMARK    5  A    between atoms: C_10  and  C_11
REMARK    6  A    between atoms: C_14  and  O_15
REMARK    7  A    between atoms: C_16  and  O_17
REMARK                            x       y       z     vdW  Elec       q    Type
REMARK                         _______ _______ _______ _____ _____    ______ ____
ROOT
ATOM      1  C   UNL     1       9.258   9.868  18.301  0.00  0.00    +0.000 C 
ATOM      2  C   UNL     1       8.241   9.252  17.677  0.00  0.00    +0.000 C 
ENDROOT
BRANCH   1   6
ATOM      3  C   UNL     1      10.147  14.044  17.765  0.00  0.00    +0.000 A 
ATOM      4  C   UNL     1       8.851  13.599  18.048  0.00  0.00    +0.000 A 
ATOM      5  C   UNL     1       8.585  12.238  18.230  0.00  0.00    +0.000 A 
ATOM      6  C   UNL     1       9.602  11.287  18.111  0.00  0.00    +0.000 A 
ATOM      7  C   UNL     1      10.901  11.732  17.830  0.00  0.00    +0.000 A 
ATOM      8  C   UNL     1      11.167  13.095  17.644  0.00  0.00    +0.000 A 
BRANCH   3  10
ATOM      9  C   UNL     1       9.603  16.462  17.845  0.00  0.00    +0.000 C 
ATOM     10  C   UNL     1      10.448  15.463  17.536  0.00  0.00    +0.000 C 
BRANCH   9  11
ATOM     11  C   UNL     1       9.872  17.905  17.596  0.00  0.00    +0.000 C 
BRANCH  11  12
ATOM     12  O   UNL     1       8.705  18.621  17.966  0.00  0.00    +0.000 OA
ATOM     13  H   UNL     1       8.148  18.679  17.173  0.00  0.00    +0.000 HD
ENDBRANCH  11  12
ENDBRANCH   9  11
ENDBRANCH   3  10
ENDBRANCH   1   6
BRANCH   2  14
ATOM     14  C   UNL     1       7.814   7.869  17.940  0.00  0.00    +0.000 A 
ATOM     15  C   UNL     1       6.801   7.311  17.140  0.00  0.00    +0.000 A 
ATOM     16  C   UNL     1       6.273   6.046  17.422  0.00  0.00    +0.000 A 
ATOM     17  C   UNL     1       6.755   5.343  18.517  0.00  0.00    +0.000 A 
ATOM     18  C   UNL     1       7.762   5.884  19.311  0.00  0.00    +0.000 A 
ATOM     19  C   UNL     1       8.295   7.137  19.033  0.00  0.00    +0.000 A 
BRANCH  17  20
ATOM     20  O   UNL     1       6.260   4.117  18.865  0.00  0.00    +0.000 OA
ATOM     21  H   UNL     1       5.731   4.224  19.675  0.00  0.00    +0.000 HD
ENDBRANCH  17  20
BRANCH  18  22
ATOM     22  O   UNL     1       8.218   5.193  20.398  0.00  0.00    +0.000 OA
ATOM     23  H   UNL     1       8.553   4.351  20.028  0.00  0.00    +0.000 HD
ENDBRANCH  18  22
ENDBRANCH   2  14
TORSDOF 7
ENDMDL
