MODEL 1
REMARK VINA RESULT:      -8.4      0.000      0.000
REMARK  Name = 
REMARK  8 active torsions:
REMARK  status: ('A' for Active; 'I' for Inactive)
REMARK    1  A    between atoms: C_1  and  C_2
REMARK    2  A    between atoms: C_3  and  C_4
REMARK    3  A    between atoms: N_6  and  C_7
REMARK    4  A    between atoms: N_16  and  C_17
REMARK    5  A    between atoms: C_22  and  C_23
REMARK    6  A    between atoms: C_23  and  C_24
REMARK    7  A    between atoms: C_24  and  C_25
REMARK    8  A    between atoms: C_24  and  C_26
REMARK                            x       y       z     vdW  Elec       q    Type
REMARK                         _______ _______ _______ _____ _____    ______ ____
ROOT
ATOM      1  C   UNL     1       3.682   8.127  17.405  0.00  0.00    +0.000 C 
ATOM      2  C   UNL     1       3.276   7.132  18.456  0.00  0.00    +0.000 A 
ATOM      3  C   UNL     1       2.283   7.301  19.449  0.00  0.00    +0.000 A 
ATOM      4  N   UNL     1       2.344   6.177  20.195  0.00  0.00    +0.000 N 
ATOM      5  O   UNL     1       1.670   5.808  21.178  0.00  0.00    +0.000 OA
ATOM      6  C   UNL     1       3.288   5.392  19.763  0.00  0.00    +0.000 A 
ATOM      7  N   UNL     1       3.939   5.900  18.674  0.00  0.00    +0.000 N 
ENDROOT
BRANCH   7   8
ATOM      8  C   UNL     1       4.968   5.282  17.933  0.00  0.00    +0.000 A 
ATOM      9  C   UNL     1       6.192   5.955  17.838  0.00  0.00    +0.000 A 
ATOM     10  C   UNL     1       7.303   5.364  17.266  0.00  0.00    +0.000 A 
ATOM     11  C   UNL     1       6.822   4.741  16.124  0.00  0.00    +0.000 A 
ATOM     12  N   UNL     1       7.098   4.979  14.817  0.00  0.00    +0.000 N 
ATOM     13  C   UNL     1       6.454   4.026  14.081  0.00  0.00    +0.000 A 
ATOM     14  N   UNL     1       5.526   3.429  14.813  0.00  0.00    +0.000 NA
ATOM     15  C   UNL     1       5.632   4.024  16.055  0.00  0.00    +0.000 A 
ATOM     16  C   UNL     1       4.732   4.144  17.131  0.00  0.00    +0.000 A 
ATOM     17  H   UNL     1       7.733   5.681  14.469  0.00  0.00    +0.000 HD
BRANCH  13  18
ATOM     18  C   UNL     1       6.806   3.890  12.642  0.00  0.00    +0.000 C 
BRANCH  18  19
ATOM     19  C   UNL     1       6.198   2.641  11.963  0.00  0.00    +0.000 C 
ATOM     20  C   UNL     1       4.827   2.858  11.303  0.00  0.00    +0.000 C 
ATOM     21  C   UNL     1       7.165   2.037  10.947  0.00  0.00    +0.000 C 
ENDBRANCH  18  19
ENDBRANCH  13  18
ENDBRANCH   7   8
BRANCH   3  22
ATOM     22  C   UNL     1       1.396   8.415  19.692  0.00  0.00    +0.000 C 
ATOM     23  O   UNL     1       0.869   8.998  18.758  0.00  0.00    +0.000 OA
ATOM     24  N   UNL     1       1.235   8.759  21.021  0.00  0.00    +0.000 N 
ATOM     25  H   UNL     1       1.771   8.208  21.697  0.00  0.00    +0.000 HD
BRANCH  24  26
ATOM     26  C   UNL     1       0.489   9.838  21.537  0.00  0.00    +0.000 A 
ATOM     27  C   UNL     1       0.583  11.151  21.062  0.00  0.00    +0.000 A 
ATOM     28  C   UNL     1      -0.173  12.172  21.641  0.00  0.00    +0.000 A 
ATOM     29  C   UNL     1      -1.030  11.898  22.701  0.00  0.00    +0.000 A 
ATOM     30  C   UNL     1      -1.141  10.591  23.175  0.00  0.00    +0.000 A 
ATOM     31  C   UNL     1      -0.391   9.566  22.591  0.00  0.00    +0.000 A 
ENDBRANCH  24  26
ENDBRANCH   3  22
TORSDOF 5
ENDMDL
MODEL 2
REMARK VINA RESULT:      -8.3      1.020      1.336
REMARK  Name = 
REMARK  8 active torsions:
REMARK  status: ('A' for Active; 'I' for Inactive)
REMARK    1  A    between atoms: C_1  and  C_2
REMARK    2  A    between atoms: C_3  and  C_4
REMARK    3  A    between atoms: N_6  and  C_7
REMARK    4  A    between atoms: N_16  and  C_17
REMARK    5  A    between atoms: C_22  and  C_23
REMARK    6  A    between atoms: C_23  and  C_24
REMARK    7  A    between atoms: C_24  and  C_25
REMARK    8  A    between atoms: C_24  and  C_26
REMARK                            x       y       z     vdW  Elec       q    Type
REMARK                         _______ _______ _______ _____ _____    ______ ____
ROOT
ATOM      1  C   UNL     1       3.199   7.657  18.110  0.00  0.00    +0.000 C 
ATOM      2  C   UNL     1       3.194   6.454  19.011  0.00  0.00    +0.000 A 
ATOM      3  C   UNL     1       2.341   6.220  20.114  0.00  0.00    +0.000 A 
ATOM      4  N   UNL     1       2.773   5.056  20.647  0.00  0.00    +0.000 N 
ATOM      5  O   UNL     1       2.351   4.391  21.615  0.00  0.00    +0.000 OA
ATOM      6  C   UNL     1       3.805   4.610  19.992  0.00  0.00    +0.000 A 
ATOM      7  N   UNL     1       4.155   5.416  18.946  0.00  0.00    +0.000 N 
ENDROOT
BRANCH   7   8
ATOM      8  C   UNL     1       5.186   5.195  18.010  0.00  0.00    +0.000 A 
ATOM      9  C   UNL     1       5.915   6.307  17.573  0.00  0.00    +0.000 A 
ATOM     10  C   UNL     1       7.038   6.173  16.777  0.00  0.00    +0.000 A 
ATOM     11  C   UNL     1       6.686   5.223  15.829  0.00  0.00    +0.000 A 
ATOM     12  N   UNL     1       6.561   5.337  14.484  0.00  0.00    +0.000 N 
ATOM     13  C   UNL     1       6.300   4.092  13.988  0.00  0.00    +0.000 A 
ATOM     14  N   UNL     1       5.916   3.281  14.962  0.00  0.00    +0.000 NA
ATOM     15  C   UNL     1       5.975   4.059  16.102  0.00  0.00    +0.000 A 
ATOM     16  C   UNL     1       5.352   3.952  17.359  0.00  0.00    +0.000 A 
ATOM     17  H   UNL     1       6.717   6.177  13.948  0.00  0.00    +0.000 HD
BRANCH  13  18
ATOM     18  C   UNL     1       6.387   3.886  12.517  0.00  0.00    +0.000 C 
BRANCH  18  19
ATOM     19  C   UNL     1       5.451   2.777  11.983  0.00  0.00    +0.000 C 
ATOM     20  C   UNL     1       4.253   3.273  11.158  0.00  0.00    +0.000 C 
ATOM     21  C   UNL     1       6.228   1.736  11.181  0.00  0.00    +0.000 C 
ENDBRANCH  18  19
ENDBRANCH  13  18
ENDBRANCH   7   8
BRANCH   3  22
ATOM     22  C   UNL     1       1.257   7.023  20.633  0.00  0.00    +0.000 C 
ATOM     23  O   UNL     1       0.116   6.590  20.637  0.00  0.00    +0.000 OA
ATOM     24  N   UNL     1       1.619   8.281  21.077  0.00  0.00    +0.000 N 
ATOM     25  H   UNL     1       2.607   8.526  20.978  0.00  0.00    +0.000 HD
BRANCH  24  26
ATOM     26  C   UNL     1       0.764   9.290  21.566  0.00  0.00    +0.000 A 
ATOM     27  C   UNL     1       0.174   9.266  22.835  0.00  0.00    +0.000 A 
ATOM     28  C   UNL     1      -0.682  10.292  23.239  0.00  0.00    +0.000 A 
ATOM     29  C   UNL     1      -0.962  11.353  22.384  0.00  0.00    +0.000 A 
ATOM     30  C   UNL     1      -0.370  11.393  21.122  0.00  0.00    +0.000 A 
ATOM     31  C   UNL     1       0.494  10.371  20.719  0.00  0.00    +0.000 A 
ENDBRANCH  24  26
ENDBRANCH   3  22
TORSDOF 5
ENDMDL
MODEL 3
REMARK VINA RESULT:      -8.3      3.056      4.945
REMARK  Name = 
REMARK  8 active torsions:
REMARK  status: ('A' for Active; 'I' for Inactive)
REMARK    1  A    between atoms: C_1  and  C_2
REMARK    2  A    between atoms: C_3  and  C_4
REMARK    3  A    between atoms: N_6  and  C_7
REMARK    4  A    between atoms: N_16  and  C_17
REMARK    5  A    between atoms: C_22  and  C_23
REMARK    6  A    between atoms: C_23  and  C_24
REMARK    7  A    between atoms: C_24  and  C_25
REMARK    8  A    between atoms: C_24  and  C_26
REMARK                            x       y       z     vdW  Elec       q    Type
REMARK                         _______ _______ _______ _____ _____    ______ ____
ROOT
ATOM      1  C   UNL     1       0.125  10.161  18.811  0.00  0.00    +0.000 C 
ATOM      2  C   UNL     1       0.464   9.698  20.200  0.00  0.00    +0.000 A 
ATOM      3  C   UNL     1       0.147  10.348  21.415  0.00  0.00    +0.000 A 
ATOM      4  N   UNL     1       0.728   9.595  22.374  0.00  0.00    +0.000 N 
ATOM      5  O   UNL     1       0.734   9.711  23.616  0.00  0.00    +0.000 OA
ATOM      6  C   UNL     1       1.375   8.598  21.843  0.00  0.00    +0.000 A 
ATOM      7  N   UNL     1       1.277   8.573  20.480  0.00  0.00    +0.000 N 
ENDROOT
BRANCH   7   8
ATOM      8  C   UNL     1       1.811   7.602  19.607  0.00  0.00    +0.000 A 
ATOM      9  C   UNL     1       1.970   6.303  20.103  0.00  0.00    +0.000 A 
ATOM     10  C   UNL     1       2.340   5.253  19.282  0.00  0.00    +0.000 A 
ATOM     11  C   UNL     1       3.355   5.767  18.489  0.00  0.00    +0.000 A 
ATOM     12  N   UNL     1       4.663   5.418  18.410  0.00  0.00    +0.000 N 
ATOM     13  C   UNL     1       5.223   6.147  17.401  0.00  0.00    +0.000 A 
ATOM     14  N   UNL     1       4.441   7.167  17.082  0.00  0.00    +0.000 NA
ATOM     15  C   UNL     1       3.344   7.032  17.911  0.00  0.00    +0.000 A 
ATOM     16  C   UNL     1       2.372   7.947  18.358  0.00  0.00    +0.000 A 
ATOM     17  H   UNL     1       5.111   4.690  18.946  0.00  0.00    +0.000 HD
BRANCH  13  18
ATOM     18  C   UNL     1       6.580   5.765  16.923  0.00  0.00    +0.000 C 
BRANCH  18  19
ATOM     19  C   UNL     1       7.732   6.471  17.676  0.00  0.00    +0.000 C 
ATOM     20  C   UNL     1       7.689   8.006  17.645  0.00  0.00    +0.000 C 
ATOM     21  C   UNL     1       7.824   5.990  19.122  0.00  0.00    +0.000 C 
ENDBRANCH  18  19
ENDBRANCH  13  18
ENDBRANCH   7   8
BRANCH   3  22
ATOM     22  C   UNL     1      -0.592  11.568  21.647  0.00  0.00    +0.000 C 
ATOM     23  O   UNL     1      -0.550  12.479  20.835  0.00  0.00    +0.000 OA
ATOM     24  N   UNL     1      -1.295  11.611  22.837  0.00  0.00    +0.000 N 
ATOM     25  H   UNL     1      -1.209  10.790  23.441  0.00  0.00    +0.000 HD
BRANCH  24  26
ATOM     26  C   UNL     1      -2.041  12.694  23.346  0.00  0.00    +0.000 A 
ATOM     27  C   UNL     1      -1.487  13.933  23.685  0.00  0.00    +0.000 A 
ATOM     28  C   UNL     1      -2.287  14.951  24.207  0.00  0.00    +0.000 A 
ATOM     29  C   UNL     1      -3.650  14.745  24.398  0.00  0.00    +0.000 A 
ATOM     30  C   UNL     1      -4.215  13.519  24.053  0.00  0.00    +0.000 A 
ATOM     31  C   UNL     1      -3.416  12.502  23.522  0.00  0.00    +0.000 A 
ENDBRANCH  24  26
ENDBRANCH   3  22
TORSDOF 5
ENDMDL
MODEL 4
REMARK VINA RESULT:      -8.1      1.150      1.991
REMARK  Name = 
REMARK  8 active torsions:
REMARK  status: ('A' for Active; 'I' for Inactive)
REMARK    1  A    between atoms: C_1  and  C_2
REMARK    2  A    between atoms: C_3  and  C_4
REMARK    3  A    between atoms: N_6  and  C_7
REMARK    4  A    between atoms: N_16  and  C_17
REMARK    5  A    between atoms: C_22  and  C_23
REMARK    6  A    between atoms: C_23  and  C_24
REMARK    7  A    between atoms: C_24  and  C_25
REMARK    8  A    between atoms: C_24  and  C_26
REMARK                            x       y       z     vdW  Elec       q    Type
REMARK                         _______ _______ _______ _____ _____    ______ ____
ROOT
ATOM      1  C   UNL     1       2.826   5.916  20.140  0.00  0.00    +0.000 C 
ATOM      2  C   UNL     1       2.819   7.082  19.192  0.00  0.00    +0.000 A 
ATOM      3  C   UNL     1       2.014   8.242  19.276  0.00  0.00    +0.000 A 
ATOM      4  N   UNL     1       2.309   8.951  18.165  0.00  0.00    +0.000 N 
ATOM      5  O   UNL     1       1.898  10.060  17.767  0.00  0.00    +0.000 OA
ATOM      6  C   UNL     1       3.171   8.310  17.430  0.00  0.00    +0.000 A 
ATOM      7  N   UNL     1       3.554   7.121  17.983  0.00  0.00    +0.000 N 
ENDROOT
BRANCH   7   8
ATOM      8  C   UNL     1       4.509   6.216  17.475  0.00  0.00    +0.000 A 
ATOM      9  C   UNL     1       5.847   6.627  17.457  0.00  0.00    +0.000 A 
ATOM     10  C   UNL     1       6.869   5.758  17.121  0.00  0.00    +0.000 A 
ATOM     11  C   UNL     1       6.395   5.065  16.017  0.00  0.00    +0.000 A 
ATOM     12  N   UNL     1       6.851   5.041  14.740  0.00  0.00    +0.000 N 
ATOM     13  C   UNL     1       6.108   4.122  14.056  0.00  0.00    +0.000 A 
ATOM     14  N   UNL     1       5.006   3.829  14.729  0.00  0.00    +0.000 NA
ATOM     15  C   UNL     1       5.098   4.579  15.885  0.00  0.00    +0.000 A 
ATOM     16  C   UNL     1       4.133   5.030  16.805  0.00  0.00    +0.000 A 
ATOM     17  H   UNL     1       7.647   5.550  14.391  0.00  0.00    +0.000 HD
BRANCH  13  18
ATOM     18  C   UNL     1       6.575   3.701  12.708  0.00  0.00    +0.000 C 
BRANCH  18  19
ATOM     19  C   UNL     1       5.702   2.603  12.056  0.00  0.00    +0.000 C 
ATOM     20  C   UNL     1       4.483   3.116  11.273  0.00  0.00    +0.000 C 
ATOM     21  C   UNL     1       6.537   1.689  11.163  0.00  0.00    +0.000 C 
ENDBRANCH  18  19
ENDBRANCH  13  18
ENDBRANCH   7   8
BRANCH   3  22
ATOM     22  C   UNL     1       1.045   8.627  20.277  0.00  0.00    +0.000 C 
ATOM     23  O   UNL     1       0.507   7.779  20.972  0.00  0.00    +0.000 OA
ATOM     24  N   UNL     1       0.777   9.981  20.346  0.00  0.00    +0.000 N 
ATOM     25  H   UNL     1       1.273  10.573  19.674  0.00  0.00    +0.000 HD
BRANCH  24  26
ATOM     26  C   UNL     1      -0.166  10.621  21.175  0.00  0.00    +0.000 A 
ATOM     27  C   UNL     1      -0.359  10.307  22.525  0.00  0.00    +0.000 A 
ATOM     28  C   UNL     1      -1.331  10.969  23.277  0.00  0.00    +0.000 A 
ATOM     29  C   UNL     1      -2.123  11.953  22.693  0.00  0.00    +0.000 A 
ATOM     30  C   UNL     1      -1.931  12.283  21.352  0.00  0.00    +0.000 A 
ATOM     31  C   UNL     1      -0.953  11.626  20.600  0.00  0.00    +0.000 A 
ENDBRANCH  24  26
ENDBRANCH   3  22
TORSDOF 5
ENDMDL
MODEL 5
REMARK VINA RESULT:      -8.0      2.348      4.257
REMARK  Name = 
REMARK  8 active torsions:
REMARK  status: ('A' for Active; 'I' for Inactive)
REMARK    1  A    between atoms: C_1  and  C_2
REMARK    2  A    between atoms: C_3  and  C_4
REMARK    3  A    between atoms: N_6  and  C_7
REMARK    4  A    between atoms: N_16  and  C_17
REMARK    5  A    between atoms: C_22  and  C_23
REMARK    6  A    between atoms: C_23  and  C_24
REMARK    7  A    between atoms: C_24  and  C_25
REMARK    8  A    between atoms: C_24  and  C_26
REMARK                            x       y       z     vdW  Elec       q    Type
REMARK                         _______ _______ _______ _____ _____    ______ ____
ROOT
ATOM      1  C   UNL     1       0.359  10.053  18.737  0.00  0.00    +0.000 C 
ATOM      2  C   UNL     1       0.658   9.587  20.134  0.00  0.00    +0.000 A 
ATOM      3  C   UNL     1       0.323  10.245  21.341  0.00  0.00    +0.000 A 
ATOM      4  N   UNL     1       0.870   9.485  22.314  0.00  0.00    +0.000 N 
ATOM      5  O   UNL     1       0.848   9.604  23.557  0.00  0.00    +0.000 OA
ATOM      6  C   UNL     1       1.514   8.478  21.800  0.00  0.00    +0.000 A 
ATOM      7  N   UNL     1       1.447   8.451  20.436  0.00  0.00    +0.000 N 
ENDROOT
BRANCH   7   8
ATOM      8  C   UNL     1       1.987   7.471  19.578  0.00  0.00    +0.000 A 
ATOM      9  C   UNL     1       2.127   6.173  20.083  0.00  0.00    +0.000 A 
ATOM     10  C   UNL     1       2.502   5.115  19.275  0.00  0.00    +0.000 A 
ATOM     11  C   UNL     1       3.534   5.616  18.496  0.00  0.00    +0.000 A 
ATOM     12  N   UNL     1       4.840   5.255  18.440  0.00  0.00    +0.000 N 
ATOM     13  C   UNL     1       5.423   5.974  17.437  0.00  0.00    +0.000 A 
ATOM     14  N   UNL     1       4.654   6.998  17.099  0.00  0.00    +0.000 NA
ATOM     15  C   UNL     1       3.543   6.878  17.911  0.00  0.00    +0.000 A 
ATOM     16  C   UNL     1       2.572   7.803  18.336  0.00  0.00    +0.000 A 
ATOM     17  H   UNL     1       5.272   4.527  18.988  0.00  0.00    +0.000 HD
BRANCH  13  18
ATOM     18  C   UNL     1       6.783   5.577  16.983  0.00  0.00    +0.000 C 
BRANCH  18  19
ATOM     19  C   UNL     1       6.786   4.495  15.879  0.00  0.00    +0.000 C 
ATOM     20  C   UNL     1       5.514   3.635  15.803  0.00  0.00    +0.000 C 
ATOM     21  C   UNL     1       7.075   5.103  14.509  0.00  0.00    +0.000 C 
ENDBRANCH  18  19
ENDBRANCH  13  18
ENDBRANCH   7   8
BRANCH   3  22
ATOM     22  C   UNL     1      -0.404  11.476  21.553  0.00  0.00    +0.000 C 
ATOM     23  O   UNL     1      -0.263  12.415  20.786  0.00  0.00    +0.000 OA
ATOM     24  N   UNL     1      -1.213  11.495  22.674  0.00  0.00    +0.000 N 
ATOM     25  H   UNL     1      -1.204  10.649  23.250  0.00  0.00    +0.000 HD
BRANCH  24  26
ATOM     26  C   UNL     1      -1.975  12.578  23.156  0.00  0.00    +0.000 A 
ATOM     27  C   UNL     1      -1.426  13.799  23.564  0.00  0.00    +0.000 A 
ATOM     28  C   UNL     1      -2.245  14.818  24.053  0.00  0.00    +0.000 A 
ATOM     29  C   UNL     1      -3.620  14.633  24.143  0.00  0.00    +0.000 A 
ATOM     30  C   UNL     1      -4.180  13.425  23.729  0.00  0.00    +0.000 A 
ATOM     31  C   UNL     1      -3.362  12.407  23.231  0.00  0.00    +0.000 A 
ENDBRANCH  24  26
ENDBRANCH   3  22
TORSDOF 5
ENDMDL
MODEL 6
REMARK VINA RESULT:      -7.9      3.093      5.084
REMARK  Name = 
REMARK  8 active torsions:
REMARK  status: ('A' for Active; 'I' for Inactive)
REMARK    1  A    between atoms: C_1  and  C_2
REMARK    2  A    between atoms: C_3  and  C_4
REMARK    3  A    between atoms: N_6  and  C_7
REMARK    4  A    between atoms: N_16  and  C_17
REMARK    5  A    between atoms: C_22  and  C_23
REMARK    6  A    between atoms: C_23  and  C_24
REMARK    7  A    between atoms: C_24  and  C_25
REMARK    8  A    between atoms: C_24  and  C_26
REMARK                            x       y       z     vdW  Elec       q    Type
REMARK                         _______ _______ _______ _____ _____    ______ ____
ROOT
ATOM      1  C   UNL     1       0.212  10.272  18.946  0.00  0.00    +0.000 C 
ATOM      2  C   UNL     1       0.517   9.767  20.328  0.00  0.00    +0.000 A 
ATOM      3  C   UNL     1       0.216  10.405  21.554  0.00  0.00    +0.000 A 
ATOM      4  N   UNL     1       0.755   9.609  22.502  0.00  0.00    +0.000 N 
ATOM      5  O   UNL     1       0.753   9.699  23.747  0.00  0.00    +0.000 OA
ATOM      6  C   UNL     1       1.366   8.597  21.956  0.00  0.00    +0.000 A 
ATOM      7  N   UNL     1       1.280   8.604  20.592  0.00  0.00    +0.000 N 
ENDROOT
BRANCH   7   8
ATOM      8  C   UNL     1       1.782   7.630  19.704  0.00  0.00    +0.000 A 
ATOM      9  C   UNL     1       1.918   6.322  20.186  0.00  0.00    +0.000 A 
ATOM     10  C   UNL     1       2.255   5.272  19.351  0.00  0.00    +0.000 A 
ATOM     11  C   UNL     1       3.272   5.771  18.551  0.00  0.00    +0.000 A 
ATOM     12  N   UNL     1       4.571   5.394  18.454  0.00  0.00    +0.000 N 
ATOM     13  C   UNL     1       5.136   6.121  17.446  0.00  0.00    +0.000 A 
ATOM     14  N   UNL     1       4.373   7.160  17.145  0.00  0.00    +0.000 NA
ATOM     15  C   UNL     1       3.283   7.042  17.986  0.00  0.00    +0.000 A 
ATOM     16  C   UNL     1       2.338   7.974  18.452  0.00  0.00    +0.000 A 
ATOM     17  H   UNL     1       5.009   4.652  18.978  0.00  0.00    +0.000 HD
BRANCH  13  18
ATOM     18  C   UNL     1       6.478   5.713  16.949  0.00  0.00    +0.000 C 
BRANCH  18  19
ATOM     19  C   UNL     1       7.652   6.450  17.634  0.00  0.00    +0.000 C 
ATOM     20  C   UNL     1       7.586   7.984  17.572  0.00  0.00    +0.000 C 
ATOM     21  C   UNL     1       7.814   6.003  19.085  0.00  0.00    +0.000 C 
ENDBRANCH  18  19
ENDBRANCH  13  18
ENDBRANCH   7   8
BRANCH   3  22
ATOM     22  C   UNL     1      -0.475  11.649  21.805  0.00  0.00    +0.000 C 
ATOM     23  O   UNL     1       0.153  12.657  22.087  0.00  0.00    +0.000 OA
ATOM     24  N   UNL     1      -1.854  11.582  21.726  0.00  0.00    +0.000 N 
ATOM     25  H   UNL     1      -2.249  10.661  21.519  0.00  0.00    +0.000 HD
BRANCH  24  26
ATOM     26  C   UNL     1      -2.773  12.618  21.988  0.00  0.00    +0.000 A 
ATOM     27  C   UNL     1      -3.110  13.056  23.274  0.00  0.00    +0.000 A 
ATOM     28  C   UNL     1      -4.049  14.074  23.454  0.00  0.00    +0.000 A 
ATOM     29  C   UNL     1      -4.663  14.666  22.356  0.00  0.00    +0.000 A 
ATOM     30  C   UNL     1      -4.326  14.246  21.070  0.00  0.00    +0.000 A 
ATOM     31  C   UNL     1      -3.381  13.233  20.888  0.00  0.00    +0.000 A 
ENDBRANCH  24  26
ENDBRANCH   3  22
TORSDOF 5
ENDMDL
MODEL 7
REMARK VINA RESULT:      -7.9      1.186      1.457
REMARK  Name = 
REMARK  8 active torsions:
REMARK  status: ('A' for Active; 'I' for Inactive)
REMARK    1  A    between atoms: C_1  and  C_2
REMARK    2  A    between atoms: C_3  and  C_4
REMARK    3  A    between atoms: N_6  and  C_7
REMARK    4  A    between atoms: N_16  and  C_17
REMARK    5  A    between atoms: C_22  and  C_23
REMARK    6  A    between atoms: C_23  and  C_24
REMARK    7  A    between atoms: C_24  and  C_25
REMARK    8  A    between atoms: C_24  and  C_26
REMARK                            x       y       z     vdW  Elec       q    Type
REMARK                         _______ _______ _______ _____ _____    ______ ____
ROOT
ATOM      1  C   UNL     1       3.428   6.980  18.030  0.00  0.00    +0.000 C 
ATOM      2  C   UNL     1       3.320   5.835  18.998  0.00  0.00    +0.000 A 
ATOM      3  C   UNL     1       2.427   5.724  20.089  0.00  0.00    +0.000 A 
ATOM      4  N   UNL     1       2.766   4.568  20.699  0.00  0.00    +0.000 N 
ATOM      5  O   UNL     1       2.277   3.991  21.693  0.00  0.00    +0.000 OA
ATOM      6  C   UNL     1       3.780   4.015  20.100  0.00  0.00    +0.000 A 
ATOM      7  N   UNL     1       4.209   4.733  19.019  0.00  0.00    +0.000 N 
ENDROOT
BRANCH   7   8
ATOM      8  C   UNL     1       5.243   4.388  18.125  0.00  0.00    +0.000 A 
ATOM      9  C   UNL     1       6.462   5.065  18.252  0.00  0.00    +0.000 A 
ATOM     10  C   UNL     1       7.579   4.692  17.526  0.00  0.00    +0.000 A 
ATOM     11  C   UNL     1       7.104   4.459  16.244  0.00  0.00    +0.000 A 
ATOM     12  N   UNL     1       7.380   5.098  15.081  0.00  0.00    +0.000 N 
ATOM     13  C   UNL     1       6.745   4.422  14.079  0.00  0.00    +0.000 A 
ATOM     14  N   UNL     1       5.820   3.618  14.581  0.00  0.00    +0.000 NA
ATOM     15  C   UNL     1       5.919   3.791  15.948  0.00  0.00    +0.000 A 
ATOM     16  C   UNL     1       5.018   3.559  17.004  0.00  0.00    +0.000 A 
ATOM     17  H   UNL     1       8.010   5.879  14.974  0.00  0.00    +0.000 HD
BRANCH  13  18
ATOM     18  C   UNL     1       7.100   4.750  12.671  0.00  0.00    +0.000 C 
BRANCH  18  19
ATOM     19  C   UNL     1       6.549   3.743  11.635  0.00  0.00    +0.000 C 
ATOM     20  C   UNL     1       7.330   2.424  11.526  0.00  0.00    +0.000 C 
ATOM     21  C   UNL     1       5.072   3.445  11.884  0.00  0.00    +0.000 C 
ENDBRANCH  18  19
ENDBRANCH  13  18
ENDBRANCH   7   8
BRANCH   3  22
ATOM     22  C   UNL     1       1.389   6.627  20.532  0.00  0.00    +0.000 C 
ATOM     23  O   UNL     1       0.230   6.250  20.598  0.00  0.00    +0.000 OA
ATOM     24  N   UNL     1       1.814   7.909  20.831  0.00  0.00    +0.000 N 
ATOM     25  H   UNL     1       2.810   8.097  20.692  0.00  0.00    +0.000 HD
BRANCH  24  26
ATOM     26  C   UNL     1       1.014   9.002  21.218  0.00  0.00    +0.000 A 
ATOM     27  C   UNL     1       0.673  10.060  20.367  0.00  0.00    +0.000 A 
ATOM     28  C   UNL     1      -0.106  11.122  20.831  0.00  0.00    +0.000 A 
ATOM     29  C   UNL     1      -0.553  11.144  22.147  0.00  0.00    +0.000 A 
ATOM     30  C   UNL     1      -0.230  10.089  23.001  0.00  0.00    +0.000 A 
ATOM     31  C   UNL     1       0.542   9.022  22.536  0.00  0.00    +0.000 A 
ENDBRANCH  24  26
ENDBRANCH   3  22
TORSDOF 5
ENDMDL
MODEL 8
REMARK VINA RESULT:      -7.8      1.649      1.876
REMARK  Name = 
REMARK  8 active torsions:
REMARK  status: ('A' for Active; 'I' for Inactive)
REMARK    1  A    between atoms: C_1  and  C_2
REMARK    2  A    between atoms: C_3  and  C_4
REMARK    3  A    between atoms: N_6  and  C_7
REMARK    4  A    between atoms: N_16  and  C_17
REMARK    5  A    between atoms: C_22  and  C_23
REMARK    6  A    between atoms: C_23  and  C_24
REMARK    7  A    between atoms: C_24  and  C_25
REMARK    8  A    between atoms: C_24  and  C_26
REMARK                            x       y       z     vdW  Elec       q    Type
REMARK                         _______ _______ _______ _____ _____    ______ ____
ROOT
ATOM      1  C   UNL     1       3.685   8.196  17.392  0.00  0.00    +0.000 C 
ATOM      2  C   UNL     1       3.275   7.179  18.419  0.00  0.00    +0.000 A 
ATOM      3  C   UNL     1       2.277   7.325  19.411  0.00  0.00    +0.000 A 
ATOM      4  N   UNL     1       2.335   6.186  20.134  0.00  0.00    +0.000 N 
ATOM      5  O   UNL     1       1.656   5.796  21.105  0.00  0.00    +0.000 OA
ATOM      6  C   UNL     1       3.282   5.411  19.689  0.00  0.00    +0.000 A 
ATOM      7  N   UNL     1       3.937   5.943  18.615  0.00  0.00    +0.000 N 
ENDROOT
BRANCH   7   8
ATOM      8  C   UNL     1       4.970   5.342  17.866  0.00  0.00    +0.000 A 
ATOM      9  C   UNL     1       6.157   6.067  17.700  0.00  0.00    +0.000 A 
ATOM     10  C   UNL     1       7.276   5.503  17.116  0.00  0.00    +0.000 A 
ATOM     11  C   UNL     1       6.789   4.809  16.019  0.00  0.00    +0.000 A 
ATOM     12  N   UNL     1       7.012   5.000  14.695  0.00  0.00    +0.000 N 
ATOM     13  C   UNL     1       6.391   3.987  14.023  0.00  0.00    +0.000 A 
ATOM     14  N   UNL     1       5.517   3.380  14.811  0.00  0.00    +0.000 NA
ATOM     15  C   UNL     1       5.634   4.033  16.022  0.00  0.00    +0.000 A 
ATOM     16  C   UNL     1       4.765   4.159  17.122  0.00  0.00    +0.000 A 
ATOM     17  H   UNL     1       7.600   5.715  14.295  0.00  0.00    +0.000 HD
BRANCH  13  18
ATOM     18  C   UNL     1       6.702   3.803  12.579  0.00  0.00    +0.000 C 
BRANCH  18  19
ATOM     19  C   UNL     1       5.978   2.602  11.929  0.00  0.00    +0.000 C 
ATOM     20  C   UNL     1       4.646   2.937  11.239  0.00  0.00    +0.000 C 
ATOM     21  C   UNL     1       6.891   1.869  10.949  0.00  0.00    +0.000 C 
ENDBRANCH  18  19
ENDBRANCH  13  18
ENDBRANCH   7   8
BRANCH   3  22
ATOM     22  C   UNL     1       1.388   8.434  19.673  0.00  0.00    +0.000 C 
ATOM     23  O   UNL     1       0.963   8.631  20.800  0.00  0.00    +0.000 OA
ATOM     24  N   UNL     1       1.057   9.196  18.567  0.00  0.00    +0.000 N 
ATOM     25  H   UNL     1       1.455   8.892  17.676  0.00  0.00    +0.000 HD
BRANCH  24  26
ATOM     26  C   UNL     1       0.165  10.286  18.521  0.00  0.00    +0.000 A 
ATOM     27  C   UNL     1       0.480  11.573  18.971  0.00  0.00    +0.000 A 
ATOM     28  C   UNL     1      -0.467  12.598  18.915  0.00  0.00    +0.000 A 
ATOM     29  C   UNL     1      -1.740  12.352  18.410  0.00  0.00    +0.000 A 
ATOM     30  C   UNL     1      -2.061  11.076  17.947  0.00  0.00    +0.000 A 
ATOM     31  C   UNL     1      -1.111  10.052  17.996  0.00  0.00    +0.000 A 
ENDBRANCH  24  26
ENDBRANCH   3  22
TORSDOF 5
ENDMDL
MODEL 9
REMARK VINA RESULT:      -7.8      3.287      5.242
REMARK  Name = 
REMARK  8 active torsions:
REMARK  status: ('A' for Active; 'I' for Inactive)
REMARK    1  A    between atoms: C_1  and  C_2
REMARK    2  A    between atoms: C_3  and  C_4
REMARK    3  A    between atoms: N_6  and  C_7
REMARK    4  A    between atoms: N_16  and  C_17
REMARK    5  A    between atoms: C_22  and  C_23
REMARK    6  A    between atoms: C_23  and  C_24
REMARK    7  A    between atoms: C_24  and  C_25
REMARK    8  A    between atoms: C_24  and  C_26
REMARK                            x       y       z     vdW  Elec       q    Type
REMARK                         _______ _______ _______ _____ _____    ______ ____
ROOT
ATOM      1  C   UNL     1       0.387   8.998  21.859  0.00  0.00    +0.000 C 
ATOM      2  C   UNL     1       0.729   9.836  20.659  0.00  0.00    +0.000 A 
ATOM      3  C   UNL     1       0.432  11.205  20.465  0.00  0.00    +0.000 A 
ATOM      4  N   UNL     1       0.865  11.481  19.216  0.00  0.00    +0.000 N 
ATOM      5  O   UNL     1       0.866  12.546  18.565  0.00  0.00    +0.000 OA
ATOM      6  C   UNL     1       1.348  10.412  18.653  0.00  0.00    +0.000 A 
ATOM      7  N   UNL     1       1.307   9.320  19.474  0.00  0.00    +0.000 N 
ENDROOT
BRANCH   7   8
ATOM      8  C   UNL     1       1.797   8.028  19.195  0.00  0.00    +0.000 A 
ATOM      9  C   UNL     1       1.964   7.151  20.274  0.00  0.00    +0.000 A 
ATOM     10  C   UNL     1       2.292   5.821  20.085  0.00  0.00    +0.000 A 
ATOM     11  C   UNL     1       3.280   5.837  19.112  0.00  0.00    +0.000 A 
ATOM     12  N   UNL     1       4.581   5.460  19.182  0.00  0.00    +0.000 N 
ATOM     13  C   UNL     1       5.108   5.566  17.927  0.00  0.00    +0.000 A 
ATOM     14  N   UNL     1       4.323   6.306  17.160  0.00  0.00    +0.000 NA
ATOM     15  C   UNL     1       3.258   6.639  17.975  0.00  0.00    +0.000 A 
ATOM     16  C   UNL     1       2.313   7.680  17.927  0.00  0.00    +0.000 A 
ATOM     17  H   UNL     1       5.042   5.090  19.999  0.00  0.00    +0.000 HD
BRANCH  13  18
ATOM     18  C   UNL     1       6.441   4.957  17.669  0.00  0.00    +0.000 C 
BRANCH  18  19
ATOM     19  C   UNL     1       7.630   5.879  18.024  0.00  0.00    +0.000 C 
ATOM     20  C   UNL     1       7.459   7.352  17.621  0.00  0.00    +0.000 C 
ATOM     21  C   UNL     1       7.975   5.791  19.509  0.00  0.00    +0.000 C 
ENDBRANCH  18  19
ENDBRANCH  13  18
ENDBRANCH   7   8
BRANCH   3  22
ATOM     22  C   UNL     1      -0.221  12.145  21.347  0.00  0.00    +0.000 C 
ATOM     23  O   UNL     1       0.435  12.967  21.968  0.00  0.00    +0.000 OA
ATOM     24  N   UNL     1      -1.594  12.010  21.437  0.00  0.00    +0.000 N 
ATOM     25  H   UNL     1      -2.008  11.251  20.890  0.00  0.00    +0.000 HD
BRANCH  24  26
ATOM     26  C   UNL     1      -2.469  12.741  22.265  0.00  0.00    +0.000 A 
ATOM     27  C   UNL     1      -2.851  14.066  22.021  0.00  0.00    +0.000 A 
ATOM     28  C   UNL     1      -3.704  14.733  22.902  0.00  0.00    +0.000 A 
ATOM     29  C   UNL     1      -4.187  14.089  24.037  0.00  0.00    +0.000 A 
ATOM     30  C   UNL     1      -3.823  12.766  24.284  0.00  0.00    +0.000 A 
ATOM     31  C   UNL     1      -2.975  12.094  23.398  0.00  0.00    +0.000 A 
ENDBRANCH  24  26
ENDBRANCH   3  22
TORSDOF 5
ENDMDL
