MODEL 1
REMARK VINA RESULT:      -7.1      0.000      0.000
REMARK  Name = 
REMARK  2 active torsions:
REMARK  status: ('A' for Active; 'I' for Inactive)
REMARK    1  A    between atoms: N_1  and  C_2
REMARK    2  A    between atoms: C_8  and  C_9
REMARK                            x       y       z     vdW  Elec       q    Type
REMARK                         _______ _______ _______ _____ _____    ______ ____
ROOT
ATOM      1  C   UNL     1       7.027   4.910  15.298  0.00  0.00    +0.000 C 
ATOM      2  C   UNL     1       7.863   4.935  16.355  0.00  0.00    +0.000 C 
ATOM      3  C   UNL     1       7.406   4.710  17.755  0.00  0.00    +0.000 C 
ATOM      4  O   UNL     1       8.196   4.767  18.688  0.00  0.00    +0.000 OA
ATOM      5  C   UNL     1       6.018   4.421  17.884  0.00  0.00    +0.000 A 
ATOM      6  N   UNL     1       5.295   4.127  19.002  0.00  0.00    +0.000 N 
ATOM      7  C   UNL     1       3.996   3.884  18.612  0.00  0.00    +0.000 A 
ATOM      8  N   UNL     1       3.872   4.039  17.301  0.00  0.00    +0.000 NA
ATOM      9  C   UNL     1       5.128   4.374  16.839  0.00  0.00    +0.000 A 
ATOM     10  C   UNL     1       5.525   4.623  15.463  0.00  0.00    +0.000 C 
ATOM     11  O   UNL     1       4.783   4.578  14.486  0.00  0.00    +0.000 OA
ATOM     12  H   UNL     1       5.626   4.066  19.957  0.00  0.00    +0.000 HD
ENDROOT
BRANCH   7  13
ATOM     13  C   UNL     1       2.966   3.503  19.576  0.00  0.00    +0.000 A 
ATOM     14  C   UNL     1       1.620   3.755  19.341  0.00  0.00    +0.000 A 
ATOM     15  C   UNL     1       0.693   3.360  20.300  0.00  0.00    +0.000 A 
ATOM     16  C   UNL     1       1.137   2.728  21.456  0.00  0.00    +0.000 A 
ATOM     17  C   UNL     1       2.498   2.515  21.607  0.00  0.00    +0.000 A 
ATOM     18  N   UNL     1       3.426   2.885  20.694  0.00  0.00    +0.000 NA
ENDBRANCH   7  13
BRANCH   1  19
ATOM     19  N   UNL     1       7.465   5.126  13.993  0.00  0.00    +0.000 N 
ATOM     20  H   UNL     1       6.770   5.534  13.374  0.00  0.00    +0.000 HD
ATOM     21  H   UNL     1       8.360   5.624  13.978  0.00  0.00    +0.000 HD
ENDBRANCH   1  19
TORSDOF 2
ENDMDL
MODEL 2
REMARK VINA RESULT:      -7.1      2.516      6.314
REMARK  Name = 
REMARK  2 active torsions:
REMARK  status: ('A' for Active; 'I' for Inactive)
REMARK    1  A    between atoms: N_1  and  C_2
REMARK    2  A    between atoms: C_8  and  C_9
REMARK                            x       y       z     vdW  Elec       q    Type
REMARK                         _______ _______ _______ _____ _____    ______ ____
ROOT
ATOM      1  C   UNL     1       2.996   5.198  19.806  0.00  0.00    +0.000 C 
ATOM      2  C   UNL     1       3.289   3.889  19.942  0.00  0.00    +0.000 C 
ATOM      3  C   UNL     1       4.009   3.108  18.898  0.00  0.00    +0.000 C 
ATOM      4  O   UNL     1       4.233   1.914  19.053  0.00  0.00    +0.000 OA
ATOM      5  C   UNL     1       4.404   3.866  17.760  0.00  0.00    +0.000 A 
ATOM      6  N   UNL     1       5.107   3.473  16.659  0.00  0.00    +0.000 N 
ATOM      7  C   UNL     1       5.275   4.576  15.850  0.00  0.00    +0.000 A 
ATOM      8  N   UNL     1       4.684   5.635  16.388  0.00  0.00    +0.000 NA
ATOM      9  C   UNL     1       4.139   5.201  17.578  0.00  0.00    +0.000 A 
ATOM     10  C   UNL     1       3.408   5.992  18.554  0.00  0.00    +0.000 C 
ATOM     11  O   UNL     1       3.155   7.189  18.458  0.00  0.00    +0.000 OA
ATOM     12  H   UNL     1       5.476   2.552  16.454  0.00  0.00    +0.000 HD
ENDROOT
BRANCH   7  13
ATOM     13  C   UNL     1       6.024   4.501  14.598  0.00  0.00    +0.000 A 
ATOM     14  C   UNL     1       5.593   3.713  13.538  0.00  0.00    +0.000 A 
ATOM     15  C   UNL     1       6.354   3.693  12.374  0.00  0.00    +0.000 A 
ATOM     16  C   UNL     1       7.514   4.457  12.305  0.00  0.00    +0.000 A 
ATOM     17  C   UNL     1       7.867   5.215  13.410  0.00  0.00    +0.000 A 
ATOM     18  N   UNL     1       7.151   5.259  14.556  0.00  0.00    +0.000 NA
ENDBRANCH   7  13
BRANCH   1  19
ATOM     19  N   UNL     1       2.318   5.918  20.787  0.00  0.00    +0.000 N 
ATOM     20  H   UNL     1       2.154   5.409  21.650  0.00  0.00    +0.000 HD
ATOM     21  H   UNL     1       2.744   6.837  20.936  0.00  0.00    +0.000 HD
ENDBRANCH   1  19
TORSDOF 2
ENDMDL
MODEL 3
REMARK VINA RESULT:      -7.1      4.140      5.511
REMARK  Name = 
REMARK  2 active torsions:
REMARK  status: ('A' for Active; 'I' for Inactive)
REMARK    1  A    between atoms: N_1  and  C_2
REMARK    2  A    between atoms: C_8  and  C_9
REMARK                            x       y       z     vdW  Elec       q    Type
REMARK                         _______ _______ _______ _____ _____    ______ ____
ROOT
ATOM      1  C   UNL     1       3.698   2.208  19.078  0.00  0.00    +0.000 C 
ATOM      2  C   UNL     1       3.189   2.243  20.325  0.00  0.00    +0.000 C 
ATOM      3  C   UNL     1       2.645   3.485  20.943  0.00  0.00    +0.000 C 
ATOM      4  O   UNL     1       2.214   3.477  22.089  0.00  0.00    +0.000 OA
ATOM      5  C   UNL     1       2.666   4.626  20.093  0.00  0.00    +0.000 A 
ATOM      6  N   UNL     1       2.211   5.890  20.329  0.00  0.00    +0.000 N 
ATOM      7  C   UNL     1       2.419   6.632  19.186  0.00  0.00    +0.000 A 
ATOM      8  N   UNL     1       3.007   5.892  18.257  0.00  0.00    +0.000 NA
ATOM      9  C   UNL     1       3.165   4.640  18.814  0.00  0.00    +0.000 A 
ATOM     10  C   UNL     1       3.738   3.461  18.186  0.00  0.00    +0.000 C 
ATOM     11  O   UNL     1       4.182   3.404  17.043  0.00  0.00    +0.000 OA
ATOM     12  H   UNL     1       1.773   6.246  21.170  0.00  0.00    +0.000 HD
ENDROOT
BRANCH   7  13
ATOM     13  C   UNL     1       2.006   8.031  19.096  0.00  0.00    +0.000 A 
ATOM     14  C   UNL     1       2.261   8.794  17.964  0.00  0.00    +0.000 A 
ATOM     15  C   UNL     1       1.834  10.118  17.945  0.00  0.00    +0.000 A 
ATOM     16  C   UNL     1       1.170  10.634  19.051  0.00  0.00    +0.000 A 
ATOM     17  C   UNL     1       0.956   9.801  20.138  0.00  0.00    +0.000 A 
ATOM     18  N   UNL     1       1.356   8.510  20.189  0.00  0.00    +0.000 NA
ENDBRANCH   7  13
BRANCH   1  19
ATOM     19  N   UNL     1       4.208   1.042  18.511  0.00  0.00    +0.000 N 
ATOM     20  H   UNL     1       4.256   1.049  17.497  0.00  0.00    +0.000 HD
ATOM     21  H   UNL     1       5.090   0.767  18.954  0.00  0.00    +0.000 HD
ENDBRANCH   1  19
TORSDOF 2
ENDMDL
MODEL 4
REMARK VINA RESULT:      -6.9      4.292      5.618
REMARK  Name = 
REMARK  2 active torsions:
REMARK  status: ('A' for Active; 'I' for Inactive)
REMARK    1  A    between atoms: N_1  and  C_2
REMARK    2  A    between atoms: C_8  and  C_9
REMARK                            x       y       z     vdW  Elec       q    Type
REMARK                         _______ _______ _______ _____ _____    ______ ____
ROOT
ATOM      1  C   UNL     1       3.540   2.725  18.821  0.00  0.00    +0.000 C 
ATOM      2  C   UNL     1       3.131   2.436  20.072  0.00  0.00    +0.000 C 
ATOM      3  C   UNL     1       2.567   3.458  20.997  0.00  0.00    +0.000 C 
ATOM      4  O   UNL     1       2.231   3.156  22.134  0.00  0.00    +0.000 OA
ATOM      5  C   UNL     1       2.454   4.762  20.437  0.00  0.00    +0.000 A 
ATOM      6  N   UNL     1       1.946   5.901  20.991  0.00  0.00    +0.000 N 
ATOM      7  C   UNL     1       2.018   6.898  20.042  0.00  0.00    +0.000 A 
ATOM      8  N   UNL     1       2.572   6.437  18.930  0.00  0.00    +0.000 NA
ATOM      9  C   UNL     1       2.846   5.106  19.167  0.00  0.00    +0.000 A 
ATOM     10  C   UNL     1       3.435   4.148  18.245  0.00  0.00    +0.000 C 
ATOM     11  O   UNL     1       3.789   4.389  17.095  0.00  0.00    +0.000 OA
ATOM     12  H   UNL     1       1.557   6.020  21.918  0.00  0.00    +0.000 HD
ENDROOT
BRANCH   7  13
ATOM     13  C   UNL     1       1.518   8.245  20.309  0.00  0.00    +0.000 A 
ATOM     14  C   UNL     1       1.173   8.653  21.591  0.00  0.00    +0.000 A 
ATOM     15  C   UNL     1       0.708   9.952  21.772  0.00  0.00    +0.000 A 
ATOM     16  C   UNL     1       0.604  10.797  20.672  0.00  0.00    +0.000 A 
ATOM     17  C   UNL     1       0.972  10.306  19.429  0.00  0.00    +0.000 A 
ATOM     18  N   UNL     1       1.428   9.051  19.218  0.00  0.00    +0.000 NA
ENDBRANCH   7  13
BRANCH   1  19
ATOM     19  N   UNL     1       4.070   1.762  17.965  0.00  0.00    +0.000 N 
ATOM     20  H   UNL     1       4.770   2.109  17.316  0.00  0.00    +0.000 HD
ATOM     21  H   UNL     1       4.377   0.933  18.482  0.00  0.00    +0.000 HD
ENDBRANCH   1  19
TORSDOF 2
ENDMDL
MODEL 5
REMARK VINA RESULT:      -6.9      2.407      6.443
REMARK  Name = 
REMARK  2 active torsions:
REMARK  status: ('A' for Active; 'I' for Inactive)
REMARK    1  A    between atoms: N_1  and  C_2
REMARK    2  A    between atoms: C_8  and  C_9
REMARK                            x       y       z     vdW  Elec       q    Type
REMARK                         _______ _______ _______ _____ _____    ______ ____
ROOT
ATOM      1  C   UNL     1       3.105   4.246  19.737  0.00  0.00    +0.000 C 
ATOM      2  C   UNL     1       2.911   5.554  19.474  0.00  0.00    +0.000 C 
ATOM      3  C   UNL     1       3.490   6.236  18.284  0.00  0.00    +0.000 C 
ATOM      4  O   UNL     1       3.309   7.432  18.097  0.00  0.00    +0.000 OA
ATOM      5  C   UNL     1       4.233   5.384  17.418  0.00  0.00    +0.000 A 
ATOM      6  N   UNL     1       4.850   5.675  16.237  0.00  0.00    +0.000 N 
ATOM      7  C   UNL     1       5.404   4.509  15.753  0.00  0.00    +0.000 A 
ATOM      8  N   UNL     1       5.181   3.509  16.595  0.00  0.00    +0.000 NA
ATOM      9  C   UNL     1       4.452   4.046  17.635  0.00  0.00    +0.000 A 
ATOM     10  C   UNL     1       3.935   3.349  18.802  0.00  0.00    +0.000 C 
ATOM     11  O   UNL     1       4.081   2.155  19.044  0.00  0.00    +0.000 OA
ATOM     12  H   UNL     1       4.891   6.568  15.761  0.00  0.00    +0.000 HD
ENDROOT
BRANCH   7  13
ATOM     13  C   UNL     1       6.111   4.470  14.475  0.00  0.00    +0.000 A 
ATOM     14  C   UNL     1       5.681   3.664  13.429  0.00  0.00    +0.000 A 
ATOM     15  C   UNL     1       6.400   3.680  12.238  0.00  0.00    +0.000 A 
ATOM     16  C   UNL     1       7.519   4.498  12.131  0.00  0.00    +0.000 A 
ATOM     17  C   UNL     1       7.875   5.272  13.224  0.00  0.00    +0.000 A 
ATOM     18  N   UNL     1       7.199   5.281  14.395  0.00  0.00    +0.000 NA
ENDBRANCH   7  13
BRANCH   1  19
ATOM     19  N   UNL     1       2.562   3.620  20.856  0.00  0.00    +0.000 N 
ATOM     20  H   UNL     1       3.113   2.848  21.220  0.00  0.00    +0.000 HD
ATOM     21  H   UNL     1       2.300   4.301  21.574  0.00  0.00    +0.000 HD
ENDBRANCH   1  19
TORSDOF 2
ENDMDL
MODEL 6
REMARK VINA RESULT:      -6.9      4.881      7.358
REMARK  Name = 
REMARK  2 active torsions:
REMARK  status: ('A' for Active; 'I' for Inactive)
REMARK    1  A    between atoms: N_1  and  C_2
REMARK    2  A    between atoms: C_8  and  C_9
REMARK                            x       y       z     vdW  Elec       q    Type
REMARK                         _______ _______ _______ _____ _____    ______ ____
ROOT
ATOM      1  C   UNL     1       6.101   5.129  17.128  0.00  0.00    +0.000 C 
ATOM      2  C   UNL     1       6.824   4.667  18.167  0.00  0.00    +0.000 C 
ATOM      3  C   UNL     1       7.796   5.510  18.917  0.00  0.00    +0.000 C 
ATOM      4  O   UNL     1       8.450   5.042  19.839  0.00  0.00    +0.000 OA
ATOM      5  C   UNL     1       7.869   6.862  18.476  0.00  0.00    +0.000 A 
ATOM      6  N   UNL     1       8.614   7.894  18.966  0.00  0.00    +0.000 N 
ATOM      7  C   UNL     1       8.311   9.018  18.229  0.00  0.00    +0.000 A 
ATOM      8  N   UNL     1       7.429   8.726  17.284  0.00  0.00    +0.000 NA
ATOM      9  C   UNL     1       7.148   7.384  17.431  0.00  0.00    +0.000 A 
ATOM     10  C   UNL     1       6.216   6.587  16.649  0.00  0.00    +0.000 C 
ATOM     11  O   UNL     1       5.531   6.998  15.717  0.00  0.00    +0.000 OA
ATOM     12  H   UNL     1       9.261   7.877  19.744  0.00  0.00    +0.000 HD
ENDROOT
BRANCH   7  13
ATOM     13  C   UNL     1       8.918  10.315  18.526  0.00  0.00    +0.000 A 
ATOM     14  C   UNL     1       9.752  10.493  19.622  0.00  0.00    +0.000 A 
ATOM     15  C   UNL     1      10.298  11.754  19.842  0.00  0.00    +0.000 A 
ATOM     16  C   UNL     1       9.997  12.789  18.964  0.00  0.00    +0.000 A 
ATOM     17  C   UNL     1       9.156  12.520  17.895  0.00  0.00    +0.000 A 
ATOM     18  N   UNL     1       8.609  11.307  17.652  0.00  0.00    +0.000 NA
ENDBRANCH   7  13
BRANCH   1  19
ATOM     19  N   UNL     1       5.198   4.330  16.431  0.00  0.00    +0.000 N 
ATOM     20  H   UNL     1       5.586   3.463  16.073  0.00  0.00    +0.000 HD
ATOM     21  H   UNL     1       4.332   4.195  16.962  0.00  0.00    +0.000 HD
ENDBRANCH   1  19
TORSDOF 2
ENDMDL
MODEL 7
REMARK VINA RESULT:      -6.9      2.144      6.245
REMARK  Name = 
REMARK  2 active torsions:
REMARK  status: ('A' for Active; 'I' for Inactive)
REMARK    1  A    between atoms: N_1  and  C_2
REMARK    2  A    between atoms: C_8  and  C_9
REMARK                            x       y       z     vdW  Elec       q    Type
REMARK                         _______ _______ _______ _____ _____    ______ ____
ROOT
ATOM      1  C   UNL     1       2.942   4.315  19.405  0.00  0.00    +0.000 C 
ATOM      2  C   UNL     1       4.103   4.721  19.955  0.00  0.00    +0.000 C 
ATOM      3  C   UNL     1       5.359   4.882  19.170  0.00  0.00    +0.000 C 
ATOM      4  O   UNL     1       6.398   5.230  19.715  0.00  0.00    +0.000 OA
ATOM      5  C   UNL     1       5.224   4.614  17.779  0.00  0.00    +0.000 A 
ATOM      6  N   UNL     1       6.154   4.707  16.785  0.00  0.00    +0.000 N 
ATOM      7  C   UNL     1       5.534   4.381  15.598  0.00  0.00    +0.000 A 
ATOM      8  N   UNL     1       4.265   4.065  15.812  0.00  0.00    +0.000 NA
ATOM      9  C   UNL     1       4.063   4.208  17.169  0.00  0.00    +0.000 A 
ATOM     10  C   UNL     1       2.825   4.003  17.903  0.00  0.00    +0.000 C 
ATOM     11  O   UNL     1       1.753   3.658  17.415  0.00  0.00    +0.000 OA
ATOM     12  H   UNL     1       7.124   4.985  16.866  0.00  0.00    +0.000 HD
ENDROOT
BRANCH   7  13
ATOM     13  C   UNL     1       6.252   4.418  14.325  0.00  0.00    +0.000 A 
ATOM     14  C   UNL     1       5.862   3.633  13.247  0.00  0.00    +0.000 A 
ATOM     15  C   UNL     1       6.588   3.723  12.063  0.00  0.00    +0.000 A 
ATOM     16  C   UNL     1       7.673   4.590  11.995  0.00  0.00    +0.000 A 
ATOM     17  C   UNL     1       7.989   5.337  13.119  0.00  0.00    +0.000 A 
ATOM     18  N   UNL     1       7.305   5.275  14.283  0.00  0.00    +0.000 NA
ENDBRANCH   7  13
BRANCH   1  19
ATOM     19  N   UNL     1       1.774   4.163  20.150  0.00  0.00    +0.000 N 
ATOM     20  H   UNL     1       0.943   3.967  19.600  0.00  0.00    +0.000 HD
ATOM     21  H   UNL     1       1.909   3.508  20.925  0.00  0.00    +0.000 HD
ENDBRANCH   1  19
TORSDOF 2
ENDMDL
MODEL 8
REMARK VINA RESULT:      -6.8      4.901      7.254
REMARK  Name = 
REMARK  2 active torsions:
REMARK  status: ('A' for Active; 'I' for Inactive)
REMARK    1  A    between atoms: N_1  and  C_2
REMARK    2  A    between atoms: C_8  and  C_9
REMARK                            x       y       z     vdW  Elec       q    Type
REMARK                         _______ _______ _______ _____ _____    ______ ____
ROOT
ATOM      1  C   UNL     1       6.113   5.078  17.146  0.00  0.00    +0.000 C 
ATOM      2  C   UNL     1       6.832   4.639  18.198  0.00  0.00    +0.000 C 
ATOM      3  C   UNL     1       7.794   5.501  18.939  0.00  0.00    +0.000 C 
ATOM      4  O   UNL     1       8.445   5.054  19.874  0.00  0.00    +0.000 OA
ATOM      5  C   UNL     1       7.862   6.845  18.474  0.00  0.00    +0.000 A 
ATOM      6  N   UNL     1       8.598   7.890  18.950  0.00  0.00    +0.000 N 
ATOM      7  C   UNL     1       8.294   8.999  18.190  0.00  0.00    +0.000 A 
ATOM      8  N   UNL     1       7.420   8.685  17.245  0.00  0.00    +0.000 NA
ATOM      9  C   UNL     1       7.145   7.344  17.414  0.00  0.00    +0.000 A 
ATOM     10  C   UNL     1       6.223   6.527  16.641  0.00  0.00    +0.000 C 
ATOM     11  O   UNL     1       5.542   6.918  15.698  0.00  0.00    +0.000 OA
ATOM     12  H   UNL     1       9.241   7.891  19.732  0.00  0.00    +0.000 HD
ENDROOT
BRANCH   7  13
ATOM     13  C   UNL     1       8.892  10.304  18.468  0.00  0.00    +0.000 A 
ATOM     14  C   UNL     1       8.640  11.406  17.660  0.00  0.00    +0.000 A 
ATOM     15  C   UNL     1       9.239  12.619  17.987  0.00  0.00    +0.000 A 
ATOM     16  C   UNL     1      10.064  12.691  19.103  0.00  0.00    +0.000 A 
ATOM     17  C   UNL     1      10.257  11.542  19.853  0.00  0.00    +0.000 A 
ATOM     18  N   UNL     1       9.690  10.348  19.565  0.00  0.00    +0.000 NA
ENDBRANCH   7  13
BRANCH   1  19
ATOM     19  N   UNL     1       5.219   4.261  16.458  0.00  0.00    +0.000 N 
ATOM     20  H   UNL     1       5.642   3.457  16.003  0.00  0.00    +0.000 HD
ATOM     21  H   UNL     1       4.413   4.017  17.040  0.00  0.00    +0.000 HD
ENDBRANCH   1  19
TORSDOF 2
ENDMDL
MODEL 9
REMARK VINA RESULT:      -6.8      0.641      1.131
REMARK  Name = 
REMARK  2 active torsions:
REMARK  status: ('A' for Active; 'I' for Inactive)
REMARK    1  A    between atoms: N_1  and  C_2
REMARK    2  A    between atoms: C_8  and  C_9
REMARK                            x       y       z     vdW  Elec       q    Type
REMARK                         _______ _______ _______ _____ _____    ______ ____
ROOT
ATOM      1  C   UNL     1       7.020   4.944  15.317  0.00  0.00    +0.000 C 
ATOM      2  C   UNL     1       7.861   4.968  16.370  0.00  0.00    +0.000 C 
ATOM      3  C   UNL     1       7.414   4.724  17.770  0.00  0.00    +0.000 C 
ATOM      4  O   UNL     1       8.209   4.779  18.699  0.00  0.00    +0.000 OA
ATOM      5  C   UNL     1       6.030   4.420  17.904  0.00  0.00    +0.000 A 
ATOM      6  N   UNL     1       5.316   4.107  19.023  0.00  0.00    +0.000 N 
ATOM      7  C   UNL     1       4.017   3.855  18.637  0.00  0.00    +0.000 A 
ATOM      8  N   UNL     1       3.885   4.022  17.329  0.00  0.00    +0.000 NA
ATOM      9  C   UNL     1       5.135   4.374  16.864  0.00  0.00    +0.000 A 
ATOM     10  C   UNL     1       5.521   4.641  15.488  0.00  0.00    +0.000 C 
ATOM     11  O   UNL     1       4.774   4.599  14.515  0.00  0.00    +0.000 OA
ATOM     12  H   UNL     1       5.653   4.039  19.975  0.00  0.00    +0.000 HD
ENDROOT
BRANCH   7  13
ATOM     13  C   UNL     1       2.996   3.454  19.603  0.00  0.00    +0.000 A 
ATOM     14  C   UNL     1       3.330   2.828  20.797  0.00  0.00    +0.000 A 
ATOM     15  C   UNL     1       2.306   2.477  21.672  0.00  0.00    +0.000 A 
ATOM     16  C   UNL     1       0.990   2.762  21.327  0.00  0.00    +0.000 A 
ATOM     17  C   UNL     1       0.749   3.391  20.116  0.00  0.00    +0.000 A 
ATOM     18  N   UNL     1       1.719   3.746  19.244  0.00  0.00    +0.000 NA
ENDBRANCH   7  13
BRANCH   1  19
ATOM     19  N   UNL     1       7.448   5.178  14.013  0.00  0.00    +0.000 N 
ATOM     20  H   UNL     1       7.977   4.417  13.597  0.00  0.00    +0.000 HD
ATOM     21  H   UNL     1       6.678   5.504  13.420  0.00  0.00    +0.000 HD
ENDBRANCH   1  19
TORSDOF 2
ENDMDL
