MODEL 1
REMARK VINA RESULT:      -7.9      0.000      0.000
REMARK  Name = 
REMARK  6 active torsions:
REMARK  status: ('A' for Active; 'I' for Inactive)
REMARK    1  A    between atoms: C_1  and  C_2
REMARK    2  A    between atoms: C_4  and  C_5
REMARK    3  A    between atoms: C_8  and  S_9
REMARK    4  A    between atoms: S_9  and  C_10
REMARK    5  A    between atoms: C_10  and  C_11
REMARK    6  A    between atoms: C_14  and  C_15
REMARK                            x       y       z     vdW  Elec       q    Type
REMARK                         _______ _______ _______ _____ _____    ______ ____
ROOT
ATOM      1  C   UNL     1       1.707   2.303  18.961  0.00  0.00    +0.000 C 
ENDROOT
BRANCH   1   2
ATOM      2  C   UNL     1       1.876   3.500  19.846  0.00  0.00    +0.000 A 
ATOM      3  N   UNL     1       2.282   3.552  21.100  0.00  0.00    +0.000 NA
ATOM      4  N   UNL     1       2.256   4.884  21.469  0.00  0.00    +0.000 NA
ATOM      5  C   UNL     1       1.796   5.559  20.438  0.00  0.00    +0.000 A 
ATOM      6  O   UNL     1       1.567   4.748  19.350  0.00  0.00    +0.000 OA
BRANCH   5   7
ATOM      7  C   UNL     1       1.567   6.994  20.342  0.00  0.00    +0.000 A 
ATOM      8  C   UNL     1       0.717   7.594  21.300  0.00  0.00    +0.000 A 
ATOM      9  C   UNL     1       0.370   8.948  21.237  0.00  0.00    +0.000 A 
ATOM     10  C   UNL     1       0.862   9.733  20.200  0.00  0.00    +0.000 A 
ATOM     11  C   UNL     1       1.700   9.165  19.241  0.00  0.00    +0.000 A 
ATOM     12  C   UNL     1       2.053   7.809  19.308  0.00  0.00    +0.000 A 
ATOM     13 BR   UNL     1       3.133   7.148  17.887  0.00  0.00    +0.000 Br
ENDBRANCH   5   7
ENDBRANCH   1   2
BRANCH   1  14
ATOM     14  S   UNL     1       3.329   1.574  18.619  0.00  0.00    +0.000 S 
BRANCH  14  22
ATOM     15  C   UNL     1       8.218   7.258  18.581  0.00  0.00    +0.000 C 
ATOM     16  C   UNL     1       7.224   6.201  18.161  0.00  0.00    +0.000 A 
ATOM     17  C   UNL     1       6.893   6.148  16.699  0.00  0.00    +0.000 A 
ATOM     18  C   UNL     1       6.010   5.210  16.324  0.00  0.00    +0.000 A 
ATOM     19  C   UNL     1       5.575   5.027  14.901  0.00  0.00    +0.000 C 
ATOM     20  N   UNL     1       5.469   4.361  17.297  0.00  0.00    +0.000 N 
ATOM     21  N   UNL     1       4.578   3.363  17.147  0.00  0.00    +0.000 NA
ATOM     22  C   UNL     1       4.431   2.903  18.388  0.00  0.00    +0.000 A 
ATOM     23  N   UNL     1       5.170   3.547  19.337  0.00  0.00    +0.000 NA
ATOM     24  C   UNL     1       5.827   4.467  18.651  0.00  0.00    +0.000 A 
ATOM     25  N   UNL     1       6.724   5.413  19.073  0.00  0.00    +0.000 NA
ENDBRANCH  14  22
ENDBRANCH   1  14
TORSDOF 4
ENDMDL
MODEL 2
REMARK VINA RESULT:      -7.4      5.074      8.419
REMARK  Name = 
REMARK  6 active torsions:
REMARK  status: ('A' for Active; 'I' for Inactive)
REMARK    1  A    between atoms: C_1  and  C_2
REMARK    2  A    between atoms: C_4  and  C_5
REMARK    3  A    between atoms: C_8  and  S_9
REMARK    4  A    between atoms: S_9  and  C_10
REMARK    5  A    between atoms: C_10  and  C_11
REMARK    6  A    between atoms: C_14  and  C_15
REMARK                            x       y       z     vdW  Elec       q    Type
REMARK                         _______ _______ _______ _____ _____    ______ ____
ROOT
ATOM      1  C   UNL     1       1.860   9.471  17.911  0.00  0.00    +0.000 C 
ENDROOT
BRANCH   1   2
ATOM      2  C   UNL     1       2.512   8.132  18.079  0.00  0.00    +0.000 A 
ATOM      3  N   UNL     1       3.614   7.671  17.520  0.00  0.00    +0.000 NA
ATOM      4  N   UNL     1       3.785   6.381  17.987  0.00  0.00    +0.000 NA
ATOM      5  C   UNL     1       2.759   6.116  18.766  0.00  0.00    +0.000 A 
ATOM      6  O   UNL     1       1.922   7.199  18.904  0.00  0.00    +0.000 OA
BRANCH   5   7
ATOM      7  C   UNL     1       2.477   4.877  19.478  0.00  0.00    +0.000 A 
ATOM      8  C   UNL     1       2.263   4.950  20.874  0.00  0.00    +0.000 A 
ATOM      9  C   UNL     1       2.071   3.805  21.654  0.00  0.00    +0.000 A 
ATOM     10  C   UNL     1       2.098   2.552  21.050  0.00  0.00    +0.000 A 
ATOM     11  C   UNL     1       2.308   2.453  19.675  0.00  0.00    +0.000 A 
ATOM     12  C   UNL     1       2.494   3.602  18.892  0.00  0.00    +0.000 A 
ATOM     13 BR   UNL     1       2.857   3.313  17.045  0.00  0.00    +0.000 Br
ENDBRANCH   5   7
ENDBRANCH   1   2
BRANCH   1  14
ATOM     14  S   UNL     1       0.861   9.841  19.376  0.00  0.00    +0.000 S 
BRANCH  14  22
ATOM     15  C   UNL     1      -5.931  12.558  17.734  0.00  0.00    +0.000 C 
ATOM     16  C   UNL     1      -4.600  11.847  17.661  0.00  0.00    +0.000 A 
ATOM     17  C   UNL     1      -4.304  11.128  16.378  0.00  0.00    +0.000 A 
ATOM     18  C   UNL     1      -3.122  10.497  16.311  0.00  0.00    +0.000 A 
ATOM     19  C   UNL     1      -2.676   9.734  15.101  0.00  0.00    +0.000 C 
ATOM     20  N   UNL     1      -2.262  10.551  17.415  0.00  0.00    +0.000 N 
ATOM     21  N   UNL     1      -1.043   9.998  17.565  0.00  0.00    +0.000 NA
ATOM     22  C   UNL     1      -0.693  10.372  18.794  0.00  0.00    +0.000 A 
ATOM     23  N   UNL     1      -1.613  11.132  19.455  0.00  0.00    +0.000 NA
ATOM     24  C   UNL     1      -2.604  11.247  18.586  0.00  0.00    +0.000 A 
ATOM     25  N   UNL     1      -3.803  11.903  18.692  0.00  0.00    +0.000 NA
ENDBRANCH  14  22
ENDBRANCH   1  14
TORSDOF 4
ENDMDL
MODEL 3
REMARK VINA RESULT:      -7.3      1.186      1.649
REMARK  Name = 
REMARK  6 active torsions:
REMARK  status: ('A' for Active; 'I' for Inactive)
REMARK    1  A    between atoms: C_1  and  C_2
REMARK    2  A    between atoms: C_4  and  C_5
REMARK    3  A    between atoms: C_8  and  S_9
REMARK    4  A    between atoms: S_9  and  C_10
REMARK    5  A    between atoms: C_10  and  C_11
REMARK    6  A    between atoms: C_14  and  C_15
REMARK                            x       y       z     vdW  Elec       q    Type
REMARK                         _______ _______ _______ _____ _____    ______ ____
ROOT
ATOM      1  C   UNL     1       1.609   2.475  19.227  0.00  0.00    +0.000 C 
ENDROOT
BRANCH   1   2
ATOM      2  C   UNL     1       1.847   3.858  19.751  0.00  0.00    +0.000 A 
ATOM      3  N   UNL     1       2.165   4.237  20.975  0.00  0.00    +0.000 NA
ATOM      4  N   UNL     1       2.262   5.616  20.949  0.00  0.00    +0.000 NA
ATOM      5  C   UNL     1       1.956   5.999  19.729  0.00  0.00    +0.000 A 
ATOM      6  O   UNL     1       1.717   4.931  18.896  0.00  0.00    +0.000 OA
BRANCH   5   7
ATOM      7  C   UNL     1       1.897   7.359  19.210  0.00  0.00    +0.000 A 
ATOM      8  C   UNL     1       2.601   7.644  18.017  0.00  0.00    +0.000 A 
ATOM      9  C   UNL     1       2.673   8.938  17.491  0.00  0.00    +0.000 A 
ATOM     10  C   UNL     1       2.044   9.984  18.158  0.00  0.00    +0.000 A 
ATOM     11  C   UNL     1       1.345   9.730  19.337  0.00  0.00    +0.000 A 
ATOM     12  C   UNL     1       1.267   8.431  19.861  0.00  0.00    +0.000 A 
ATOM     13 BR   UNL     1       0.354   8.245  21.521  0.00  0.00    +0.000 Br
ENDBRANCH   5   7
ENDBRANCH   1   2
BRANCH   1  14
ATOM     14  S   UNL     1       3.197   1.708  18.811  0.00  0.00    +0.000 S 
BRANCH  14  22
ATOM     15  C   UNL     1       8.272   7.224  18.655  0.00  0.00    +0.000 C 
ATOM     16  C   UNL     1       7.209   6.224  18.266  0.00  0.00    +0.000 A 
ATOM     17  C   UNL     1       6.763   6.257  16.834  0.00  0.00    +0.000 A 
ATOM     18  C   UNL     1       5.819   5.369  16.486  0.00  0.00    +0.000 A 
ATOM     19  C   UNL     1       5.267   5.273  15.096  0.00  0.00    +0.000 C 
ATOM     20  N   UNL     1       5.326   4.489  17.458  0.00  0.00    +0.000 N 
ATOM     21  N   UNL     1       4.389   3.530  17.332  0.00  0.00    +0.000 NA
ATOM     22  C   UNL     1       4.324   3.011  18.557  0.00  0.00    +0.000 A 
ATOM     23  N   UNL     1       5.159   3.580  19.473  0.00  0.00    +0.000 NA
ATOM     24  C   UNL     1       5.793   4.513  18.782  0.00  0.00    +0.000 A 
ATOM     25  N   UNL     1       6.755   5.406  19.176  0.00  0.00    +0.000 NA
ENDBRANCH  14  22
ENDBRANCH   1  14
TORSDOF 4
ENDMDL
MODEL 4
REMARK VINA RESULT:      -7.3      5.008      8.536
REMARK  Name = 
REMARK  6 active torsions:
REMARK  status: ('A' for Active; 'I' for Inactive)
REMARK    1  A    between atoms: C_1  and  C_2
REMARK    2  A    between atoms: C_4  and  C_5
REMARK    3  A    between atoms: C_8  and  S_9
REMARK    4  A    between atoms: S_9  and  C_10
REMARK    5  A    between atoms: C_10  and  C_11
REMARK    6  A    between atoms: C_14  and  C_15
REMARK                            x       y       z     vdW  Elec       q    Type
REMARK                         _______ _______ _______ _____ _____    ______ ____
ROOT
ATOM      1  C   UNL     1       1.936   9.442  17.866  0.00  0.00    +0.000 C 
ENDROOT
BRANCH   1   2
ATOM      2  C   UNL     1       2.016   8.164  18.645  0.00  0.00    +0.000 A 
ATOM      3  N   UNL     1       1.872   7.975  19.943  0.00  0.00    +0.000 NA
ATOM      4  N   UNL     1       2.048   6.622  20.167  0.00  0.00    +0.000 NA
ATOM      5  C   UNL     1       2.332   6.075  19.006  0.00  0.00    +0.000 A 
ATOM      6  O   UNL     1       2.293   6.990  17.979  0.00  0.00    +0.000 OA
BRANCH   5   7
ATOM      7  C   UNL     1       2.621   4.675  18.727  0.00  0.00    +0.000 A 
ATOM      8  C   UNL     1       1.527   3.801  18.522  0.00  0.00    +0.000 A 
ATOM      9  C   UNL     1       1.703   2.426  18.333  0.00  0.00    +0.000 A 
ATOM     10  C   UNL     1       2.987   1.891  18.356  0.00  0.00    +0.000 A 
ATOM     11  C   UNL     1       4.081   2.730  18.558  0.00  0.00    +0.000 A 
ATOM     12  C   UNL     1       3.906   4.110  18.740  0.00  0.00    +0.000 A 
ATOM     13 BR   UNL     1       5.479   5.121  19.092  0.00  0.00    +0.000 Br
ENDBRANCH   5   7
ENDBRANCH   1   2
BRANCH   1  14
ATOM     14  S   UNL     1       1.431  10.787  18.969  0.00  0.00    +0.000 S 
BRANCH  14  22
ATOM     15  C   UNL     1      -5.917  12.259  18.732  0.00  0.00    +0.000 C 
ATOM     16  C   UNL     1      -4.528  11.764  18.401  0.00  0.00    +0.000 A 
ATOM     17  C   UNL     1      -4.386  11.002  17.117  0.00  0.00    +0.000 A 
ATOM     18  C   UNL     1      -3.154  10.563  16.821  0.00  0.00    +0.000 A 
ATOM     19  C   UNL     1      -2.845   9.786  15.576  0.00  0.00    +0.000 C 
ATOM     20  N   UNL     1      -2.105  10.838  17.707  0.00  0.00    +0.000 N 
ATOM     21  N   UNL     1      -0.806  10.498  17.612  0.00  0.00    +0.000 NA
ATOM     22  C   UNL     1      -0.277  11.018  18.718  0.00  0.00    +0.000 A 
ATOM     23  N   UNL     1      -1.157  11.673  19.530  0.00  0.00    +0.000 NA
ATOM     24  C   UNL     1      -2.311  11.561  18.894  0.00  0.00    +0.000 A 
ATOM     25  N   UNL     1      -3.556  12.026  19.231  0.00  0.00    +0.000 NA
ENDBRANCH  14  22
ENDBRANCH   1  14
TORSDOF 4
ENDMDL
MODEL 5
REMARK VINA RESULT:      -7.2      5.558      9.073
REMARK  Name = 
REMARK  6 active torsions:
REMARK  status: ('A' for Active; 'I' for Inactive)
REMARK    1  A    between atoms: C_1  and  C_2
REMARK    2  A    between atoms: C_4  and  C_5
REMARK    3  A    between atoms: C_8  and  S_9
REMARK    4  A    between atoms: S_9  and  C_10
REMARK    5  A    between atoms: C_10  and  C_11
REMARK    6  A    between atoms: C_14  and  C_15
REMARK                            x       y       z     vdW  Elec       q    Type
REMARK                         _______ _______ _______ _____ _____    ______ ____
ROOT
ATOM      1  C   UNL     1       0.751   9.360  20.185  0.00  0.00    +0.000 C 
ENDROOT
BRANCH   1   2
ATOM      2  C   UNL     1       1.594   8.880  19.042  0.00  0.00    +0.000 A 
ATOM      3  N   UNL     1       1.717   9.392  17.832  0.00  0.00    +0.000 NA
ATOM      4  N   UNL     1       2.603   8.579  17.148  0.00  0.00    +0.000 NA
ATOM      5  C   UNL     1       2.932   7.600  17.961  0.00  0.00    +0.000 A 
ATOM      6  O   UNL     1       2.357   7.745  19.203  0.00  0.00    +0.000 OA
BRANCH   5   7
ATOM      7  C   UNL     1       3.823   6.480  17.694  0.00  0.00    +0.000 A 
ATOM      8  C   UNL     1       5.171   6.768  17.377  0.00  0.00    +0.000 A 
ATOM      9  C   UNL     1       6.079   5.764  17.021  0.00  0.00    +0.000 A 
ATOM     10  C   UNL     1       5.650   4.442  16.966  0.00  0.00    +0.000 A 
ATOM     11  C   UNL     1       4.326   4.132  17.272  0.00  0.00    +0.000 A 
ATOM     12  C   UNL     1       3.418   5.138  17.635  0.00  0.00    +0.000 A 
ATOM     13 BR   UNL     1       1.623   4.582  17.942  0.00  0.00    +0.000 Br
ENDBRANCH   5   7
ENDBRANCH   1   2
BRANCH   1  14
ATOM     14  S   UNL     1       0.477  11.143  20.022  0.00  0.00    +0.000 S 
BRANCH  14  22
ATOM     15  C   UNL     1      -6.622  12.377  17.949  0.00  0.00    +0.000 C 
ATOM     16  C   UNL     1      -5.168  11.966  17.961  0.00  0.00    +0.000 A 
ATOM     17  C   UNL     1      -4.647  11.342  16.701  0.00  0.00    +0.000 A 
ATOM     18  C   UNL     1      -3.356  10.977  16.710  0.00  0.00    +0.000 A 
ATOM     19  C   UNL     1      -2.683  10.340  15.532  0.00  0.00    +0.000 C 
ATOM     20  N   UNL     1      -2.597  11.199  17.866  0.00  0.00    +0.000 N 
ATOM     21  N   UNL     1      -1.301  10.914  18.094  0.00  0.00    +0.000 NA
ATOM     22  C   UNL     1      -1.115  11.340  19.342  0.00  0.00    +0.000 A 
ATOM     23  N   UNL     1      -2.215  11.879  19.942  0.00  0.00    +0.000 NA
ATOM     24  C   UNL     1      -3.152  11.792  19.012  0.00  0.00    +0.000 A 
ATOM     25  N   UNL     1      -4.467  12.177  19.041  0.00  0.00    +0.000 NA
ENDBRANCH  14  22
ENDBRANCH   1  14
TORSDOF 4
ENDMDL
MODEL 6
REMARK VINA RESULT:      -7.2      5.558      9.166
REMARK  Name = 
REMARK  6 active torsions:
REMARK  status: ('A' for Active; 'I' for Inactive)
REMARK    1  A    between atoms: C_1  and  C_2
REMARK    2  A    between atoms: C_4  and  C_5
REMARK    3  A    between atoms: C_8  and  S_9
REMARK    4  A    between atoms: S_9  and  C_10
REMARK    5  A    between atoms: C_10  and  C_11
REMARK    6  A    between atoms: C_14  and  C_15
REMARK                            x       y       z     vdW  Elec       q    Type
REMARK                         _______ _______ _______ _____ _____    ______ ____
ROOT
ATOM      1  C   UNL     1       1.225  10.211  18.316  0.00  0.00    +0.000 C 
ENDROOT
BRANCH   1   2
ATOM      2  C   UNL     1       1.802   8.873  18.669  0.00  0.00    +0.000 A 
ATOM      3  N   UNL     1       1.757   8.230  19.821  0.00  0.00    +0.000 NA
ATOM      4  N   UNL     1       2.445   7.045  19.638  0.00  0.00    +0.000 NA
ATOM      5  C   UNL     1       2.905   7.054  18.406  0.00  0.00    +0.000 A 
ATOM      6  O   UNL     1       2.503   8.172  17.713  0.00  0.00    +0.000 OA
BRANCH   5   7
ATOM      7  C   UNL     1       3.710   6.035  17.747  0.00  0.00    +0.000 A 
ATOM      8  C   UNL     1       4.942   6.430  17.176  0.00  0.00    +0.000 A 
ATOM      9  C   UNL     1       5.740   5.540  16.450  0.00  0.00    +0.000 A 
ATOM     10  C   UNL     1       5.314   4.229  16.269  0.00  0.00    +0.000 A 
ATOM     11  C   UNL     1       4.102   3.814  16.820  0.00  0.00    +0.000 A 
ATOM     12  C   UNL     1       3.305   4.704  17.555  0.00  0.00    +0.000 A 
ATOM     13 BR   UNL     1       1.637   4.028  18.175  0.00  0.00    +0.000 Br
ENDBRANCH   5   7
ENDBRANCH   1   2
BRANCH   1  14
ATOM     14  S   UNL     1       0.309  10.864  19.735  0.00  0.00    +0.000 S 
BRANCH  14  22
ATOM     15  C   UNL     1      -6.783  12.733  18.177  0.00  0.00    +0.000 C 
ATOM     16  C   UNL     1      -5.365  12.219  18.076  0.00  0.00    +0.000 A 
ATOM     17  C   UNL     1      -4.964  11.642  16.751  0.00  0.00    +0.000 A 
ATOM     18  C   UNL     1      -3.706  11.186  16.659  0.00  0.00    +0.000 A 
ATOM     19  C   UNL     1      -3.151  10.580  15.406  0.00  0.00    +0.000 C 
ATOM     20  N   UNL     1      -2.869  11.278  17.778  0.00  0.00    +0.000 N 
ATOM     21  N   UNL     1      -1.587  10.887  17.909  0.00  0.00    +0.000 NA
ATOM     22  C   UNL     1      -1.300  11.217  19.167  0.00  0.00    +0.000 A 
ATOM     23  N   UNL     1      -2.321  11.793  19.864  0.00  0.00    +0.000 NA
ATOM     24  C   UNL     1      -3.312  11.834  18.989  0.00  0.00    +0.000 A 
ATOM     25  N   UNL     1      -4.591  12.309  19.122  0.00  0.00    +0.000 NA
ENDBRANCH  14  22
ENDBRANCH   1  14
TORSDOF 4
ENDMDL
MODEL 7
REMARK VINA RESULT:      -7.1      2.991      7.162
REMARK  Name = 
REMARK  6 active torsions:
REMARK  status: ('A' for Active; 'I' for Inactive)
REMARK    1  A    between atoms: C_1  and  C_2
REMARK    2  A    between atoms: C_4  and  C_5
REMARK    3  A    between atoms: C_8  and  S_9
REMARK    4  A    between atoms: S_9  and  C_10
REMARK    5  A    between atoms: C_10  and  C_11
REMARK    6  A    between atoms: C_14  and  C_15
REMARK                            x       y       z     vdW  Elec       q    Type
REMARK                         _______ _______ _______ _____ _____    ______ ____
ROOT
ATOM      1  C   UNL     1       7.680   6.931  18.023  0.00  0.00    +0.000 C 
ENDROOT
BRANCH   1   2
ATOM      2  C   UNL     1       6.814   6.631  16.837  0.00  0.00    +0.000 A 
ATOM      3  N   UNL     1       5.622   7.112  16.540  0.00  0.00    +0.000 NA
ATOM      4  N   UNL     1       5.242   6.518  15.351  0.00  0.00    +0.000 NA
ATOM      5  C   UNL     1       6.199   5.680  15.017  0.00  0.00    +0.000 A 
ATOM      6  O   UNL     1       7.255   5.724  15.898  0.00  0.00    +0.000 OA
BRANCH   5   7
ATOM      7  C   UNL     1       6.252   4.805  13.855  0.00  0.00    +0.000 A 
ATOM      8  C   UNL     1       5.237   3.830  13.713  0.00  0.00    +0.000 A 
ATOM      9  C   UNL     1       5.253   2.890  12.677  0.00  0.00    +0.000 A 
ATOM     10  C   UNL     1       6.299   2.900  11.760  0.00  0.00    +0.000 A 
ATOM     11  C   UNL     1       7.313   3.850  11.878  0.00  0.00    +0.000 A 
ATOM     12  C   UNL     1       7.293   4.796  12.913  0.00  0.00    +0.000 A 
ATOM     13 BR   UNL     1       8.784   5.976  13.005  0.00  0.00    +0.000 Br
ENDBRANCH   5   7
ENDBRANCH   1   2
BRANCH   1  14
ATOM     14  S   UNL     1       7.598   5.549  19.192  0.00  0.00    +0.000 S 
BRANCH  14  22
ATOM     15  C   UNL     1       0.894   2.225  18.727  0.00  0.00    +0.000 C 
ATOM     16  C   UNL     1       1.999   3.229  18.958  0.00  0.00    +0.000 A 
ATOM     17  C   UNL     1       1.573   4.575  19.464  0.00  0.00    +0.000 A 
ATOM     18  C   UNL     1       2.554   5.468  19.671  0.00  0.00    +0.000 A 
ATOM     19  C   UNL     1       2.296   6.856  20.175  0.00  0.00    +0.000 C 
ATOM     20  N   UNL     1       3.877   5.094  19.409  0.00  0.00    +0.000 N 
ATOM     21  N   UNL     1       5.004   5.820  19.542  0.00  0.00    +0.000 NA
ATOM     22  C   UNL     1       5.955   4.971  19.160  0.00  0.00    +0.000 A 
ATOM     23  N   UNL     1       5.515   3.737  18.780  0.00  0.00    +0.000 NA
ATOM     24  C   UNL     1       4.203   3.812  18.937  0.00  0.00    +0.000 A 
ATOM     25  N   UNL     1       3.230   2.873  18.713  0.00  0.00    +0.000 NA
ENDBRANCH  14  22
ENDBRANCH   1  14
TORSDOF 4
ENDMDL
MODEL 8
REMARK VINA RESULT:      -7.0      5.061      7.648
REMARK  Name = 
REMARK  6 active torsions:
REMARK  status: ('A' for Active; 'I' for Inactive)
REMARK    1  A    between atoms: C_1  and  C_2
REMARK    2  A    between atoms: C_4  and  C_5
REMARK    3  A    between atoms: C_8  and  S_9
REMARK    4  A    between atoms: S_9  and  C_10
REMARK    5  A    between atoms: C_10  and  C_11
REMARK    6  A    between atoms: C_14  and  C_15
REMARK                            x       y       z     vdW  Elec       q    Type
REMARK                         _______ _______ _______ _____ _____    ______ ____
ROOT
ATOM      1  C   UNL     1       7.595   8.142  17.513  0.00  0.00    +0.000 C 
ENDROOT
BRANCH   1   2
ATOM      2  C   UNL     1       8.335   9.268  18.171  0.00  0.00    +0.000 A 
ATOM      3  N   UNL     1       9.076   9.246  19.263  0.00  0.00    +0.000 NA
ATOM      4  N   UNL     1       9.529  10.537  19.458  0.00  0.00    +0.000 NA
ATOM      5  C   UNL     1       9.005  11.276  18.506  0.00  0.00    +0.000 A 
ATOM      6  O   UNL     1       8.261  10.529  17.622  0.00  0.00    +0.000 OA
BRANCH   5   7
ATOM      7  C   UNL     1       9.169  12.708  18.296  0.00  0.00    +0.000 A 
ATOM      8  C   UNL     1       8.004  13.509  18.256  0.00  0.00    +0.000 A 
ATOM      9  C   UNL     1       8.056  14.879  17.975  0.00  0.00    +0.000 A 
ATOM     10  C   UNL     1       9.284  15.477  17.716  0.00  0.00    +0.000 A 
ATOM     11  C   UNL     1      10.447  14.710  17.747  0.00  0.00    +0.000 A 
ATOM     12  C   UNL     1      10.396  13.338  18.036  0.00  0.00    +0.000 A 
ATOM     13 BR   UNL     1      12.049  12.397  17.959  0.00  0.00    +0.000 Br
ENDBRANCH   5   7
ENDBRANCH   1   2
BRANCH   1  14
ATOM     14  S   UNL     1       7.903   6.607  18.424  0.00  0.00    +0.000 S 
BRANCH  14  22
ATOM     15  C   UNL     1       1.896   2.145  18.878  0.00  0.00    +0.000 C 
ATOM     16  C   UNL     1       2.798   3.344  18.705  0.00  0.00    +0.000 A 
ATOM     17  C   UNL     1       2.118   4.646  18.405  0.00  0.00    +0.000 A 
ATOM     18  C   UNL     1       2.918   5.712  18.251  0.00  0.00    +0.000 A 
ATOM     19  C   UNL     1       2.395   7.083  17.948  0.00  0.00    +0.000 C 
ATOM     20  N   UNL     1       4.302   5.544  18.380  0.00  0.00    +0.000 N 
ATOM     21  N   UNL     1       5.280   6.463  18.266  0.00  0.00    +0.000 NA
ATOM     22  C   UNL     1       6.386   5.755  18.486  0.00  0.00    +0.000 A 
ATOM     23  N   UNL     1       6.186   4.427  18.731  0.00  0.00    +0.000 NA
ATOM     24  C   UNL     1       4.872   4.292  18.665  0.00  0.00    +0.000 A 
ATOM     25  N   UNL     1       4.087   3.180  18.827  0.00  0.00    +0.000 NA
ENDBRANCH  14  22
ENDBRANCH   1  14
TORSDOF 4
ENDMDL
MODEL 9
REMARK VINA RESULT:      -7.0      4.930      6.215
REMARK  Name = 
REMARK  6 active torsions:
REMARK  status: ('A' for Active; 'I' for Inactive)
REMARK    1  A    between atoms: C_1  and  C_2
REMARK    2  A    between atoms: C_4  and  C_5
REMARK    3  A    between atoms: C_8  and  S_9
REMARK    4  A    between atoms: S_9  and  C_10
REMARK    5  A    between atoms: C_10  and  C_11
REMARK    6  A    between atoms: C_14  and  C_15
REMARK                            x       y       z     vdW  Elec       q    Type
REMARK                         _______ _______ _______ _____ _____    ______ ____
ROOT
ATOM      1  C   UNL     1       0.974   9.757  19.595  0.00  0.00    +0.000 C 
ENDROOT
BRANCH   1   2
ATOM      2  C   UNL     1      -0.022  10.843  19.321  0.00  0.00    +0.000 A 
ATOM      3  N   UNL     1       0.147  12.151  19.364  0.00  0.00    +0.000 NA
ATOM      4  N   UNL     1      -1.072  12.717  19.042  0.00  0.00    +0.000 NA
ATOM      5  C   UNL     1      -1.920  11.728  18.867  0.00  0.00    +0.000 A 
ATOM      6  O   UNL     1      -1.314  10.499  18.990  0.00  0.00    +0.000 OA
BRANCH   5   7
ATOM      7  C   UNL     1      -3.336  11.815  18.533  0.00  0.00    +0.000 A 
ATOM      8  C   UNL     1      -4.231  12.228  19.548  0.00  0.00    +0.000 A 
ATOM      9  C   UNL     1      -5.615  12.259  19.346  0.00  0.00    +0.000 A 
ATOM     10  C   UNL     1      -6.136  11.864  18.118  0.00  0.00    +0.000 A 
ATOM     11  C   UNL     1      -5.276  11.451  17.103  0.00  0.00    +0.000 A 
ATOM     12  C   UNL     1      -3.887  11.427  17.302  0.00  0.00    +0.000 A 
ATOM     13 BR   UNL     1      -2.839  10.760  15.860  0.00  0.00    +0.000 Br
ENDBRANCH   5   7
ENDBRANCH   1   2
BRANCH   1  14
ATOM     14  S   UNL     1       1.821   9.316  18.056  0.00  0.00    +0.000 S 
BRANCH  14  22
ATOM     15  C   UNL     1       4.388   2.541  19.986  0.00  0.00    +0.000 C 
ATOM     16  C   UNL     1       4.146   3.846  19.263  0.00  0.00    +0.000 A 
ATOM     17  C   UNL     1       4.924   4.054  17.998  0.00  0.00    +0.000 A 
ATOM     18  C   UNL     1       4.710   5.212  17.354  0.00  0.00    +0.000 A 
ATOM     19  C   UNL     1       5.408   5.573  16.078  0.00  0.00    +0.000 C 
ATOM     20  N   UNL     1       3.796   6.127  17.891  0.00  0.00    +0.000 N 
ATOM     21  N   UNL     1       3.432   7.335  17.419  0.00  0.00    +0.000 NA
ATOM     22  C   UNL     1       2.543   7.753  18.318  0.00  0.00    +0.000 A 
ATOM     23  N   UNL     1       2.310   6.891  19.349  0.00  0.00    +0.000 NA
ATOM     24  C   UNL     1       3.100   5.864  19.082  0.00  0.00    +0.000 A 
ATOM     25  N   UNL     1       3.292   4.693  19.769  0.00  0.00    +0.000 NA
ENDBRANCH  14  22
ENDBRANCH   1  14
TORSDOF 4
ENDMDL
