MODEL 1
REMARK VINA RESULT:      -6.9      0.000      0.000
REMARK  Name = 
REMARK  12 active torsions:
REMARK  status: ('A' for Active; 'I' for Inactive)
REMARK    1  A    between atoms: C_1  and  C_2
REMARK    2  A    between atoms: C_2  and  C_3
REMARK    3  A    between atoms: C_3  and  C_4
REMARK    4  A    between atoms: C_4  and  C_5
REMARK    5  A    between atoms: C_5  and  C_6
REMARK    6  A    between atoms: N_12  and  C_13
REMARK    7  A    between atoms: C_13  and  C_14
REMARK    8  A    between atoms: C_13  and  C_15
REMARK    9  A    between atoms: C_21  and  O_22
REMARK   10  A    between atoms: O_22  and  C_23
REMARK   11  A    between atoms: C_26  and  C_27
REMARK   12  A    between atoms: C_27  and  O_29
REMARK                            x       y       z     vdW  Elec       q    Type
REMARK                         _______ _______ _______ _____ _____    ______ ____
ROOT
ATOM      1  C   UNL     1      -0.102  10.371  19.638  0.00  0.00    +0.000 C 
ATOM      2  C   UNL     1       1.085  10.843  18.767  0.00  0.00    +0.000 C 
ATOM      3  O   UNL     1       1.776  10.301  17.938  0.00  0.00    +0.000 OA
ATOM      4  N   UNL     1       1.042  12.122  19.266  0.00  0.00    +0.000 N 
ATOM      5  C   UNL     1       1.911  13.152  18.978  0.00  0.00    +0.000 C 
ATOM      6  O   UNL     1       2.776  13.073  18.108  0.00  0.00    +0.000 OA
ATOM      7  N   UNL     1       1.761  14.308  19.709  0.00  0.00    +0.000 N 
ATOM      8  C   UNL     1      -0.027  11.865  20.233  0.00  0.00    +0.000 C 
ATOM      9  H   UNL     1       0.882  14.453  20.164  0.00  0.00    +0.000 HD
ENDROOT
BRANCH   1  10
ATOM     10  C   UNL     1      -1.413  10.083  18.858  0.00  0.00    +0.000 C 
ATOM     11  C   UNL     1      -1.499  10.636  17.442  0.00  0.00    +0.000 C 
ENDBRANCH   1  10
BRANCH   7  12
ATOM     12  C   UNL     1       2.470  15.557  19.367  0.00  0.00    +0.000 C 
ATOM     13  C   UNL     1       3.083  16.183  20.625  0.00  0.00    +0.000 C 
BRANCH  12  14
ATOM     14  C   UNL     1       1.533  16.485  18.589  0.00  0.00    +0.000 A 
ATOM     15  C   UNL     1       1.964  17.359  17.577  0.00  0.00    +0.000 A 
ATOM     16  C   UNL     1       1.053  18.159  16.878  0.00  0.00    +0.000 A 
ATOM     17  C   UNL     1      -0.305  18.098  17.176  0.00  0.00    +0.000 A 
ATOM     18  C   UNL     1      -0.755  17.232  18.169  0.00  0.00    +0.000 A 
ATOM     19  C   UNL     1       0.153  16.437  18.869  0.00  0.00    +0.000 A 
ENDBRANCH  12  14
ENDBRANCH   7  12
BRANCH   1  20
ATOM     20  C   UNL     1       0.219   9.283  20.709  0.00  0.00    +0.000 C 
BRANCH  20  22
ATOM     21  C   UNL     1      -0.068   9.473  23.254  0.00  0.00    +0.000 C 
ATOM     22  C   UNL     1       0.762   9.838  22.032  0.00  0.00    +0.000 C 
ENDBRANCH  20  22
ENDBRANCH   1  20
BRANCH   8  23
ATOM     23  O   UNL     1      -1.270  12.597  20.093  0.00  0.00    +0.000 OA
BRANCH  23  24
ATOM     24  C   UNL     1      -2.230  12.610  21.070  0.00  0.00    +0.000 A 
ATOM     25  C   UNL     1      -2.007  12.424  22.431  0.00  0.00    +0.000 A 
ATOM     26  C   UNL     1      -3.065  12.569  23.335  0.00  0.00    +0.000 A 
ATOM     27  C   UNL     1      -4.363  12.826  22.880  0.00  0.00    +0.000 A 
ATOM     28  C   UNL     1      -4.599  12.953  21.508  0.00  0.00    +0.000 A 
ATOM     29  C   UNL     1      -3.532  12.846  20.611  0.00  0.00    +0.000 A 
BRANCH  27  30
ATOM     30  C   UNL     1      -5.431  13.009  23.894  0.00  0.00    +0.000 C 
ATOM     31  O   UNL     1      -6.089  12.081  24.335  0.00  0.00    +0.000 OA
BRANCH  30  32
ATOM     32  O   UNL     1      -5.647  14.295  24.236  0.00  0.00    +0.000 OA
ATOM     33  H   UNL     1      -6.574  14.518  24.439  0.00  0.00    +0.000 HD
ENDBRANCH  30  32
ENDBRANCH  27  30
ENDBRANCH  23  24
ENDBRANCH   8  23
TORSDOF 9
ENDMDL
MODEL 2
REMARK VINA RESULT:      -6.7      0.645      1.437
REMARK  Name = 
REMARK  12 active torsions:
REMARK  status: ('A' for Active; 'I' for Inactive)
REMARK    1  A    between atoms: C_1  and  C_2
REMARK    2  A    between atoms: C_2  and  C_3
REMARK    3  A    between atoms: C_3  and  C_4
REMARK    4  A    between atoms: C_4  and  C_5
REMARK    5  A    between atoms: C_5  and  C_6
REMARK    6  A    between atoms: N_12  and  C_13
REMARK    7  A    between atoms: C_13  and  C_14
REMARK    8  A    between atoms: C_13  and  C_15
REMARK    9  A    between atoms: C_21  and  O_22
REMARK   10  A    between atoms: O_22  and  C_23
REMARK   11  A    between atoms: C_26  and  C_27
REMARK   12  A    between atoms: C_27  and  O_29
REMARK                            x       y       z     vdW  Elec       q    Type
REMARK                         _______ _______ _______ _____ _____    ______ ____
ROOT
ATOM      1  C   UNL     1      -0.226  10.765  19.636  0.00  0.00    +0.000 C 
ATOM      2  C   UNL     1       1.031  11.278  18.896  0.00  0.00    +0.000 C 
ATOM      3  O   UNL     1       1.837  10.756  18.163  0.00  0.00    +0.000 OA
ATOM      4  N   UNL     1       0.874  12.561  19.360  0.00  0.00    +0.000 N 
ATOM      5  C   UNL     1       1.724  13.627  19.151  0.00  0.00    +0.000 C 
ATOM      6  O   UNL     1       2.685  13.574  18.388  0.00  0.00    +0.000 OA
ATOM      7  N   UNL     1       1.439  14.786  19.836  0.00  0.00    +0.000 N 
ATOM      8  C   UNL     1      -0.287  12.270  20.203  0.00  0.00    +0.000 C 
ATOM      9  H   UNL     1       0.508  14.896  20.183  0.00  0.00    +0.000 HD
ENDROOT
BRANCH   1  10
ATOM     10  C   UNL     1      -1.423  10.403  18.717  0.00  0.00    +0.000 C 
ATOM     11  C   UNL     1      -1.097   9.642  17.438  0.00  0.00    +0.000 C 
ENDBRANCH   1  10
BRANCH   7  12
ATOM     12  C   UNL     1       2.125  16.060  19.550  0.00  0.00    +0.000 C 
ATOM     13  C   UNL     1       2.483  16.777  20.858  0.00  0.00    +0.000 C 
BRANCH  12  14
ATOM     14  C   UNL     1       1.283  16.894  18.580  0.00  0.00    +0.000 A 
ATOM     15  C   UNL     1      -0.088  17.145  18.754  0.00  0.00    +0.000 A 
ATOM     16  C   UNL     1      -0.795  17.945  17.849  0.00  0.00    +0.000 A 
ATOM     17  C   UNL     1      -0.145  18.510  16.756  0.00  0.00    +0.000 A 
ATOM     18  C   UNL     1       1.217  18.281  16.570  0.00  0.00    +0.000 A 
ATOM     19  C   UNL     1       1.922  17.481  17.470  0.00  0.00    +0.000 A 
ENDBRANCH  12  14
ENDBRANCH   7  12
BRANCH   1  20
ATOM     20  C   UNL     1       0.018   9.710  20.759  0.00  0.00    +0.000 C 
BRANCH  20  22
ATOM     21  C   UNL     1       0.137   9.549  23.320  0.00  0.00    +0.000 C 
ATOM     22  C   UNL     1      -0.625  10.061  22.107  0.00  0.00    +0.000 C 
ENDBRANCH  20  22
ENDBRANCH   1  20
BRANCH   8  23
ATOM     23  O   UNL     1      -1.537  12.940  19.906  0.00  0.00    +0.000 OA
BRANCH  23  24
ATOM     24  C   UNL     1      -2.581  12.975  20.792  0.00  0.00    +0.000 A 
ATOM     25  C   UNL     1      -3.916  12.731  20.486  0.00  0.00    +0.000 A 
ATOM     26  C   UNL     1      -4.870  12.694  21.508  0.00  0.00    +0.000 A 
ATOM     27  C   UNL     1      -4.508  12.974  22.831  0.00  0.00    +0.000 A 
ATOM     28  C   UNL     1      -3.178  13.281  23.131  0.00  0.00    +0.000 A 
ATOM     29  C   UNL     1      -2.221  13.277  22.112  0.00  0.00    +0.000 A 
BRANCH  27  30
ATOM     30  C   UNL     1      -5.560  12.878  23.874  0.00  0.00    +0.000 C 
ATOM     31  O   UNL     1      -6.462  13.693  23.980  0.00  0.00    +0.000 OA
BRANCH  30  32
ATOM     32  O   UNL     1      -5.394  11.847  24.726  0.00  0.00    +0.000 OA
ATOM     33  H   UNL     1      -6.218  11.439  25.047  0.00  0.00    +0.000 HD
ENDBRANCH  30  32
ENDBRANCH  27  30
ENDBRANCH  23  24
ENDBRANCH   8  23
TORSDOF 9
ENDMDL
MODEL 3
REMARK VINA RESULT:      -6.6      5.563     10.299
REMARK  Name = 
REMARK  12 active torsions:
REMARK  status: ('A' for Active; 'I' for Inactive)
REMARK    1  A    between atoms: C_1  and  C_2
REMARK    2  A    between atoms: C_2  and  C_3
REMARK    3  A    between atoms: C_3  and  C_4
REMARK    4  A    between atoms: C_4  and  C_5
REMARK    5  A    between atoms: C_5  and  C_6
REMARK    6  A    between atoms: N_12  and  C_13
REMARK    7  A    between atoms: C_13  and  C_14
REMARK    8  A    between atoms: C_13  and  C_15
REMARK    9  A    between atoms: C_21  and  O_22
REMARK   10  A    between atoms: O_22  and  C_23
REMARK   11  A    between atoms: C_26  and  C_27
REMARK   12  A    between atoms: C_27  and  O_29
REMARK                            x       y       z     vdW  Elec       q    Type
REMARK                         _______ _______ _______ _____ _____    ______ ____
ROOT
ATOM      1  C   UNL     1       2.968  15.010  19.339  0.00  0.00    +0.000 C 
ATOM      2  C   UNL     1       3.094  14.377  20.744  0.00  0.00    +0.000 C 
ATOM      3  O   UNL     1       2.295  13.913  21.523  0.00  0.00    +0.000 OA
ATOM      4  N   UNL     1       4.461  14.511  20.766  0.00  0.00    +0.000 N 
ATOM      5  C   UNL     1       5.306  14.203  21.810  0.00  0.00    +0.000 C 
ATOM      6  O   UNL     1       4.927  13.628  22.828  0.00  0.00    +0.000 OA
ATOM      7  N   UNL     1       6.627  14.558  21.660  0.00  0.00    +0.000 N 
ATOM      8  C   UNL     1       4.559  15.210  19.482  0.00  0.00    +0.000 C 
ATOM      9  H   UNL     1       6.954  14.724  20.730  0.00  0.00    +0.000 HD
ENDROOT
BRANCH   1  10
ATOM     10  C   UNL     1       2.569  14.023  18.210  0.00  0.00    +0.000 C 
ATOM     11  C   UNL     1       2.254  12.594  18.632  0.00  0.00    +0.000 C 
ENDBRANCH   1  10
BRANCH   7  12
ATOM     12  C   UNL     1       7.678  14.103  22.591  0.00  0.00    +0.000 C 
ATOM     13  C   UNL     1       8.100  15.249  23.518  0.00  0.00    +0.000 C 
BRANCH  12  14
ATOM     14  C   UNL     1       8.827  13.470  21.802  0.00  0.00    +0.000 A 
ATOM     15  C   UNL     1       8.881  12.109  21.458  0.00  0.00    +0.000 A 
ATOM     16  C   UNL     1       9.944  11.596  20.705  0.00  0.00    +0.000 A 
ATOM     17  C   UNL     1      10.971  12.435  20.281  0.00  0.00    +0.000 A 
ATOM     18  C   UNL     1      10.932  13.790  20.604  0.00  0.00    +0.000 A 
ATOM     19  C   UNL     1       9.875  14.300  21.357  0.00  0.00    +0.000 A 
ENDBRANCH  12  14
ENDBRANCH   7  12
BRANCH   1  20
ATOM     20  C   UNL     1       2.199  16.365  19.260  0.00  0.00    +0.000 C 
BRANCH  20  22
ATOM     21  C   UNL     1       1.055  17.898  17.546  0.00  0.00    +0.000 C 
ATOM     22  C   UNL     1       2.275  17.057  17.893  0.00  0.00    +0.000 C 
ENDBRANCH  20  22
ENDBRANCH   1  20
BRANCH   8  23
ATOM     23  O   UNL     1       5.310  14.581  18.415  0.00  0.00    +0.000 OA
BRANCH  23  24
ATOM     24  C   UNL     1       6.652  14.791  18.238  0.00  0.00    +0.000 A 
ATOM     25  C   UNL     1       7.589  13.821  17.895  0.00  0.00    +0.000 A 
ATOM     26  C   UNL     1       8.913  14.191  17.640  0.00  0.00    +0.000 A 
ATOM     27  C   UNL     1       9.326  15.519  17.798  0.00  0.00    +0.000 A 
ATOM     28  C   UNL     1       8.399  16.485  18.203  0.00  0.00    +0.000 A 
ATOM     29  C   UNL     1       7.067  16.117  18.418  0.00  0.00    +0.000 A 
BRANCH  27  30
ATOM     30  C   UNL     1      10.735  15.852  17.473  0.00  0.00    +0.000 C 
ATOM     31  O   UNL     1      11.471  16.441  18.248  0.00  0.00    +0.000 OA
BRANCH  30  32
ATOM     32  O   UNL     1      11.107  15.500  16.225  0.00  0.00    +0.000 OA
ATOM     33  H   UNL     1      10.482  14.917  15.757  0.00  0.00    +0.000 HD
ENDBRANCH  30  32
ENDBRANCH  27  30
ENDBRANCH  23  24
ENDBRANCH   8  23
TORSDOF 9
ENDMDL
MODEL 4
REMARK VINA RESULT:      -6.6      1.449      2.010
REMARK  Name = 
REMARK  12 active torsions:
REMARK  status: ('A' for Active; 'I' for Inactive)
REMARK    1  A    between atoms: C_1  and  C_2
REMARK    2  A    between atoms: C_2  and  C_3
REMARK    3  A    between atoms: C_3  and  C_4
REMARK    4  A    between atoms: C_4  and  C_5
REMARK    5  A    between atoms: C_5  and  C_6
REMARK    6  A    between atoms: N_12  and  C_13
REMARK    7  A    between atoms: C_13  and  C_14
REMARK    8  A    between atoms: C_13  and  C_15
REMARK    9  A    between atoms: C_21  and  O_22
REMARK   10  A    between atoms: O_22  and  C_23
REMARK   11  A    between atoms: C_26  and  C_27
REMARK   12  A    between atoms: C_27  and  O_29
REMARK                            x       y       z     vdW  Elec       q    Type
REMARK                         _______ _______ _______ _____ _____    ______ ____
ROOT
ATOM      1  C   UNL     1       0.303  10.423  19.818  0.00  0.00    +0.000 C 
ATOM      2  C   UNL     1       1.388  10.899  18.824  0.00  0.00    +0.000 C 
ATOM      3  O   UNL     1       2.041  10.341  17.975  0.00  0.00    +0.000 OA
ATOM      4  N   UNL     1       1.312  12.204  19.247  0.00  0.00    +0.000 N 
ATOM      5  C   UNL     1       2.095  13.257  18.826  0.00  0.00    +0.000 C 
ATOM      6  O   UNL     1       2.891  13.166  17.893  0.00  0.00    +0.000 OA
ATOM      7  N   UNL     1       1.938  14.448  19.495  0.00  0.00    +0.000 N 
ATOM      8  C   UNL     1       0.339  11.955  20.313  0.00  0.00    +0.000 C 
ATOM      9  H   UNL     1       1.091  14.577  20.011  0.00  0.00    +0.000 HD
ENDROOT
BRANCH   1  10
ATOM     10  C   UNL     1      -1.047  10.017  19.168  0.00  0.00    +0.000 C 
ATOM     11  C   UNL     1      -1.152  10.178  17.657  0.00  0.00    +0.000 C 
ENDBRANCH   1  10
BRANCH   7  12
ATOM     12  C   UNL     1       2.544  15.707  19.021  0.00  0.00    +0.000 C 
ATOM     13  C   UNL     1       3.309  16.392  20.159  0.00  0.00    +0.000 C 
BRANCH  12  14
ATOM     14  C   UNL     1       1.473  16.580  18.361  0.00  0.00    +0.000 A 
ATOM     15  C   UNL     1       0.107  16.521  18.688  0.00  0.00    +0.000 A 
ATOM     16  C   UNL     1      -0.819  17.370  18.073  0.00  0.00    +0.000 A 
ATOM     17  C   UNL     1      -0.398  18.296  17.123  0.00  0.00    +0.000 A 
ATOM     18  C   UNL     1       0.952  18.377  16.791  0.00  0.00    +0.000 A 
ATOM     19  C   UNL     1       1.876  17.529  17.400  0.00  0.00    +0.000 A 
ENDBRANCH  12  14
ENDBRANCH   7  12
BRANCH   1  20
ATOM     20  C   UNL     1       0.770   9.425  20.922  0.00  0.00    +0.000 C 
BRANCH  20  22
ATOM     21  C   UNL     1      -0.247   9.617  23.273  0.00  0.00    +0.000 C 
ATOM     22  C   UNL     1      -0.338   8.989  21.890  0.00  0.00    +0.000 C 
ENDBRANCH  20  22
ENDBRANCH   1  20
BRANCH   8  23
ATOM     23  O   UNL     1      -0.951  12.610  20.232  0.00  0.00    +0.000 OA
BRANCH  23  24
ATOM     24  C   UNL     1      -1.449  13.380  21.250  0.00  0.00    +0.000 A 
ATOM     25  C   UNL     1      -2.418  14.370  21.121  0.00  0.00    +0.000 A 
ATOM     26  C   UNL     1      -2.917  15.009  22.261  0.00  0.00    +0.000 A 
ATOM     27  C   UNL     1      -2.399  14.715  23.527  0.00  0.00    +0.000 A 
ATOM     28  C   UNL     1      -1.381  13.764  23.652  0.00  0.00    +0.000 A 
ATOM     29  C   UNL     1      -0.914  13.100  22.513  0.00  0.00    +0.000 A 
BRANCH  27  30
ATOM     30  C   UNL     1      -3.000  15.398  24.699  0.00  0.00    +0.000 C 
ATOM     31  O   UNL     1      -3.143  16.609  24.757  0.00  0.00    +0.000 OA
BRANCH  30  32
ATOM     32  O   UNL     1      -3.315  14.569  25.715  0.00  0.00    +0.000 OA
ATOM     33  H   UNL     1      -2.567  14.069  26.088  0.00  0.00    +0.000 HD
ENDBRANCH  30  32
ENDBRANCH  27  30
ENDBRANCH  23  24
ENDBRANCH   8  23
TORSDOF 9
ENDMDL
MODEL 5
REMARK VINA RESULT:      -6.6      1.014      1.208
REMARK  Name = 
REMARK  12 active torsions:
REMARK  status: ('A' for Active; 'I' for Inactive)
REMARK    1  A    between atoms: C_1  and  C_2
REMARK    2  A    between atoms: C_2  and  C_3
REMARK    3  A    between atoms: C_3  and  C_4
REMARK    4  A    between atoms: C_4  and  C_5
REMARK    5  A    between atoms: C_5  and  C_6
REMARK    6  A    between atoms: N_12  and  C_13
REMARK    7  A    between atoms: C_13  and  C_14
REMARK    8  A    between atoms: C_13  and  C_15
REMARK    9  A    between atoms: C_21  and  O_22
REMARK   10  A    between atoms: O_22  and  C_23
REMARK   11  A    between atoms: C_26  and  C_27
REMARK   12  A    between atoms: C_27  and  O_29
REMARK                            x       y       z     vdW  Elec       q    Type
REMARK                         _______ _______ _______ _____ _____    ______ ____
ROOT
ATOM      1  C   UNL     1      -0.235  10.411  19.607  0.00  0.00    +0.000 C 
ATOM      2  C   UNL     1       0.974  10.797  18.723  0.00  0.00    +0.000 C 
ATOM      3  O   UNL     1       1.648  10.192  17.924  0.00  0.00    +0.000 OA
ATOM      4  N   UNL     1       0.977  12.099  19.162  0.00  0.00    +0.000 N 
ATOM      5  C   UNL     1       1.887  13.081  18.833  0.00  0.00    +0.000 C 
ATOM      6  O   UNL     1       2.752  12.929  17.973  0.00  0.00    +0.000 OA
ATOM      7  N   UNL     1       1.778  14.274  19.509  0.00  0.00    +0.000 N 
ATOM      8  C   UNL     1      -0.105  11.927  20.133  0.00  0.00    +0.000 C 
ATOM      9  H   UNL     1       0.903  14.473  19.951  0.00  0.00    +0.000 HD
ENDROOT
BRANCH   1  10
ATOM     10  C   UNL     1      -1.551  10.137  18.832  0.00  0.00    +0.000 C 
ATOM     11  C   UNL     1      -1.432   9.965  17.324  0.00  0.00    +0.000 C 
ENDBRANCH   1  10
BRANCH   7  12
ATOM     12  C   UNL     1       2.535  15.478  19.115  0.00  0.00    +0.000 C 
ATOM     13  C   UNL     1       3.274  16.062  20.324  0.00  0.00    +0.000 C 
BRANCH  12  14
ATOM     14  C   UNL     1       1.603  16.464  18.404  0.00  0.00    +0.000 A 
ATOM     15  C   UNL     1       2.039  17.405  17.456  0.00  0.00    +0.000 A 
ATOM     16  C   UNL     1       1.132  18.257  16.816  0.00  0.00    +0.000 A 
ATOM     17  C   UNL     1      -0.227  18.183  17.110  0.00  0.00    +0.000 A 
ATOM     18  C   UNL     1      -0.681  17.251  18.040  0.00  0.00    +0.000 A 
ATOM     19  C   UNL     1       0.223  16.404  18.682  0.00  0.00    +0.000 A 
ENDBRANCH  12  14
ENDBRANCH   7  12
BRANCH   1  20
ATOM     20  C   UNL     1       0.040   9.362  20.729  0.00  0.00    +0.000 C 
BRANCH  20  22
ATOM     21  C   UNL     1      -0.289   9.587  23.266  0.00  0.00    +0.000 C 
ATOM     22  C   UNL     1       0.541   9.964  22.048  0.00  0.00    +0.000 C 
ENDBRANCH  20  22
ENDBRANCH   1  20
BRANCH   8  23
ATOM     23  O   UNL     1      -1.319  12.698  19.952  0.00  0.00    +0.000 OA
BRANCH  23  24
ATOM     24  C   UNL     1      -2.045  13.186  21.006  0.00  0.00    +0.000 A 
ATOM     25  C   UNL     1      -2.473  12.451  22.107  0.00  0.00    +0.000 A 
ATOM     26  C   UNL     1      -3.117  13.097  23.167  0.00  0.00    +0.000 A 
ATOM     27  C   UNL     1      -3.403  14.465  23.101  0.00  0.00    +0.000 A 
ATOM     28  C   UNL     1      -3.028  15.193  21.967  0.00  0.00    +0.000 A 
ATOM     29  C   UNL     1      -2.350  14.551  20.927  0.00  0.00    +0.000 A 
BRANCH  27  30
ATOM     30  C   UNL     1      -4.052  15.097  24.276  0.00  0.00    +0.000 C 
ATOM     31  O   UNL     1      -3.418  15.595  25.193  0.00  0.00    +0.000 OA
BRANCH  30  32
ATOM     32  O   UNL     1      -5.398  15.018  24.268  0.00  0.00    +0.000 OA
ATOM     33  H   UNL     1      -5.762  14.227  23.832  0.00  0.00    +0.000 HD
ENDBRANCH  30  32
ENDBRANCH  27  30
ENDBRANCH  23  24
ENDBRANCH   8  23
TORSDOF 9
ENDMDL
MODEL 6
REMARK VINA RESULT:      -6.6      3.224      7.625
REMARK  Name = 
REMARK  12 active torsions:
REMARK  status: ('A' for Active; 'I' for Inactive)
REMARK    1  A    between atoms: C_1  and  C_2
REMARK    2  A    between atoms: C_2  and  C_3
REMARK    3  A    between atoms: C_3  and  C_4
REMARK    4  A    between atoms: C_4  and  C_5
REMARK    5  A    between atoms: C_5  and  C_6
REMARK    6  A    between atoms: N_12  and  C_13
REMARK    7  A    between atoms: C_13  and  C_14
REMARK    8  A    between atoms: C_13  and  C_15
REMARK    9  A    between atoms: C_21  and  O_22
REMARK   10  A    between atoms: O_22  and  C_23
REMARK   11  A    between atoms: C_26  and  C_27
REMARK   12  A    between atoms: C_27  and  O_29
REMARK                            x       y       z     vdW  Elec       q    Type
REMARK                         _______ _______ _______ _____ _____    ______ ____
ROOT
ATOM      1  C   UNL     1      -5.567  12.515  19.907  0.00  0.00    +0.000 C 
ATOM      2  C   UNL     1      -4.686  12.875  21.126  0.00  0.00    +0.000 C 
ATOM      3  O   UNL     1      -4.929  13.259  22.245  0.00  0.00    +0.000 OA
ATOM      4  N   UNL     1      -3.519  12.567  20.469  0.00  0.00    +0.000 N 
ATOM      5  C   UNL     1      -2.235  12.723  20.947  0.00  0.00    +0.000 C 
ATOM      6  O   UNL     1      -1.989  13.043  22.107  0.00  0.00    +0.000 OA
ATOM      7  N   UNL     1      -1.213  12.484  20.057  0.00  0.00    +0.000 N 
ATOM      8  C   UNL     1      -4.151  12.260  19.185  0.00  0.00    +0.000 C 
ATOM      9  H   UNL     1      -1.427  11.936  19.248  0.00  0.00    +0.000 HD
ENDROOT
BRANCH   1  10
ATOM     10  C   UNL     1      -6.416  11.226  20.072  0.00  0.00    +0.000 C 
ATOM     11  C   UNL     1      -7.590  11.302  21.039  0.00  0.00    +0.000 C 
ENDBRANCH   1  10
BRANCH   7  12
ATOM     12  C   UNL     1       0.198  12.401  20.479  0.00  0.00    +0.000 C 
ATOM     13  C   UNL     1       1.065  13.337  19.627  0.00  0.00    +0.000 C 
BRANCH  12  14
ATOM     14  C   UNL     1       0.653  10.938  20.475  0.00  0.00    +0.000 A 
ATOM     15  C   UNL     1       0.734  10.143  21.631  0.00  0.00    +0.000 A 
ATOM     16  C   UNL     1       1.124   8.801  21.557  0.00  0.00    +0.000 A 
ATOM     17  C   UNL     1       1.439   8.229  20.328  0.00  0.00    +0.000 A 
ATOM     18  C   UNL     1       1.356   8.998  19.169  0.00  0.00    +0.000 A 
ATOM     19  C   UNL     1       0.971  10.336  19.241  0.00  0.00    +0.000 A 
ENDBRANCH  12  14
ENDBRANCH   7  12
BRANCH   1  20
ATOM     20  C   UNL     1      -6.366  13.690  19.263  0.00  0.00    +0.000 C 
BRANCH  20  22
ATOM     21  C   UNL     1      -6.929  14.159  16.801  0.00  0.00    +0.000 C 
ATOM     22  C   UNL     1      -7.185  13.296  18.027  0.00  0.00    +0.000 C 
ENDBRANCH  20  22
ENDBRANCH   1  20
BRANCH   8  23
ATOM     23  O   UNL     1      -4.015  10.918  18.656  0.00  0.00    +0.000 OA
BRANCH  23  24
ATOM     24  C   UNL     1      -3.679  10.672  17.351  0.00  0.00    +0.000 A 
ATOM     25  C   UNL     1      -2.598   9.910  16.920  0.00  0.00    +0.000 A 
ATOM     26  C   UNL     1      -2.430   9.650  15.556  0.00  0.00    +0.000 A 
ATOM     27  C   UNL     1      -3.297  10.209  14.610  0.00  0.00    +0.000 A 
ATOM     28  C   UNL     1      -4.348  11.026  15.038  0.00  0.00    +0.000 A 
ATOM     29  C   UNL     1      -4.535  11.251  16.406  0.00  0.00    +0.000 A 
BRANCH  27  30
ATOM     30  C   UNL     1      -3.088   9.861  13.183  0.00  0.00    +0.000 C 
ATOM     31  O   UNL     1      -2.073   9.318  12.777  0.00  0.00    +0.000 OA
BRANCH  30  32
ATOM     32  O   UNL     1      -4.092  10.250  12.371  0.00  0.00    +0.000 OA
ATOM     33  H   UNL     1      -4.756  10.831  12.785  0.00  0.00    +0.000 HD
ENDBRANCH  30  32
ENDBRANCH  27  30
ENDBRANCH  23  24
ENDBRANCH   8  23
TORSDOF 9
ENDMDL
MODEL 7
REMARK VINA RESULT:      -6.6      2.516      6.019
REMARK  Name = 
REMARK  12 active torsions:
REMARK  status: ('A' for Active; 'I' for Inactive)
REMARK    1  A    between atoms: C_1  and  C_2
REMARK    2  A    between atoms: C_2  and  C_3
REMARK    3  A    between atoms: C_3  and  C_4
REMARK    4  A    between atoms: C_4  and  C_5
REMARK    5  A    between atoms: C_5  and  C_6
REMARK    6  A    between atoms: N_12  and  C_13
REMARK    7  A    between atoms: C_13  and  C_14
REMARK    8  A    between atoms: C_13  and  C_15
REMARK    9  A    between atoms: C_21  and  O_22
REMARK   10  A    between atoms: O_22  and  C_23
REMARK   11  A    between atoms: C_26  and  C_27
REMARK   12  A    between atoms: C_27  and  O_29
REMARK                            x       y       z     vdW  Elec       q    Type
REMARK                         _______ _______ _______ _____ _____    ______ ____
ROOT
ATOM      1  C   UNL     1       0.312  11.412  20.226  0.00  0.00    +0.000 C 
ATOM      2  C   UNL     1      -0.269  10.589  19.053  0.00  0.00    +0.000 C 
ATOM      3  O   UNL     1       0.200   9.776  18.293  0.00  0.00    +0.000 OA
ATOM      4  N   UNL     1      -1.532  11.107  19.215  0.00  0.00    +0.000 N 
ATOM      5  C   UNL     1      -2.633  10.865  18.422  0.00  0.00    +0.000 C 
ATOM      6  O   UNL     1      -2.639  10.024  17.526  0.00  0.00    +0.000 OA
ATOM      7  N   UNL     1      -3.759  11.609  18.688  0.00  0.00    +0.000 N 
ATOM      8  C   UNL     1      -1.172  12.032  20.291  0.00  0.00    +0.000 C 
ATOM      9  H   UNL     1      -3.825  12.035  19.590  0.00  0.00    +0.000 HD
ENDROOT
BRANCH   1  10
ATOM     10  C   UNL     1       0.689  10.582  21.483  0.00  0.00    +0.000 C 
ATOM     11  C   UNL     1       0.249   9.125  21.496  0.00  0.00    +0.000 C 
ENDBRANCH   1  10
BRANCH   7  12
ATOM     12  C   UNL     1      -5.066  11.311  18.071  0.00  0.00    +0.000 C 
ATOM     13  C   UNL     1      -5.476  12.441  17.119  0.00  0.00    +0.000 C 
BRANCH  12  14
ATOM     14  C   UNL     1      -6.094  10.999  19.163  0.00  0.00    +0.000 A 
ATOM     15  C   UNL     1      -6.769   9.771  19.272  0.00  0.00    +0.000 A 
ATOM     16  C   UNL     1      -7.672   9.535  20.314  0.00  0.00    +0.000 A 
ATOM     17  C   UNL     1      -7.916  10.520  21.268  0.00  0.00    +0.000 A 
ATOM     18  C   UNL     1      -7.250  11.740  21.183  0.00  0.00    +0.000 A 
ATOM     19  C   UNL     1      -6.352  11.978  20.143  0.00  0.00    +0.000 A 
ENDBRANCH  12  14
ENDBRANCH   7  12
BRANCH   1  20
ATOM     20  C   UNL     1       1.391  12.475  19.854  0.00  0.00    +0.000 C 
BRANCH  20  22
ATOM     21  C   UNL     1       0.643  14.676  18.761  0.00  0.00    +0.000 C 
ATOM     22  C   UNL     1       1.103  13.240  18.555  0.00  0.00    +0.000 C 
ENDBRANCH  20  22
ENDBRANCH   1  20
BRANCH   8  23
ATOM     23  O   UNL     1      -1.805  11.862  21.583  0.00  0.00    +0.000 OA
BRANCH  23  24
ATOM     24  C   UNL     1      -2.815  12.677  22.021  0.00  0.00    +0.000 A 
ATOM     25  C   UNL     1      -3.231  13.855  21.410  0.00  0.00    +0.000 A 
ATOM     26  C   UNL     1      -4.348  14.538  21.902  0.00  0.00    +0.000 A 
ATOM     27  C   UNL     1      -5.010  14.089  23.051  0.00  0.00    +0.000 A 
ATOM     28  C   UNL     1      -4.555  12.938  23.702  0.00  0.00    +0.000 A 
ATOM     29  C   UNL     1      -3.462  12.237  23.182  0.00  0.00    +0.000 A 
BRANCH  27  30
ATOM     30  C   UNL     1      -6.212  14.835  23.497  0.00  0.00    +0.000 C 
ATOM     31  O   UNL     1      -7.139  14.304  24.087  0.00  0.00    +0.000 OA
BRANCH  30  32
ATOM     32  O   UNL     1      -6.214  16.136  23.139  0.00  0.00    +0.000 OA
ATOM     33  H   UNL     1      -6.260  16.299  22.179  0.00  0.00    +0.000 HD
ENDBRANCH  30  32
ENDBRANCH  27  30
ENDBRANCH  23  24
ENDBRANCH   8  23
TORSDOF 9
ENDMDL
MODEL 8
REMARK VINA RESULT:      -6.5      0.613      1.178
REMARK  Name = 
REMARK  12 active torsions:
REMARK  status: ('A' for Active; 'I' for Inactive)
REMARK    1  A    between atoms: C_1  and  C_2
REMARK    2  A    between atoms: C_2  and  C_3
REMARK    3  A    between atoms: C_3  and  C_4
REMARK    4  A    between atoms: C_4  and  C_5
REMARK    5  A    between atoms: C_5  and  C_6
REMARK    6  A    between atoms: N_12  and  C_13
REMARK    7  A    between atoms: C_13  and  C_14
REMARK    8  A    between atoms: C_13  and  C_15
REMARK    9  A    between atoms: C_21  and  O_22
REMARK   10  A    between atoms: O_22  and  C_23
REMARK   11  A    between atoms: C_26  and  C_27
REMARK   12  A    between atoms: C_27  and  O_29
REMARK                            x       y       z     vdW  Elec       q    Type
REMARK                         _______ _______ _______ _____ _____    ______ ____
ROOT
ATOM      1  C   UNL     1      -0.355  10.483  19.555  0.00  0.00    +0.000 C 
ATOM      2  C   UNL     1       0.964  10.817  18.820  0.00  0.00    +0.000 C 
ATOM      3  O   UNL     1       1.755  10.158  18.189  0.00  0.00    +0.000 OA
ATOM      4  N   UNL     1       0.886  12.154  19.127  0.00  0.00    +0.000 N 
ATOM      5  C   UNL     1       1.821  13.125  18.838  0.00  0.00    +0.000 C 
ATOM      6  O   UNL     1       2.803  12.916  18.131  0.00  0.00    +0.000 OA
ATOM      7  N   UNL     1       1.598  14.373  19.373  0.00  0.00    +0.000 N 
ATOM      8  C   UNL     1      -0.324  12.044  19.945  0.00  0.00    +0.000 C 
ATOM      9  H   UNL     1       0.666  14.588  19.663  0.00  0.00    +0.000 HD
ENDROOT
BRANCH   1  10
ATOM     10  C   UNL     1      -1.541  10.101  18.629  0.00  0.00    +0.000 C 
ATOM     11  C   UNL     1      -1.449  10.557  17.180  0.00  0.00    +0.000 C 
ENDBRANCH   1  10
BRANCH   7  12
ATOM     12  C   UNL     1       2.388  15.554  18.976  0.00  0.00    +0.000 C 
ATOM     13  C   UNL     1       3.141  16.122  20.186  0.00  0.00    +0.000 C 
BRANCH  12  14
ATOM     14  C   UNL     1       1.485  16.563  18.261  0.00  0.00    +0.000 A 
ATOM     15  C   UNL     1       1.943  17.469  17.289  0.00  0.00    +0.000 A 
ATOM     16  C   UNL     1       1.060  18.344  16.647  0.00  0.00    +0.000 A 
ATOM     17  C   UNL     1      -0.296  18.329  16.961  0.00  0.00    +0.000 A 
ATOM     18  C   UNL     1      -0.771  17.432  17.916  0.00  0.00    +0.000 A 
ATOM     19  C   UNL     1       0.108  16.562  18.560  0.00  0.00    +0.000 A 
ENDBRANCH  12  14
ENDBRANCH   7  12
BRANCH   1  20
ATOM     20  C   UNL     1      -0.233   9.552  20.801  0.00  0.00    +0.000 C 
BRANCH  20  22
ATOM     21  C   UNL     1      -0.926  10.217  23.183  0.00  0.00    +0.000 C 
ATOM     22  C   UNL     1       0.141  10.278  22.100  0.00  0.00    +0.000 C 
ENDBRANCH  20  22
ENDBRANCH   1  20
BRANCH   8  23
ATOM     23  O   UNL     1      -1.508  12.762  19.517  0.00  0.00    +0.000 OA
BRANCH  23  24
ATOM     24  C   UNL     1      -2.598  12.933  20.329  0.00  0.00    +0.000 A 
ATOM     25  C   UNL     1      -3.929  12.823  19.938  0.00  0.00    +0.000 A 
ATOM     26  C   UNL     1      -4.945  12.917  20.895  0.00  0.00    +0.000 A 
ATOM     27  C   UNL     1      -4.642  13.196  22.233  0.00  0.00    +0.000 A 
ATOM     28  C   UNL     1      -3.309  13.368  22.615  0.00  0.00    +0.000 A 
ATOM     29  C   UNL     1      -2.294  13.233  21.663  0.00  0.00    +0.000 A 
BRANCH  27  30
ATOM     30  C   UNL     1      -5.763  13.242  23.203  0.00  0.00    +0.000 C 
ATOM     31  O   UNL     1      -5.938  14.177  23.968  0.00  0.00    +0.000 OA
BRANCH  30  32
ATOM     32  O   UNL     1      -6.533  12.135  23.205  0.00  0.00    +0.000 OA
ATOM     33  H   UNL     1      -6.687  11.737  22.329  0.00  0.00    +0.000 HD
ENDBRANCH  30  32
ENDBRANCH  27  30
ENDBRANCH  23  24
ENDBRANCH   8  23
TORSDOF 9
ENDMDL
MODEL 9
REMARK VINA RESULT:      -6.4      2.850      7.126
REMARK  Name = 
REMARK  12 active torsions:
REMARK  status: ('A' for Active; 'I' for Inactive)
REMARK    1  A    between atoms: C_1  and  C_2
REMARK    2  A    between atoms: C_2  and  C_3
REMARK    3  A    between atoms: C_3  and  C_4
REMARK    4  A    between atoms: C_4  and  C_5
REMARK    5  A    between atoms: C_5  and  C_6
REMARK    6  A    between atoms: N_12  and  C_13
REMARK    7  A    between atoms: C_13  and  C_14
REMARK    8  A    between atoms: C_13  and  C_15
REMARK    9  A    between atoms: C_21  and  O_22
REMARK   10  A    between atoms: O_22  and  C_23
REMARK   11  A    between atoms: C_26  and  C_27
REMARK   12  A    between atoms: C_27  and  O_29
REMARK                            x       y       z     vdW  Elec       q    Type
REMARK                         _______ _______ _______ _____ _____    ______ ____
ROOT
ATOM      1  C   UNL     1      -2.662  14.126  21.250  0.00  0.00    +0.000 C 
ATOM      2  C   UNL     1      -1.877  13.430  22.387  0.00  0.00    +0.000 C 
ATOM      3  O   UNL     1      -1.665  13.708  23.543  0.00  0.00    +0.000 OA
ATOM      4  N   UNL     1      -1.534  12.359  21.598  0.00  0.00    +0.000 N 
ATOM      5  C   UNL     1      -0.722  11.301  21.946  0.00  0.00    +0.000 C 
ATOM      6  O   UNL     1      -0.305  11.128  23.089  0.00  0.00    +0.000 OA
ATOM      7  N   UNL     1      -0.399  10.416  20.944  0.00  0.00    +0.000 N 
ATOM      8  C   UNL     1      -2.144  12.880  20.373  0.00  0.00    +0.000 C 
ATOM      9  H   UNL     1      -0.988  10.402  20.136  0.00  0.00    +0.000 HD
ENDROOT
BRANCH   1  10
ATOM     10  C   UNL     1      -4.203  14.149  21.439  0.00  0.00    +0.000 C 
ATOM     11  C   UNL     1      -4.725  13.811  22.829  0.00  0.00    +0.000 C 
ENDBRANCH   1  10
BRANCH   7  12
ATOM     12  C   UNL     1       0.277   9.132  21.212  0.00  0.00    +0.000 C 
ATOM     13  C   UNL     1       1.065   9.208  22.525  0.00  0.00    +0.000 C 
BRANCH  12  14
ATOM     14  C   UNL     1       1.112   8.724  19.995  0.00  0.00    +0.000 A 
ATOM     15  C   UNL     1       1.208   9.490  18.821  0.00  0.00    +0.000 A 
ATOM     16  C   UNL     1       2.015   9.080  17.755  0.00  0.00    +0.000 A 
ATOM     17  C   UNL     1       2.745   7.897  17.843  0.00  0.00    +0.000 A 
ATOM     18  C   UNL     1       2.671   7.127  19.002  0.00  0.00    +0.000 A 
ATOM     19  C   UNL     1       1.863   7.534  20.063  0.00  0.00    +0.000 A 
ENDBRANCH  12  14
ENDBRANCH   7  12
BRANCH   1  20
ATOM     20  C   UNL     1      -2.090  15.489  20.753  0.00  0.00    +0.000 C 
BRANCH  20  22
ATOM     21  C   UNL     1       0.448  15.748  20.455  0.00  0.00    +0.000 C 
ATOM     22  C   UNL     1      -0.879  15.364  19.818  0.00  0.00    +0.000 C 
ENDBRANCH  20  22
ENDBRANCH   1  20
BRANCH   8  23
ATOM     23  O   UNL     1      -3.221  12.123  19.766  0.00  0.00    +0.000 OA
BRANCH  23  24
ATOM     24  C   UNL     1      -3.173  11.687  18.469  0.00  0.00    +0.000 A 
ATOM     25  C   UNL     1      -2.033  11.262  17.795  0.00  0.00    +0.000 A 
ATOM     26  C   UNL     1      -2.142  10.740  16.502  0.00  0.00    +0.000 A 
ATOM     27  C   UNL     1      -3.379  10.708  15.848  0.00  0.00    +0.000 A 
ATOM     28  C   UNL     1      -4.516  11.191  16.501  0.00  0.00    +0.000 A 
ATOM     29  C   UNL     1      -4.408  11.676  17.808  0.00  0.00    +0.000 A 
BRANCH  27  30
ATOM     30  C   UNL     1      -3.433  10.104  14.493  0.00  0.00    +0.000 C 
ATOM     31  O   UNL     1      -2.433   9.875  13.831  0.00  0.00    +0.000 OA
BRANCH  30  32
ATOM     32  O   UNL     1      -4.684   9.887  14.040  0.00  0.00    +0.000 OA
ATOM     33  H   UNL     1      -4.982   8.960  14.077  0.00  0.00    +0.000 HD
ENDBRANCH  30  32
ENDBRANCH  27  30
ENDBRANCH  23  24
ENDBRANCH   8  23
TORSDOF 9
ENDMDL
