MODEL 1
REMARK VINA RESULT:      -7.3      0.000      0.000
REMARK  Name = 
REMARK  5 active torsions:
REMARK  status: ('A' for Active; 'I' for Inactive)
REMARK    1  A    between atoms: C_1  and  C_2
REMARK    2  A    between atoms: N_7  and  C_8
REMARK    3  A    between atoms: N_11  and  C_12
REMARK    4  A    between atoms: C_15  and  S_16
REMARK    5  A    between atoms: S_16  and  C_19
REMARK                            x       y       z     vdW  Elec       q    Type
REMARK                         _______ _______ _______ _____ _____    ______ ____
ROOT
ATOM      1  C   UNL     1       1.007  11.326  19.304  0.00  0.00    +0.000 C 
ATOM      2  C   UNL     1       1.825  10.599  18.203  0.00  0.00    +0.000 C 
ATOM      3  C   UNL     1       1.581   9.100  18.105  0.00  0.00    +0.000 C 
ATOM      4  N   UNL     1       1.795   8.524  19.426  0.00  0.00    +0.000 N 
ATOM      5  C   UNL     1       0.851   8.995  20.444  0.00  0.00    +0.000 C 
ATOM      6  C   UNL     1       1.003  10.507  20.615  0.00  0.00    +0.000 C 
ENDROOT
BRANCH   1  13
ATOM      7  C   UNL     1      -0.647  14.018  20.267  0.00  0.00    +0.000 C 
ATOM      8  C   UNL     1      -1.101  12.577  19.975  0.00  0.00    +0.000 C 
ATOM      9  C   UNL     1      -2.635  12.667  19.723  0.00  0.00    +0.000 C 
ATOM     10  O   UNL     1      -3.176  11.476  19.158  0.00  0.00    +0.000 OA
ATOM     11  C   UNL     1      -2.551  11.261  17.893  0.00  0.00    +0.000 C 
ATOM     12  C   UNL     1      -1.068  10.960  18.101  0.00  0.00    +0.000 C 
ATOM     13  N   UNL     1      -0.296  11.957  18.895  0.00  0.00    +0.000 NA
ENDBRANCH   1  13
BRANCH   4  14
ATOM     14  C   UNL     1       2.180   7.187  19.521  0.00  0.00    +0.000 A 
ATOM     15  C   UNL     1       1.639   6.415  20.561  0.00  0.00    +0.000 A 
ATOM     16  C   UNL     1       2.028   5.089  20.765  0.00  0.00    +0.000 A 
ATOM     17  C   UNL     1       2.966   4.521  19.908  0.00  0.00    +0.000 A 
ATOM     18  C   UNL     1       3.531   5.263  18.869  0.00  0.00    +0.000 A 
ATOM     19  C   UNL     1       3.131   6.591  18.683  0.00  0.00    +0.000 A 
BRANCH  17  20
ATOM     20  S   UNL     1       3.467   2.836  20.168  0.00  0.00    +0.000 S 
ATOM     21  O   UNL     1       4.849   2.723  19.729  0.00  0.00    +0.000 OA
ATOM     22  O   UNL     1       3.123   2.495  21.540  0.00  0.00    +0.000 OA
BRANCH  20  23
ATOM     23  C   UNL     1       2.396   1.939  19.039  0.00  0.00    +0.000 C 
ATOM     24  F   UNL     1       1.071   2.186  19.260  0.00  0.00    +0.000 F 
ATOM     25  F   UNL     1       2.625   2.258  17.732  0.00  0.00    +0.000 F 
ENDBRANCH  20  23
ENDBRANCH  17  20
ENDBRANCH   4  14
TORSDOF 4
ENDMDL
MODEL 2
REMARK VINA RESULT:      -7.3      2.142      2.933
REMARK  Name = 
REMARK  5 active torsions:
REMARK  status: ('A' for Active; 'I' for Inactive)
REMARK    1  A    between atoms: C_1  and  C_2
REMARK    2  A    between atoms: N_7  and  C_8
REMARK    3  A    between atoms: N_11  and  C_12
REMARK    4  A    between atoms: C_15  and  S_16
REMARK    5  A    between atoms: S_16  and  C_19
REMARK                            x       y       z     vdW  Elec       q    Type
REMARK                         _______ _______ _______ _____ _____    ______ ____
ROOT
ATOM      1  C   UNL     1      -0.757  10.483  20.233  0.00  0.00    +0.000 C 
ATOM      2  C   UNL     1      -0.245   9.304  21.104  0.00  0.00    +0.000 C 
ATOM      3  C   UNL     1       1.188   8.873  20.826  0.00  0.00    +0.000 C 
ATOM      4  N   UNL     1       1.304   8.600  19.400  0.00  0.00    +0.000 N 
ATOM      5  C   UNL     1       1.090   9.773  18.547  0.00  0.00    +0.000 C 
ATOM      6  C   UNL     1      -0.330  10.300  18.758  0.00  0.00    +0.000 C 
ENDROOT
BRANCH   1  13
ATOM      7  C   UNL     1      -2.006  11.983  22.897  0.00  0.00    +0.000 C 
ATOM      8  C   UNL     1      -1.859  12.433  21.433  0.00  0.00    +0.000 C 
ATOM      9  C   UNL     1      -1.960  13.987  21.463  0.00  0.00    +0.000 C 
ATOM     10  O   UNL     1      -1.561  14.593  20.237  0.00  0.00    +0.000 OA
ATOM     11  C   UNL     1      -0.193  14.262  20.003  0.00  0.00    +0.000 C 
ATOM     12  C   UNL     1      -0.066  12.760  19.759  0.00  0.00    +0.000 C 
ATOM     13  N   UNL     1      -0.640  11.868  20.806  0.00  0.00    +0.000 NA
ENDBRANCH   1  13
BRANCH   4  14
ATOM     14  C   UNL     1       2.276   7.699  18.966  0.00  0.00    +0.000 A 
ATOM     15  C   UNL     1       2.566   6.594  19.782  0.00  0.00    +0.000 A 
ATOM     16  C   UNL     1       3.576   5.686  19.452  0.00  0.00    +0.000 A 
ATOM     17  C   UNL     1       4.299   5.880  18.279  0.00  0.00    +0.000 A 
ATOM     18  C   UNL     1       4.043   6.972  17.449  0.00  0.00    +0.000 A 
ATOM     19  C   UNL     1       3.032   7.873  17.799  0.00  0.00    +0.000 A 
BRANCH  17  20
ATOM     20  S   UNL     1       5.587   4.729  17.859  0.00  0.00    +0.000 S 
ATOM     21  O   UNL     1       6.732   5.507  17.413  0.00  0.00    +0.000 OA
ATOM     22  O   UNL     1       5.735   3.822  18.987  0.00  0.00    +0.000 OA
BRANCH  20  23
ATOM     23  C   UNL     1       4.874   3.847  16.467  0.00  0.00    +0.000 C 
ATOM     24  F   UNL     1       3.521   3.693  16.577  0.00  0.00    +0.000 F 
ATOM     25  F   UNL     1       5.085   4.482  15.277  0.00  0.00    +0.000 F 
ENDBRANCH  20  23
ENDBRANCH  17  20
ENDBRANCH   4  14
TORSDOF 4
ENDMDL
MODEL 3
REMARK VINA RESULT:      -7.2      2.703      3.459
REMARK  Name = 
REMARK  5 active torsions:
REMARK  status: ('A' for Active; 'I' for Inactive)
REMARK    1  A    between atoms: C_1  and  C_2
REMARK    2  A    between atoms: N_7  and  C_8
REMARK    3  A    between atoms: N_11  and  C_12
REMARK    4  A    between atoms: C_15  and  S_16
REMARK    5  A    between atoms: S_16  and  C_19
REMARK                            x       y       z     vdW  Elec       q    Type
REMARK                         _______ _______ _______ _____ _____    ______ ____
ROOT
ATOM      1  C   UNL     1      -0.698  10.656  19.758  0.00  0.00    +0.000 C 
ATOM      2  C   UNL     1      -0.169   9.625  20.791  0.00  0.00    +0.000 C 
ATOM      3  C   UNL     1       1.249   9.132  20.538  0.00  0.00    +0.000 C 
ATOM      4  N   UNL     1       1.311   8.630  19.172  0.00  0.00    +0.000 N 
ATOM      5  C   UNL     1       1.080   9.653  18.148  0.00  0.00    +0.000 C 
ATOM      6  C   UNL     1      -0.326  10.231  18.319  0.00  0.00    +0.000 C 
ENDROOT
BRANCH   1  13
ATOM      7  C   UNL     1       1.843  12.765  19.749  0.00  0.00    +0.000 C 
ATOM      8  C   UNL     1       0.716  12.512  20.765  0.00  0.00    +0.000 C 
ATOM      9  C   UNL     1       0.652  13.796  21.643  0.00  0.00    +0.000 C 
ATOM     10  O   UNL     1      -0.521  13.858  22.451  0.00  0.00    +0.000 OA
ATOM     11  C   UNL     1      -1.656  13.880  21.585  0.00  0.00    +0.000 C 
ATOM     12  C   UNL     1      -1.758  12.549  20.845  0.00  0.00    +0.000 C 
ATOM     13  N   UNL     1      -0.546  12.114  20.095  0.00  0.00    +0.000 NA
ENDBRANCH   1  13
BRANCH   4  14
ATOM     14  C   UNL     1       2.258   7.655  18.858  0.00  0.00    +0.000 A 
ATOM     15  C   UNL     1       2.410   6.572  19.738  0.00  0.00    +0.000 A 
ATOM     16  C   UNL     1       3.385   5.593  19.531  0.00  0.00    +0.000 A 
ATOM     17  C   UNL     1       4.213   5.691  18.417  0.00  0.00    +0.000 A 
ATOM     18  C   UNL     1       4.095   6.759  17.526  0.00  0.00    +0.000 A 
ATOM     19  C   UNL     1       3.116   7.733  17.754  0.00  0.00    +0.000 A 
BRANCH  17  20
ATOM     20  S   UNL     1       5.457   4.450  18.153  0.00  0.00    +0.000 S 
ATOM     21  O   UNL     1       5.544   3.660  19.370  0.00  0.00    +0.000 OA
ATOM     22  O   UNL     1       5.143   3.791  16.894  0.00  0.00    +0.000 OA
BRANCH  20  23
ATOM     23  C   UNL     1       6.947   5.434  17.960  0.00  0.00    +0.000 C 
ATOM     24  F   UNL     1       7.216   6.203  19.056  0.00  0.00    +0.000 F 
ATOM     25  F   UNL     1       8.059   4.671  17.754  0.00  0.00    +0.000 F 
ENDBRANCH  20  23
ENDBRANCH  17  20
ENDBRANCH   4  14
TORSDOF 4
ENDMDL
MODEL 4
REMARK VINA RESULT:      -7.2      2.753      3.438
REMARK  Name = 
REMARK  5 active torsions:
REMARK  status: ('A' for Active; 'I' for Inactive)
REMARK    1  A    between atoms: C_1  and  C_2
REMARK    2  A    between atoms: N_7  and  C_8
REMARK    3  A    between atoms: N_11  and  C_12
REMARK    4  A    between atoms: C_15  and  S_16
REMARK    5  A    between atoms: S_16  and  C_19
REMARK                            x       y       z     vdW  Elec       q    Type
REMARK                         _______ _______ _______ _____ _____    ______ ____
ROOT
ATOM      1  C   UNL     1      -0.677  10.640  20.012  0.00  0.00    +0.000 C 
ATOM      2  C   UNL     1      -0.233   9.447  20.900  0.00  0.00    +0.000 C 
ATOM      3  C   UNL     1       1.195   8.971  20.671  0.00  0.00    +0.000 C 
ATOM      4  N   UNL     1       1.352   8.693  19.250  0.00  0.00    +0.000 N 
ATOM      5  C   UNL     1       1.204   9.872  18.391  0.00  0.00    +0.000 C 
ATOM      6  C   UNL     1      -0.205  10.443  18.553  0.00  0.00    +0.000 C 
ENDROOT
BRANCH   1  13
ATOM      7  C   UNL     1      -1.329  11.978  22.961  0.00  0.00    +0.000 C 
ATOM      8  C   UNL     1      -1.600  12.462  21.526  0.00  0.00    +0.000 C 
ATOM      9  C   UNL     1      -1.822  13.999  21.640  0.00  0.00    +0.000 C 
ATOM     10  O   UNL     1      -1.801  14.658  20.377  0.00  0.00    +0.000 OA
ATOM     11  C   UNL     1      -0.515  14.458  19.792  0.00  0.00    +0.000 C 
ATOM     12  C   UNL     1      -0.326  12.978  19.467  0.00  0.00    +0.000 C 
ATOM     13  N   UNL     1      -0.536  12.022  20.590  0.00  0.00    +0.000 NA
ENDBRANCH   1  13
BRANCH   4  14
ATOM     14  C   UNL     1       2.310   7.762  18.850  0.00  0.00    +0.000 A 
ATOM     15  C   UNL     1       2.522   6.638  19.664  0.00  0.00    +0.000 A 
ATOM     16  C   UNL     1       3.512   5.698  19.369  0.00  0.00    +0.000 A 
ATOM     17  C   UNL     1       4.295   5.878  18.233  0.00  0.00    +0.000 A 
ATOM     18  C   UNL     1       4.118   6.987  17.406  0.00  0.00    +0.000 A 
ATOM     19  C   UNL     1       3.124   7.921  17.721  0.00  0.00    +0.000 A 
BRANCH  17  20
ATOM     20  S   UNL     1       5.559   4.685  17.858  0.00  0.00    +0.000 S 
ATOM     21  O   UNL     1       6.013   4.125  19.120  0.00  0.00    +0.000 OA
ATOM     22  O   UNL     1       5.021   3.800  16.835  0.00  0.00    +0.000 OA
BRANCH  20  23
ATOM     23  C   UNL     1       6.853   5.709  17.148  0.00  0.00    +0.000 C 
ATOM     24  F   UNL     1       7.935   5.836  17.970  0.00  0.00    +0.000 F 
ATOM     25  F   UNL     1       7.332   5.210  15.971  0.00  0.00    +0.000 F 
ENDBRANCH  20  23
ENDBRANCH  17  20
ENDBRANCH   4  14
TORSDOF 4
ENDMDL
MODEL 5
REMARK VINA RESULT:      -7.2      2.806      3.555
REMARK  Name = 
REMARK  5 active torsions:
REMARK  status: ('A' for Active; 'I' for Inactive)
REMARK    1  A    between atoms: C_1  and  C_2
REMARK    2  A    between atoms: N_7  and  C_8
REMARK    3  A    between atoms: N_11  and  C_12
REMARK    4  A    between atoms: C_15  and  S_16
REMARK    5  A    between atoms: S_16  and  C_19
REMARK                            x       y       z     vdW  Elec       q    Type
REMARK                         _______ _______ _______ _____ _____    ______ ____
ROOT
ATOM      1  C   UNL     1      -0.654  10.408  20.021  0.00  0.00    +0.000 C 
ATOM      2  C   UNL     1      -0.214   9.227  20.927  0.00  0.00    +0.000 C 
ATOM      3  C   UNL     1       1.230   8.781  20.747  0.00  0.00    +0.000 C 
ATOM      4  N   UNL     1       1.439   8.502  19.332  0.00  0.00    +0.000 N 
ATOM      5  C   UNL     1       1.294   9.674  18.464  0.00  0.00    +0.000 C 
ATOM      6  C   UNL     1      -0.131  10.216  18.579  0.00  0.00    +0.000 C 
ENDROOT
BRANCH   1  13
ATOM      7  C   UNL     1      -1.357  11.727  22.966  0.00  0.00    +0.000 C 
ATOM      8  C   UNL     1      -1.641  12.200  21.529  0.00  0.00    +0.000 C 
ATOM      9  C   UNL     1      -1.915  13.728  21.641  0.00  0.00    +0.000 C 
ATOM     10  O   UNL     1      -1.914  14.386  20.377  0.00  0.00    +0.000 OA
ATOM     11  C   UNL     1      -0.620  14.229  19.795  0.00  0.00    +0.000 C 
ATOM     12  C   UNL     1      -0.381  12.756  19.472  0.00  0.00    +0.000 C 
ATOM     13  N   UNL     1      -0.561  11.794  20.596  0.00  0.00    +0.000 NA
ENDBRANCH   1  13
BRANCH   4  14
ATOM     14  C   UNL     1       2.428   7.589  18.967  0.00  0.00    +0.000 A 
ATOM     15  C   UNL     1       3.178   7.852  17.810  0.00  0.00    +0.000 A 
ATOM     16  C   UNL     1       4.137   6.952  17.340  0.00  0.00    +0.000 A 
ATOM     17  C   UNL     1       4.360   5.774  18.047  0.00  0.00    +0.000 A 
ATOM     18  C   UNL     1       3.627   5.477  19.197  0.00  0.00    +0.000 A 
ATOM     19  C   UNL     1       2.667   6.389  19.649  0.00  0.00    +0.000 A 
BRANCH  17  20
ATOM     20  S   UNL     1       5.576   4.625  17.449  0.00  0.00    +0.000 S 
ATOM     21  O   UNL     1       6.456   4.308  18.563  0.00  0.00    +0.000 OA
ATOM     22  O   UNL     1       4.858   3.551  16.779  0.00  0.00    +0.000 OA
BRANCH  20  23
ATOM     23  C   UNL     1       6.465   5.604  16.233  0.00  0.00    +0.000 C 
ATOM     24  F   UNL     1       7.433   6.388  16.793  0.00  0.00    +0.000 F 
ATOM     25  F   UNL     1       7.097   4.836  15.299  0.00  0.00    +0.000 F 
ENDBRANCH  20  23
ENDBRANCH  17  20
ENDBRANCH   4  14
TORSDOF 4
ENDMDL
MODEL 6
REMARK VINA RESULT:      -7.2      1.899      2.908
REMARK  Name = 
REMARK  5 active torsions:
REMARK  status: ('A' for Active; 'I' for Inactive)
REMARK    1  A    between atoms: C_1  and  C_2
REMARK    2  A    between atoms: N_7  and  C_8
REMARK    3  A    between atoms: N_11  and  C_12
REMARK    4  A    between atoms: C_15  and  S_16
REMARK    5  A    between atoms: S_16  and  C_19
REMARK                            x       y       z     vdW  Elec       q    Type
REMARK                         _______ _______ _______ _____ _____    ______ ____
ROOT
ATOM      1  C   UNL     1      -0.395  10.979  19.933  0.00  0.00    +0.000 C 
ATOM      2  C   UNL     1      -0.203  10.005  21.127  0.00  0.00    +0.000 C 
ATOM      3  C   UNL     1       1.103   9.223  21.116  0.00  0.00    +0.000 C 
ATOM      4  N   UNL     1       1.211   8.550  19.828  0.00  0.00    +0.000 N 
ATOM      5  C   UNL     1       1.306   9.461  18.683  0.00  0.00    +0.000 C 
ATOM      6  C   UNL     1       0.038  10.312  18.607  0.00  0.00    +0.000 C 
ENDROOT
BRANCH   1  13
ATOM      7  C   UNL     1       1.801  12.973  18.481  0.00  0.00    +0.000 C 
ATOM      8  C   UNL     1       1.452  12.723  19.959  0.00  0.00    +0.000 C 
ATOM      9  C   UNL     1       1.986  13.968  20.727  0.00  0.00    +0.000 C 
ATOM     10  O   UNL     1       1.500  14.045  22.064  0.00  0.00    +0.000 OA
ATOM     11  C   UNL     1       0.078  14.156  22.014  0.00  0.00    +0.000 C 
ATOM     12  C   UNL     1      -0.515  12.865  21.454  0.00  0.00    +0.000 C 
ATOM     13  N   UNL     1       0.013  12.412  20.137  0.00  0.00    +0.000 NA
ENDBRANCH   1  13
BRANCH   4  14
ATOM     14  C   UNL     1       1.967   7.382  19.743  0.00  0.00    +0.000 A 
ATOM     15  C   UNL     1       2.885   7.262  18.688  0.00  0.00    +0.000 A 
ATOM     16  C   UNL     1       3.628   6.094  18.494  0.00  0.00    +0.000 A 
ATOM     17  C   UNL     1       3.458   5.033  19.378  0.00  0.00    +0.000 A 
ATOM     18  C   UNL     1       2.548   5.114  20.433  0.00  0.00    +0.000 A 
ATOM     19  C   UNL     1       1.810   6.291  20.608  0.00  0.00    +0.000 A 
BRANCH  17  20
ATOM     20  S   UNL     1       4.398   3.545  19.131  0.00  0.00    +0.000 S 
ATOM     21  O   UNL     1       5.797   3.928  19.033  0.00  0.00    +0.000 OA
ATOM     22  O   UNL     1       3.985   2.602  20.161  0.00  0.00    +0.000 OA
BRANCH  20  23
ATOM     23  C   UNL     1       3.810   2.981  17.530  0.00  0.00    +0.000 C 
ATOM     24  F   UNL     1       2.458   3.115  17.388  0.00  0.00    +0.000 F 
ATOM     25  F   UNL     1       4.367   3.670  16.492  0.00  0.00    +0.000 F 
ENDBRANCH  20  23
ENDBRANCH  17  20
ENDBRANCH   4  14
TORSDOF 4
ENDMDL
MODEL 7
REMARK VINA RESULT:      -7.2      1.765      2.353
REMARK  Name = 
REMARK  5 active torsions:
REMARK  status: ('A' for Active; 'I' for Inactive)
REMARK    1  A    between atoms: C_1  and  C_2
REMARK    2  A    between atoms: N_7  and  C_8
REMARK    3  A    between atoms: N_11  and  C_12
REMARK    4  A    between atoms: C_15  and  S_16
REMARK    5  A    between atoms: S_16  and  C_19
REMARK                            x       y       z     vdW  Elec       q    Type
REMARK                         _______ _______ _______ _____ _____    ______ ____
ROOT
ATOM      1  C   UNL     1       0.323  11.010  21.088  0.00  0.00    +0.000 C 
ATOM      2  C   UNL     1       0.791  10.866  19.614  0.00  0.00    +0.000 C 
ATOM      3  C   UNL     1       0.784   9.443  19.073  0.00  0.00    +0.000 C 
ATOM      4  N   UNL     1       1.560   8.614  19.986  0.00  0.00    +0.000 N 
ATOM      5  C   UNL     1       0.989   8.509  21.331  0.00  0.00    +0.000 C 
ATOM      6  C   UNL     1       0.937   9.898  21.969  0.00  0.00    +0.000 C 
ENDROOT
BRANCH   1  13
ATOM      7  C   UNL     1      -2.152  12.018  19.147  0.00  0.00    +0.000 C 
ATOM      8  C   UNL     1      -1.684  12.470  20.542  0.00  0.00    +0.000 C 
ATOM      9  C   UNL     1      -2.904  13.205  21.172  0.00  0.00    +0.000 C 
ATOM     10  O   UNL     1      -2.749  13.440  22.568  0.00  0.00    +0.000 OA
ATOM     11  C   UNL     1      -2.632  12.176  23.222  0.00  0.00    +0.000 C 
ATOM     12  C   UNL     1      -1.334  11.497  22.791  0.00  0.00    +0.000 C 
ATOM     13  N   UNL     1      -1.125  11.341  21.324  0.00  0.00    +0.000 NA
ENDBRANCH   1  13
BRANCH   4  14
ATOM     14  C   UNL     1       2.171   7.462  19.490  0.00  0.00    +0.000 A 
ATOM     15  C   UNL     1       2.114   6.295  20.267  0.00  0.00    +0.000 A 
ATOM     16  C   UNL     1       2.762   5.121  19.873  0.00  0.00    +0.000 A 
ATOM     17  C   UNL     1       3.469   5.112  18.674  0.00  0.00    +0.000 A 
ATOM     18  C   UNL     1       3.554   6.256  17.881  0.00  0.00    +0.000 A 
ATOM     19  C   UNL     1       2.902   7.424  18.295  0.00  0.00    +0.000 A 
BRANCH  17  20
ATOM     20  S   UNL     1       4.298   3.622  18.172  0.00  0.00    +0.000 S 
ATOM     21  O   UNL     1       4.611   3.757  16.759  0.00  0.00    +0.000 OA
ATOM     22  O   UNL     1       5.375   3.390  19.124  0.00  0.00    +0.000 OA
BRANCH  20  23
ATOM     23  C   UNL     1       3.021   2.379  18.395  0.00  0.00    +0.000 C 
ATOM     24  F   UNL     1       2.024   2.475  17.467  0.00  0.00    +0.000 F 
ATOM     25  F   UNL     1       3.503   1.106  18.298  0.00  0.00    +0.000 F 
ENDBRANCH  20  23
ENDBRANCH  17  20
ENDBRANCH   4  14
TORSDOF 4
ENDMDL
MODEL 8
REMARK VINA RESULT:      -7.2      2.002      2.783
REMARK  Name = 
REMARK  5 active torsions:
REMARK  status: ('A' for Active; 'I' for Inactive)
REMARK    1  A    between atoms: C_1  and  C_2
REMARK    2  A    between atoms: N_7  and  C_8
REMARK    3  A    between atoms: N_11  and  C_12
REMARK    4  A    between atoms: C_15  and  S_16
REMARK    5  A    between atoms: S_16  and  C_19
REMARK                            x       y       z     vdW  Elec       q    Type
REMARK                         _______ _______ _______ _____ _____    ______ ____
ROOT
ATOM      1  C   UNL     1      -0.195  10.795  20.875  0.00  0.00    +0.000 C 
ATOM      2  C   UNL     1      -0.043   9.485  21.693  0.00  0.00    +0.000 C 
ATOM      3  C   UNL     1       1.232   8.700  21.422  0.00  0.00    +0.000 C 
ATOM      4  N   UNL     1       1.320   8.470  19.986  0.00  0.00    +0.000 N 
ATOM      5  C   UNL     1       1.453   9.695  19.192  0.00  0.00    +0.000 C 
ATOM      6  C   UNL     1       0.218  10.572  19.402  0.00  0.00    +0.000 C 
ENDROOT
BRANCH   1  13
ATOM      7  C   UNL     1      -1.434  12.765  23.218  0.00  0.00    +0.000 C 
ATOM      8  C   UNL     1      -0.784  13.064  21.856  0.00  0.00    +0.000 C 
ATOM      9  C   UNL     1      -0.326  14.550  21.932  0.00  0.00    +0.000 C 
ATOM     10  O   UNL     1       0.549  14.916  20.870  0.00  0.00    +0.000 OA
ATOM     11  C   UNL     1       1.722  14.107  20.962  0.00  0.00    +0.000 C 
ATOM     12  C   UNL     1       1.359  12.650  20.688  0.00  0.00    +0.000 C 
ATOM     13  N   UNL     1       0.267  12.072  21.521  0.00  0.00    +0.000 NA
ENDBRANCH   1  13
BRANCH   4  14
ATOM     14  C   UNL     1       2.032   7.363  19.526  0.00  0.00    +0.000 A 
ATOM     15  C   UNL     1       2.048   6.208  20.324  0.00  0.00    +0.000 A 
ATOM     16  C   UNL     1       2.796   5.083  19.967  0.00  0.00    +0.000 A 
ATOM     17  C   UNL     1       3.531   5.110  18.785  0.00  0.00    +0.000 A 
ATOM     18  C   UNL     1       3.544   6.244  17.972  0.00  0.00    +0.000 A 
ATOM     19  C   UNL     1       2.792   7.362  18.350  0.00  0.00    +0.000 A 
BRANCH  17  20
ATOM     20  S   UNL     1       4.487   3.682  18.330  0.00  0.00    +0.000 S 
ATOM     21  O   UNL     1       5.071   3.951  17.026  0.00  0.00    +0.000 OA
ATOM     22  O   UNL     1       5.358   3.375  19.454  0.00  0.00    +0.000 OA
BRANCH  20  23
ATOM     23  C   UNL     1       3.228   2.409  18.180  0.00  0.00    +0.000 C 
ATOM     24  F   UNL     1       2.357   2.648  17.156  0.00  0.00    +0.000 F 
ATOM     25  F   UNL     1       3.756   1.173  17.944  0.00  0.00    +0.000 F 
ENDBRANCH  20  23
ENDBRANCH  17  20
ENDBRANCH   4  14
TORSDOF 4
ENDMDL
MODEL 9
REMARK VINA RESULT:      -7.2      1.760      2.394
REMARK  Name = 
REMARK  5 active torsions:
REMARK  status: ('A' for Active; 'I' for Inactive)
REMARK    1  A    between atoms: C_1  and  C_2
REMARK    2  A    between atoms: N_7  and  C_8
REMARK    3  A    between atoms: N_11  and  C_12
REMARK    4  A    between atoms: C_15  and  S_16
REMARK    5  A    between atoms: S_16  and  C_19
REMARK                            x       y       z     vdW  Elec       q    Type
REMARK                         _______ _______ _______ _____ _____    ______ ____
ROOT
ATOM      1  C   UNL     1       0.772  10.850  19.118  0.00  0.00    +0.000 C 
ATOM      2  C   UNL     1       0.385   9.900  20.283  0.00  0.00    +0.000 C 
ATOM      3  C   UNL     1       1.429   8.849  20.631  0.00  0.00    +0.000 C 
ATOM      4  N   UNL     1       1.759   8.124  19.410  0.00  0.00    +0.000 N 
ATOM      5  C   UNL     1       2.385   8.951  18.375  0.00  0.00    +0.000 C 
ATOM      6  C   UNL     1       1.417  10.059  17.957  0.00  0.00    +0.000 C 
ENDROOT
BRANCH   1  13
ATOM      7  C   UNL     1       0.164  13.149  21.410  0.00  0.00    +0.000 C 
ATOM      8  C   UNL     1       0.496  13.249  19.911  0.00  0.00    +0.000 C 
ATOM      9  C   UNL     1       1.007  14.704  19.694  0.00  0.00    +0.000 C 
ATOM     10  O   UNL     1       1.629  14.890  18.426  0.00  0.00    +0.000 OA
ATOM     11  C   UNL     1       2.765  14.028  18.358  0.00  0.00    +0.000 C 
ATOM     12  C   UNL     1       2.302  12.574  18.358  0.00  0.00    +0.000 C 
ATOM     13  N   UNL     1       1.410  12.163  19.479  0.00  0.00    +0.000 NA
ENDBRANCH   1  13
BRANCH   4  14
ATOM     14  C   UNL     1       2.228   6.815  19.513  0.00  0.00    +0.000 A 
ATOM     15  C   UNL     1       1.743   6.019  20.563  0.00  0.00    +0.000 A 
ATOM     16  C   UNL     1       2.218   4.722  20.775  0.00  0.00    +0.000 A 
ATOM     17  C   UNL     1       3.184   4.208  19.915  0.00  0.00    +0.000 A 
ATOM     18  C   UNL     1       3.694   4.975  18.867  0.00  0.00    +0.000 A 
ATOM     19  C   UNL     1       3.210   6.273  18.674  0.00  0.00    +0.000 A 
BRANCH  17  20
ATOM     20  S   UNL     1       3.792   2.560  20.186  0.00  0.00    +0.000 S 
ATOM     21  O   UNL     1       5.221   2.577  19.914  0.00  0.00    +0.000 OA
ATOM     22  O   UNL     1       3.319   2.139  21.496  0.00  0.00    +0.000 OA
BRANCH  20  23
ATOM     23  C   UNL     1       2.943   1.623  18.910  0.00  0.00    +0.000 C 
ATOM     24  F   UNL     1       1.644   2.013  18.747  0.00  0.00    +0.000 F 
ATOM     25  F   UNL     1       3.530   1.750  17.685  0.00  0.00    +0.000 F 
ENDBRANCH  20  23
ENDBRANCH  17  20
ENDBRANCH   4  14
TORSDOF 4
ENDMDL
