MODEL 1
REMARK VINA RESULT:      -7.3      0.000      0.000
REMARK  Name = 
REMARK  9 active torsions:
REMARK  status: ('A' for Active; 'I' for Inactive)
REMARK    1  A    between atoms: C_1  and  C_2
REMARK    2  A    between atoms: C_3  and  C_4
REMARK    3  A    between atoms: C_7  and  S_8
REMARK    4  A    between atoms: S_8  and  N_9
REMARK    5  A    between atoms: C_14  and  C_15
REMARK    6  A    between atoms: C_15  and  C_17
REMARK    7  A    between atoms: C_17  and  C_18
REMARK    8  A    between atoms: N_21  and  C_22
REMARK    9  A    between atoms: C_23  and  C_24
REMARK                            x       y       z     vdW  Elec       q    Type
REMARK                         _______ _______ _______ _____ _____    ______ ____
ROOT
ATOM      1  C   UNL     1       0.285   9.736  23.075  0.00  0.00    +0.000 C 
ATOM      2  C   UNL     1      -0.211  10.213  21.740  0.00  0.00    +0.000 A 
ATOM      3  C   UNL     1       0.065   9.597  20.455  0.00  0.00    +0.000 A 
ATOM      4  C   UNL     1      -0.687  10.278  19.480  0.00  0.00    +0.000 A 
ATOM      5  N   UNL     1      -1.243  11.385  20.151  0.00  0.00    +0.000 N 
ATOM      6  C   UNL     1      -1.941  12.484  19.499  0.00  0.00    +0.000 C 
ATOM      7  C   UNL     1      -1.032  11.325  21.531  0.00  0.00    +0.000 A 
ENDROOT
BRANCH   7   8
ATOM      8  C   UNL     1      -1.562  12.307  22.532  0.00  0.00    +0.000 A 
ATOM      9  C   UNL     1      -2.800  12.147  23.177  0.00  0.00    +0.000 A 
ATOM     10  C   UNL     1      -3.297  13.107  24.075  0.00  0.00    +0.000 A 
ATOM     11  C   UNL     1      -2.519  14.206  24.418  0.00  0.00    +0.000 A 
ATOM     12 CL   UNL     1      -3.105  15.364  25.546  0.00  0.00    +0.000 Cl
ATOM     13  C   UNL     1      -1.270  14.369  23.843  0.00  0.00    +0.000 A 
ATOM     14  C   UNL     1      -0.823  13.451  22.883  0.00  0.00    +0.000 A 
ENDBRANCH   7   8
BRANCH   3  15
ATOM     15  C   UNL     1       0.949   8.430  20.245  0.00  0.00    +0.000 A 
ATOM     16  C   UNL     1       1.918   8.436  19.232  0.00  0.00    +0.000 A 
ATOM     17  C   UNL     1       2.688   7.294  18.953  0.00  0.00    +0.000 A 
ATOM     18  C   UNL     1       2.588   6.187  19.789  0.00  0.00    +0.000 A 
ATOM     19  C   UNL     1       1.669   6.178  20.835  0.00  0.00    +0.000 A 
ATOM     20  C   UNL     1       0.798   7.261  21.002  0.00  0.00    +0.000 A 
BRANCH  18  21
ATOM     21  S   UNL     1       3.595   4.766  19.477  0.00  0.00    +0.000 S 
ATOM     22  O   UNL     1       4.985   5.148  19.490  0.00  0.00    +0.000 OA
ATOM     23  O   UNL     1       3.084   3.659  20.248  0.00  0.00    +0.000 OA
BRANCH  21  24
ATOM     24  N   UNL     1       3.233   4.430  17.866  0.00  0.00    +0.000 NA
ATOM     25  H   UNL     1       4.046   4.030  17.405  0.00  0.00    +0.000 HD
ATOM     26  H   UNL     1       2.403   3.826  17.826  0.00  0.00    +0.000 HD
ENDBRANCH  21  24
ENDBRANCH  18  21
ENDBRANCH   3  15
BRANCH   4  27
ATOM     27  C   UNL     1      -0.957  10.017  18.035  0.00  0.00    +0.000 C 
ATOM     28  O   UNL     1      -0.036   9.820  17.233  0.00  0.00    +0.000 OA
BRANCH  27  29
ATOM     29  C   UNL     1      -2.377   9.950  17.477  0.00  0.00    +0.000 C 
BRANCH  29  30
ATOM     30  C   UNL     1      -2.615  10.747  16.224  0.00  0.00    +0.000 C 
ATOM     31  C   UNL     1      -3.050  10.037  14.963  0.00  0.00    +0.000 C 
ATOM     32  C   UNL     1      -4.022  10.905  15.709  0.00  0.00    +0.000 C 
ENDBRANCH  29  30
ENDBRANCH  27  29
ENDBRANCH   4  27
TORSDOF 7
ENDMDL
MODEL 2
REMARK VINA RESULT:      -7.3      3.169      5.720
REMARK  Name = 
REMARK  9 active torsions:
REMARK  status: ('A' for Active; 'I' for Inactive)
REMARK    1  A    between atoms: C_1  and  C_2
REMARK    2  A    between atoms: C_3  and  C_4
REMARK    3  A    between atoms: C_7  and  S_8
REMARK    4  A    between atoms: S_8  and  N_9
REMARK    5  A    between atoms: C_14  and  C_15
REMARK    6  A    between atoms: C_15  and  C_17
REMARK    7  A    between atoms: C_17  and  C_18
REMARK    8  A    between atoms: N_21  and  C_22
REMARK    9  A    between atoms: C_23  and  C_24
REMARK                            x       y       z     vdW  Elec       q    Type
REMARK                         _______ _______ _______ _____ _____    ______ ____
ROOT
ATOM      1  C   UNL     1       2.629   9.797  17.815  0.00  0.00    +0.000 C 
ATOM      2  C   UNL     1       2.045   8.787  18.760  0.00  0.00    +0.000 A 
ATOM      3  C   UNL     1       2.445   7.396  18.880  0.00  0.00    +0.000 A 
ATOM      4  C   UNL     1       1.739   6.836  19.961  0.00  0.00    +0.000 A 
ATOM      5  N   UNL     1       0.809   7.823  20.343  0.00  0.00    +0.000 N 
ATOM      6  C   UNL     1      -0.270   7.618  21.298  0.00  0.00    +0.000 C 
ATOM      7  C   UNL     1       1.026   9.036  19.684  0.00  0.00    +0.000 A 
ENDROOT
BRANCH   7   8
ATOM      8  C   UNL     1       0.259  10.301  19.923  0.00  0.00    +0.000 A 
ATOM      9  C   UNL     1      -0.900  10.639  19.205  0.00  0.00    +0.000 A 
ATOM     10  C   UNL     1      -1.574  11.854  19.415  0.00  0.00    +0.000 A 
ATOM     11  C   UNL     1      -1.151  12.720  20.417  0.00  0.00    +0.000 A 
ATOM     12 CL   UNL     1      -1.993  14.191  20.704  0.00  0.00    +0.000 Cl
ATOM     13  C   UNL     1      -0.043  12.395  21.181  0.00  0.00    +0.000 A 
ATOM     14  C   UNL     1       0.671  11.221  20.904  0.00  0.00    +0.000 A 
ENDBRANCH   7   8
BRANCH   3  15
ATOM     15  C   UNL     1       3.455   6.727  18.031  0.00  0.00    +0.000 A 
ATOM     16  C   UNL     1       3.280   5.398  17.621  0.00  0.00    +0.000 A 
ATOM     17  C   UNL     1       4.282   4.718  16.907  0.00  0.00    +0.000 A 
ATOM     18  C   UNL     1       5.403   5.419  16.476  0.00  0.00    +0.000 A 
ATOM     19  C   UNL     1       5.573   6.755  16.827  0.00  0.00    +0.000 A 
ATOM     20  C   UNL     1       4.643   7.374  17.672  0.00  0.00    +0.000 A 
BRANCH  18  21
ATOM     21  S   UNL     1       6.643   4.584  15.530  0.00  0.00    +0.000 S 
ATOM     22  O   UNL     1       6.106   3.348  15.017  0.00  0.00    +0.000 OA
ATOM     23  O   UNL     1       7.313   5.548  14.693  0.00  0.00    +0.000 OA
BRANCH  21  24
ATOM     24  N   UNL     1       7.748   4.137  16.721  0.00  0.00    +0.000 NA
ATOM     25  H   UNL     1       8.343   3.387  16.378  0.00  0.00    +0.000 HD
ATOM     26  H   UNL     1       8.272   4.967  17.022  0.00  0.00    +0.000 HD
ENDBRANCH  21  24
ENDBRANCH  18  21
ENDBRANCH   3  15
BRANCH   4  27
ATOM     27  C   UNL     1       1.837   5.529  20.674  0.00  0.00    +0.000 C 
ATOM     28  O   UNL     1       2.628   5.364  21.611  0.00  0.00    +0.000 OA
BRANCH  27  29
ATOM     29  C   UNL     1       0.953   4.339  20.307  0.00  0.00    +0.000 C 
BRANCH  29  30
ATOM     30  C   UNL     1       1.566   2.985  20.537  0.00  0.00    +0.000 C 
ATOM     31  C   UNL     1       1.729   2.036  19.373  0.00  0.00    +0.000 C 
ATOM     32  C   UNL     1       2.935   2.695  19.978  0.00  0.00    +0.000 C 
ENDBRANCH  29  30
ENDBRANCH  27  29
ENDBRANCH   4  27
TORSDOF 7
ENDMDL
MODEL 3
REMARK VINA RESULT:      -7.3      5.174      9.698
REMARK  Name = 
REMARK  9 active torsions:
REMARK  status: ('A' for Active; 'I' for Inactive)
REMARK    1  A    between atoms: C_1  and  C_2
REMARK    2  A    between atoms: C_3  and  C_4
REMARK    3  A    between atoms: C_7  and  S_8
REMARK    4  A    between atoms: S_8  and  N_9
REMARK    5  A    between atoms: C_14  and  C_15
REMARK    6  A    between atoms: C_15  and  C_17
REMARK    7  A    between atoms: C_17  and  C_18
REMARK    8  A    between atoms: N_21  and  C_22
REMARK    9  A    between atoms: C_23  and  C_24
REMARK                            x       y       z     vdW  Elec       q    Type
REMARK                         _______ _______ _______ _____ _____    ______ ____
ROOT
ATOM      1  C   UNL     1       3.522   8.232  17.062  0.00  0.00    +0.000 C 
ATOM      2  C   UNL     1       3.466   7.001  17.921  0.00  0.00    +0.000 A 
ATOM      3  C   UNL     1       2.695   6.842  19.140  0.00  0.00    +0.000 A 
ATOM      4  C   UNL     1       2.823   5.506  19.561  0.00  0.00    +0.000 A 
ATOM      5  N   UNL     1       3.798   4.945  18.712  0.00  0.00    +0.000 N 
ATOM      6  C   UNL     1       4.400   3.633  18.897  0.00  0.00    +0.000 C 
ATOM      7  C   UNL     1       4.144   5.805  17.667  0.00  0.00    +0.000 A 
ENDROOT
BRANCH   7   8
ATOM      8  C   UNL     1       5.093   5.477  16.554  0.00  0.00    +0.000 A 
ATOM      9  C   UNL     1       6.431   5.905  16.540  0.00  0.00    +0.000 A 
ATOM     10  C   UNL     1       7.287   5.626  15.462  0.00  0.00    +0.000 A 
ATOM     11  C   UNL     1       6.846   4.830  14.411  0.00  0.00    +0.000 A 
ATOM     12 CL   UNL     1       7.900   4.452  13.107  0.00  0.00    +0.000 Cl
ATOM     13  C   UNL     1       5.549   4.345  14.417  0.00  0.00    +0.000 A 
ATOM     14  C   UNL     1       4.679   4.702  15.455  0.00  0.00    +0.000 A 
ENDBRANCH   7   8
BRANCH   3  15
ATOM     15  C   UNL     1       1.889   7.905  19.779  0.00  0.00    +0.000 A 
ATOM     16  C   UNL     1       1.388   8.976  19.026  0.00  0.00    +0.000 A 
ATOM     17  C   UNL     1       0.714  10.046  19.639  0.00  0.00    +0.000 A 
ATOM     18  C   UNL     1       0.415   9.972  20.995  0.00  0.00    +0.000 A 
ATOM     19  C   UNL     1       0.857   8.892  21.754  0.00  0.00    +0.000 A 
ATOM     20  C   UNL     1       1.662   7.912  21.161  0.00  0.00    +0.000 A 
BRANCH  18  21
ATOM     21  S   UNL     1      -0.481  11.291  21.764  0.00  0.00    +0.000 S 
ATOM     22  O   UNL     1       0.407  12.400  22.006  0.00  0.00    +0.000 OA
ATOM     23  O   UNL     1      -1.749  11.440  21.094  0.00  0.00    +0.000 OA
BRANCH  21  24
ATOM     24  N   UNL     1      -0.819  10.642  23.283  0.00  0.00    +0.000 NA
ATOM     25  H   UNL     1      -0.984  11.392  23.950  0.00  0.00    +0.000 HD
ATOM     26  H   UNL     1      -1.605   9.987  23.201  0.00  0.00    +0.000 HD
ENDBRANCH  21  24
ENDBRANCH  18  21
ENDBRANCH   3  15
BRANCH   4  27
ATOM     27  C   UNL     1       2.149   4.703  20.623  0.00  0.00    +0.000 C 
ATOM     28  O   UNL     1       2.705   4.467  21.703  0.00  0.00    +0.000 OA
BRANCH  27  29
ATOM     29  C   UNL     1       0.733   4.156  20.449  0.00  0.00    +0.000 C 
BRANCH  29  30
ATOM     30  C   UNL     1       0.645   2.697  20.097  0.00  0.00    +0.000 C 
ATOM     31  C   UNL     1       0.684   2.278  18.646  0.00  0.00    +0.000 C 
ATOM     32  C   UNL     1       1.859   2.001  19.539  0.00  0.00    +0.000 C 
ENDBRANCH  29  30
ENDBRANCH  27  29
ENDBRANCH   4  27
TORSDOF 7
ENDMDL
MODEL 4
REMARK VINA RESULT:      -7.3      5.171      9.664
REMARK  Name = 
REMARK  9 active torsions:
REMARK  status: ('A' for Active; 'I' for Inactive)
REMARK    1  A    between atoms: C_1  and  C_2
REMARK    2  A    between atoms: C_3  and  C_4
REMARK    3  A    between atoms: C_7  and  S_8
REMARK    4  A    between atoms: S_8  and  N_9
REMARK    5  A    between atoms: C_14  and  C_15
REMARK    6  A    between atoms: C_15  and  C_17
REMARK    7  A    between atoms: C_17  and  C_18
REMARK    8  A    between atoms: N_21  and  C_22
REMARK    9  A    between atoms: C_23  and  C_24
REMARK                            x       y       z     vdW  Elec       q    Type
REMARK                         _______ _______ _______ _____ _____    ______ ____
ROOT
ATOM      1  C   UNL     1       3.484   8.199  17.090  0.00  0.00    +0.000 C 
ATOM      2  C   UNL     1       3.443   6.963  17.943  0.00  0.00    +0.000 A 
ATOM      3  C   UNL     1       2.692   6.796  19.174  0.00  0.00    +0.000 A 
ATOM      4  C   UNL     1       2.828   5.458  19.585  0.00  0.00    +0.000 A 
ATOM      5  N   UNL     1       3.790   4.903  18.718  0.00  0.00    +0.000 N 
ATOM      6  C   UNL     1       4.396   3.590  18.885  0.00  0.00    +0.000 C 
ATOM      7  C   UNL     1       4.118   5.769  17.672  0.00  0.00    +0.000 A 
ENDROOT
BRANCH   7   8
ATOM      8  C   UNL     1       5.049   5.449  16.542  0.00  0.00    +0.000 A 
ATOM      9  C   UNL     1       4.664   4.682  15.429  0.00  0.00    +0.000 A 
ATOM     10  C   UNL     1       5.569   4.354  14.406  0.00  0.00    +0.000 A 
ATOM     11  C   UNL     1       6.861   4.867  14.429  0.00  0.00    +0.000 A 
ATOM     12 CL   UNL     1       7.962   4.501  13.161  0.00  0.00    +0.000 Cl
ATOM     13  C   UNL     1       7.260   5.670  15.484  0.00  0.00    +0.000 A 
ATOM     14  C   UNL     1       6.375   5.918  16.542  0.00  0.00    +0.000 A 
ENDBRANCH   7   8
BRANCH   3  15
ATOM     15  C   UNL     1       1.894   7.855  19.831  0.00  0.00    +0.000 A 
ATOM     16  C   UNL     1       1.392   8.937  19.095  0.00  0.00    +0.000 A 
ATOM     17  C   UNL     1       0.728  10.002  19.726  0.00  0.00    +0.000 A 
ATOM     18  C   UNL     1       0.438   9.913  21.083  0.00  0.00    +0.000 A 
ATOM     19  C   UNL     1       0.881   8.822  21.825  0.00  0.00    +0.000 A 
ATOM     20  C   UNL     1       1.678   7.845  21.215  0.00  0.00    +0.000 A 
BRANCH  18  21
ATOM     21  S   UNL     1      -0.447  11.225  21.874  0.00  0.00    +0.000 S 
ATOM     22  O   UNL     1      -1.610  11.563  21.091  0.00  0.00    +0.000 OA
ATOM     23  O   UNL     1      -0.513  10.952  23.288  0.00  0.00    +0.000 OA
BRANCH  21  24
ATOM     24  N   UNL     1       0.614  12.522  21.689  0.00  0.00    +0.000 NA
ATOM     25  H   UNL     1       1.213  12.599  22.507  0.00  0.00    +0.000 HD
ATOM     26  H   UNL     1       1.136  12.407  20.812  0.00  0.00    +0.000 HD
ENDBRANCH  21  24
ENDBRANCH  18  21
ENDBRANCH   3  15
BRANCH   4  27
ATOM     27  C   UNL     1       2.171   4.649  20.653  0.00  0.00    +0.000 C 
ATOM     28  O   UNL     1       2.756   4.381  21.710  0.00  0.00    +0.000 OA
BRANCH  27  29
ATOM     29  C   UNL     1       0.740   4.133  20.514  0.00  0.00    +0.000 C 
BRANCH  29  30
ATOM     30  C   UNL     1       0.611   2.708  20.052  0.00  0.00    +0.000 C 
ATOM     31  C   UNL     1       0.828   2.376  18.595  0.00  0.00    +0.000 C 
ATOM     32  C   UNL     1       1.846   1.962  19.618  0.00  0.00    +0.000 C 
ENDBRANCH  29  30
ENDBRANCH  27  29
ENDBRANCH   4  27
TORSDOF 7
ENDMDL
MODEL 5
REMARK VINA RESULT:      -7.3      4.734      7.960
REMARK  Name = 
REMARK  9 active torsions:
REMARK  status: ('A' for Active; 'I' for Inactive)
REMARK    1  A    between atoms: C_1  and  C_2
REMARK    2  A    between atoms: C_3  and  C_4
REMARK    3  A    between atoms: C_7  and  S_8
REMARK    4  A    between atoms: S_8  and  N_9
REMARK    5  A    between atoms: C_14  and  C_15
REMARK    6  A    between atoms: C_15  and  C_17
REMARK    7  A    between atoms: C_17  and  C_18
REMARK    8  A    between atoms: N_21  and  C_22
REMARK    9  A    between atoms: C_23  and  C_24
REMARK                            x       y       z     vdW  Elec       q    Type
REMARK                         _______ _______ _______ _____ _____    ______ ____
ROOT
ATOM      1  C   UNL     1       0.989   9.214  22.730  0.00  0.00    +0.000 C 
ATOM      2  C   UNL     1       0.709   9.652  21.321  0.00  0.00    +0.000 A 
ATOM      3  C   UNL     1       0.033  10.873  20.922  0.00  0.00    +0.000 A 
ATOM      4  C   UNL     1       0.089  10.960  19.519  0.00  0.00    +0.000 A 
ATOM      5  N   UNL     1       0.619   9.724  19.096  0.00  0.00    +0.000 N 
ATOM      6  C   UNL     1       0.679   9.281  17.711  0.00  0.00    +0.000 C 
ATOM      7  C   UNL     1       1.071   8.950  20.167  0.00  0.00    +0.000 A 
ENDROOT
BRANCH   7   8
ATOM      8  C   UNL     1       1.755   7.622  20.048  0.00  0.00    +0.000 A 
ATOM      9  C   UNL     1       2.821   7.388  19.162  0.00  0.00    +0.000 A 
ATOM     10  C   UNL     1       3.414   6.121  19.034  0.00  0.00    +0.000 A 
ATOM     11  C   UNL     1       3.012   5.079  19.860  0.00  0.00    +0.000 A 
ATOM     12 CL   UNL     1       3.759   3.535  19.735  0.00  0.00    +0.000 Cl
ATOM     13  C   UNL     1       2.001   5.286  20.783  0.00  0.00    +0.000 A 
ATOM     14  C   UNL     1       1.358   6.530  20.841  0.00  0.00    +0.000 A 
ENDBRANCH   7   8
BRANCH   3  15
ATOM     15  C   UNL     1      -0.559  11.858  21.854  0.00  0.00    +0.000 A 
ATOM     16  C   UNL     1      -1.664  11.521  22.648  0.00  0.00    +0.000 A 
ATOM     17  C   UNL     1      -2.301  12.479  23.454  0.00  0.00    +0.000 A 
ATOM     18  C   UNL     1      -1.740  13.745  23.577  0.00  0.00    +0.000 A 
ATOM     19  C   UNL     1      -0.611  14.087  22.837  0.00  0.00    +0.000 A 
ATOM     20  C   UNL     1      -0.081  13.173  21.919  0.00  0.00    +0.000 A 
BRANCH  18  21
ATOM     21  S   UNL     1      -2.506  14.940  24.633  0.00  0.00    +0.000 S 
ATOM     22  O   UNL     1      -1.632  15.234  25.742  0.00  0.00    +0.000 OA
ATOM     23  O   UNL     1      -3.098  15.970  23.815  0.00  0.00    +0.000 OA
BRANCH  21  24
ATOM     24  N   UNL     1      -3.785  14.058  25.287  0.00  0.00    +0.000 NA
ATOM     25  H   UNL     1      -3.735  13.092  24.973  0.00  0.00    +0.000 HD
ATOM     26  H   UNL     1      -3.773  14.157  26.309  0.00  0.00    +0.000 HD
ENDBRANCH  21  24
ENDBRANCH  18  21
ENDBRANCH   3  15
BRANCH   4  27
ATOM     27  C   UNL     1      -0.268  12.037  18.550  0.00  0.00    +0.000 C 
ATOM     28  O   UNL     1       0.523  12.949  18.280  0.00  0.00    +0.000 OA
BRANCH  27  29
ATOM     29  C   UNL     1      -1.610  12.056  17.820  0.00  0.00    +0.000 C 
BRANCH  29  30
ATOM     30  C   UNL     1      -2.622  11.057  18.306  0.00  0.00    +0.000 C 
ATOM     31  C   UNL     1      -4.019  11.073  17.730  0.00  0.00    +0.000 C 
ATOM     32  C   UNL     1      -3.075   9.959  17.379  0.00  0.00    +0.000 C 
ENDBRANCH  29  30
ENDBRANCH  27  29
ENDBRANCH   4  27
TORSDOF 7
ENDMDL
MODEL 6
REMARK VINA RESULT:      -7.2      3.166      5.530
REMARK  Name = 
REMARK  9 active torsions:
REMARK  status: ('A' for Active; 'I' for Inactive)
REMARK    1  A    between atoms: C_1  and  C_2
REMARK    2  A    between atoms: C_3  and  C_4
REMARK    3  A    between atoms: C_7  and  S_8
REMARK    4  A    between atoms: S_8  and  N_9
REMARK    5  A    between atoms: C_14  and  C_15
REMARK    6  A    between atoms: C_15  and  C_17
REMARK    7  A    between atoms: C_17  and  C_18
REMARK    8  A    between atoms: N_21  and  C_22
REMARK    9  A    between atoms: C_23  and  C_24
REMARK                            x       y       z     vdW  Elec       q    Type
REMARK                         _______ _______ _______ _____ _____    ______ ____
ROOT
ATOM      1  C   UNL     1       2.806   9.717  17.988  0.00  0.00    +0.000 C 
ATOM      2  C   UNL     1       2.162   8.713  18.900  0.00  0.00    +0.000 A 
ATOM      3  C   UNL     1       2.557   7.325  19.060  0.00  0.00    +0.000 A 
ATOM      4  C   UNL     1       1.782   6.773  20.096  0.00  0.00    +0.000 A 
ATOM      5  N   UNL     1       0.826   7.760  20.407  0.00  0.00    +0.000 N 
ATOM      6  C   UNL     1      -0.314   7.560  21.289  0.00  0.00    +0.000 C 
ATOM      7  C   UNL     1       1.084   8.967  19.752  0.00  0.00    +0.000 A 
ENDROOT
BRANCH   7   8
ATOM      8  C   UNL     1       0.300  10.233  19.929  0.00  0.00    +0.000 A 
ATOM      9  C   UNL     1       0.591  11.178  20.927  0.00  0.00    +0.000 A 
ATOM     10  C   UNL     1      -0.188  12.334  21.103  0.00  0.00    +0.000 A 
ATOM     11  C   UNL     1      -1.225  12.614  20.221  0.00  0.00    +0.000 A 
ATOM     12 CL   UNL     1      -2.159  14.046  20.407  0.00  0.00    +0.000 Cl
ATOM     13  C   UNL     1      -1.507  11.732  19.192  0.00  0.00    +0.000 A 
ATOM     14  C   UNL     1      -0.778  10.540  19.080  0.00  0.00    +0.000 A 
ENDBRANCH   7   8
BRANCH   3  15
ATOM     15  C   UNL     1       3.622   6.651  18.286  0.00  0.00    +0.000 A 
ATOM     16  C   UNL     1       4.479   5.727  18.900  0.00  0.00    +0.000 A 
ATOM     17  C   UNL     1       5.562   5.163  18.203  0.00  0.00    +0.000 A 
ATOM     18  C   UNL     1       5.699   5.416  16.843  0.00  0.00    +0.000 A 
ATOM     19  C   UNL     1       4.827   6.290  16.199  0.00  0.00    +0.000 A 
ATOM     20  C   UNL     1       3.851   6.966  16.941  0.00  0.00    +0.000 A 
BRANCH  18  21
ATOM     21  S   UNL     1       7.028   4.666  15.946  0.00  0.00    +0.000 S 
ATOM     22  O   UNL     1       7.369   5.489  14.812  0.00  0.00    +0.000 OA
ATOM     23  O   UNL     1       8.011   4.191  16.888  0.00  0.00    +0.000 OA
BRANCH  21  24
ATOM     24  N   UNL     1       6.284   3.297  15.303  0.00  0.00    +0.000 NA
ATOM     25  H   UNL     1       5.743   3.551  14.480  0.00  0.00    +0.000 HD
ATOM     26  H   UNL     1       6.998   2.582  15.118  0.00  0.00    +0.000 HD
ENDBRANCH  21  24
ENDBRANCH  18  21
ENDBRANCH   3  15
BRANCH   4  27
ATOM     27  C   UNL     1       1.835   5.472  20.826  0.00  0.00    +0.000 C 
ATOM     28  O   UNL     1       2.551   5.322  21.824  0.00  0.00    +0.000 OA
BRANCH  27  29
ATOM     29  C   UNL     1       0.993   4.271  20.401  0.00  0.00    +0.000 C 
BRANCH  29  30
ATOM     30  C   UNL     1       1.676   3.298  19.481  0.00  0.00    +0.000 C 
ATOM     31  C   UNL     1       0.843   2.354  18.646  0.00  0.00    +0.000 C 
ATOM     32  C   UNL     1       1.566   3.495  17.991  0.00  0.00    +0.000 C 
ENDBRANCH  29  30
ENDBRANCH  27  29
ENDBRANCH   4  27
TORSDOF 7
ENDMDL
MODEL 7
REMARK VINA RESULT:      -7.2      3.206      5.730
REMARK  Name = 
REMARK  9 active torsions:
REMARK  status: ('A' for Active; 'I' for Inactive)
REMARK    1  A    between atoms: C_1  and  C_2
REMARK    2  A    between atoms: C_3  and  C_4
REMARK    3  A    between atoms: C_7  and  S_8
REMARK    4  A    between atoms: S_8  and  N_9
REMARK    5  A    between atoms: C_14  and  C_15
REMARK    6  A    between atoms: C_15  and  C_17
REMARK    7  A    between atoms: C_17  and  C_18
REMARK    8  A    between atoms: N_21  and  C_22
REMARK    9  A    between atoms: C_23  and  C_24
REMARK                            x       y       z     vdW  Elec       q    Type
REMARK                         _______ _______ _______ _____ _____    ______ ____
ROOT
ATOM      1  C   UNL     1       2.696   9.748  17.798  0.00  0.00    +0.000 C 
ATOM      2  C   UNL     1       2.096   8.756  18.753  0.00  0.00    +0.000 A 
ATOM      3  C   UNL     1       2.471   7.360  18.883  0.00  0.00    +0.000 A 
ATOM      4  C   UNL     1       1.760   6.821  19.971  0.00  0.00    +0.000 A 
ATOM      5  N   UNL     1       0.849   7.828  20.349  0.00  0.00    +0.000 N 
ATOM      6  C   UNL     1      -0.230   7.650  21.309  0.00  0.00    +0.000 C 
ATOM      7  C   UNL     1       1.086   9.031  19.679  0.00  0.00    +0.000 A 
ENDROOT
BRANCH   7   8
ATOM      8  C   UNL     1       0.345  10.313  19.912  0.00  0.00    +0.000 A 
ATOM      9  C   UNL     1       0.734  11.256  20.879  0.00  0.00    +0.000 A 
ATOM     10  C   UNL     1      -0.006  12.427  21.111  0.00  0.00    +0.000 A 
ATOM     11  C   UNL     1      -1.105  12.725  20.314  0.00  0.00    +0.000 A 
ATOM     12 CL   UNL     1      -1.992  14.176  20.567  0.00  0.00    +0.000 Cl
ATOM     13  C   UNL     1      -1.487  11.845  19.315  0.00  0.00    +0.000 A 
ATOM     14  C   UNL     1      -0.792  10.639  19.151  0.00  0.00    +0.000 A 
ENDBRANCH   7   8
BRANCH   3  15
ATOM     15  C   UNL     1       3.465   6.665  18.035  0.00  0.00    +0.000 A 
ATOM     16  C   UNL     1       3.251   5.345  17.613  0.00  0.00    +0.000 A 
ATOM     17  C   UNL     1       4.235   4.640  16.900  0.00  0.00    +0.000 A 
ATOM     18  C   UNL     1       5.381   5.307  16.483  0.00  0.00    +0.000 A 
ATOM     19  C   UNL     1       5.591   6.635  16.845  0.00  0.00    +0.000 A 
ATOM     20  C   UNL     1       4.676   7.277  17.689  0.00  0.00    +0.000 A 
BRANCH  18  21
ATOM     21  S   UNL     1       6.600   4.441  15.537  0.00  0.00    +0.000 S 
ATOM     22  O   UNL     1       7.821   4.343  16.298  0.00  0.00    +0.000 OA
ATOM     23  O   UNL     1       5.977   3.298  14.916  0.00  0.00    +0.000 OA
BRANCH  21  24
ATOM     24  N   UNL     1       6.925   5.538  14.299  0.00  0.00    +0.000 NA
ATOM     25  H   UNL     1       6.169   5.526  13.619  0.00  0.00    +0.000 HD
ATOM     26  H   UNL     1       7.092   6.465  14.708  0.00  0.00    +0.000 HD
ENDBRANCH  21  24
ENDBRANCH  18  21
ENDBRANCH   3  15
BRANCH   4  27
ATOM     27  C   UNL     1       1.836   5.518  20.693  0.00  0.00    +0.000 C 
ATOM     28  O   UNL     1       2.614   5.351  21.641  0.00  0.00    +0.000 OA
BRANCH  27  29
ATOM     29  C   UNL     1       0.944   4.334  20.324  0.00  0.00    +0.000 C 
BRANCH  29  30
ATOM     30  C   UNL     1       1.565   2.977  20.506  0.00  0.00    +0.000 C 
ATOM     31  C   UNL     1       1.659   2.039  19.326  0.00  0.00    +0.000 C 
ATOM     32  C   UNL     1       2.899   2.689  19.866  0.00  0.00    +0.000 C 
ENDBRANCH  29  30
ENDBRANCH  27  29
ENDBRANCH   4  27
TORSDOF 7
ENDMDL
MODEL 8
REMARK VINA RESULT:      -7.1      3.199      5.754
REMARK  Name = 
REMARK  9 active torsions:
REMARK  status: ('A' for Active; 'I' for Inactive)
REMARK    1  A    between atoms: C_1  and  C_2
REMARK    2  A    between atoms: C_3  and  C_4
REMARK    3  A    between atoms: C_7  and  S_8
REMARK    4  A    between atoms: S_8  and  N_9
REMARK    5  A    between atoms: C_14  and  C_15
REMARK    6  A    between atoms: C_15  and  C_17
REMARK    7  A    between atoms: C_17  and  C_18
REMARK    8  A    between atoms: N_21  and  C_22
REMARK    9  A    between atoms: C_23  and  C_24
REMARK                            x       y       z     vdW  Elec       q    Type
REMARK                         _______ _______ _______ _____ _____    ______ ____
ROOT
ATOM      1  C   UNL     1       2.724   9.724  17.855  0.00  0.00    +0.000 C 
ATOM      2  C   UNL     1       2.108   8.721  18.789  0.00  0.00    +0.000 A 
ATOM      3  C   UNL     1       2.494   7.328  18.923  0.00  0.00    +0.000 A 
ATOM      4  C   UNL     1       1.758   6.778  19.989  0.00  0.00    +0.000 A 
ATOM      5  N   UNL     1       0.828   7.774  20.346  0.00  0.00    +0.000 N 
ATOM      6  C   UNL     1      -0.276   7.581  21.275  0.00  0.00    +0.000 C 
ATOM      7  C   UNL     1       1.071   8.982  19.688  0.00  0.00    +0.000 A 
ENDROOT
BRANCH   7   8
ATOM      8  C   UNL     1       0.309  10.255  19.905  0.00  0.00    +0.000 A 
ATOM      9  C   UNL     1       0.668  11.203  20.879  0.00  0.00    +0.000 A 
ATOM     10  C   UNL     1      -0.089  12.366  21.095  0.00  0.00    +0.000 A 
ATOM     11  C   UNL     1      -1.176  12.651  20.277  0.00  0.00    +0.000 A 
ATOM     12 CL   UNL     1      -2.085  14.091  20.512  0.00  0.00    +0.000 Cl
ATOM     13  C   UNL     1      -1.527  11.766  19.272  0.00  0.00    +0.000 A 
ATOM     14  C   UNL     1      -0.816  10.567  19.122  0.00  0.00    +0.000 A 
ENDBRANCH   7   8
BRANCH   3  15
ATOM     15  C   UNL     1       3.518   6.647  18.101  0.00  0.00    +0.000 A 
ATOM     16  C   UNL     1       4.714   7.295  17.763  0.00  0.00    +0.000 A 
ATOM     17  C   UNL     1       5.644   6.700  16.893  0.00  0.00    +0.000 A 
ATOM     18  C   UNL     1       5.442   5.390  16.476  0.00  0.00    +0.000 A 
ATOM     19  C   UNL     1       4.285   4.707  16.842  0.00  0.00    +0.000 A 
ATOM     20  C   UNL     1       3.294   5.367  17.578  0.00  0.00    +0.000 A 
BRANCH  18  21
ATOM     21  S   UNL     1       6.636   4.615  15.425  0.00  0.00    +0.000 S 
ATOM     22  O   UNL     1       6.072   3.416  14.856  0.00  0.00    +0.000 OA
ATOM     23  O   UNL     1       7.277   5.629  14.626  0.00  0.00    +0.000 OA
BRANCH  21  24
ATOM     24  N   UNL     1       7.788   4.088  16.537  0.00  0.00    +0.000 NA
ATOM     25  H   UNL     1       8.553   4.756  16.586  0.00  0.00    +0.000 HD
ATOM     26  H   UNL     1       7.331   3.923  17.442  0.00  0.00    +0.000 HD
ENDBRANCH  21  24
ENDBRANCH  18  21
ENDBRANCH   3  15
BRANCH   4  27
ATOM     27  C   UNL     1       1.828   5.472  20.708  0.00  0.00    +0.000 C 
ATOM     28  O   UNL     1       2.614   5.295  21.647  0.00  0.00    +0.000 OA
BRANCH  27  29
ATOM     29  C   UNL     1       0.919   4.299  20.347  0.00  0.00    +0.000 C 
BRANCH  29  30
ATOM     30  C   UNL     1       1.537   2.936  20.491  0.00  0.00    +0.000 C 
ATOM     31  C   UNL     1       1.570   2.006  19.301  0.00  0.00    +0.000 C 
ATOM     32  C   UNL     1       2.839   2.643  19.791  0.00  0.00    +0.000 C 
ENDBRANCH  29  30
ENDBRANCH  27  29
ENDBRANCH   4  27
TORSDOF 7
ENDMDL
MODEL 9
REMARK VINA RESULT:      -7.1      4.758      7.929
REMARK  Name = 
REMARK  9 active torsions:
REMARK  status: ('A' for Active; 'I' for Inactive)
REMARK    1  A    between atoms: C_1  and  C_2
REMARK    2  A    between atoms: C_3  and  C_4
REMARK    3  A    between atoms: C_7  and  S_8
REMARK    4  A    between atoms: S_8  and  N_9
REMARK    5  A    between atoms: C_14  and  C_15
REMARK    6  A    between atoms: C_15  and  C_17
REMARK    7  A    between atoms: C_17  and  C_18
REMARK    8  A    between atoms: N_21  and  C_22
REMARK    9  A    between atoms: C_23  and  C_24
REMARK                            x       y       z     vdW  Elec       q    Type
REMARK                         _______ _______ _______ _____ _____    ______ ____
ROOT
ATOM      1  C   UNL     1       1.125   9.327  22.649  0.00  0.00    +0.000 C 
ATOM      2  C   UNL     1       0.770   9.736  21.248  0.00  0.00    +0.000 A 
ATOM      3  C   UNL     1       0.091  10.959  20.859  0.00  0.00    +0.000 A 
ATOM      4  C   UNL     1       0.066  11.010  19.453  0.00  0.00    +0.000 A 
ATOM      5  N   UNL     1       0.550   9.756  19.031  0.00  0.00    +0.000 N 
ATOM      6  C   UNL     1       0.522   9.279  17.656  0.00  0.00    +0.000 C 
ATOM      7  C   UNL     1       1.052   9.001  20.093  0.00  0.00    +0.000 A 
ENDROOT
BRANCH   7   8
ATOM      8  C   UNL     1       1.707   7.658  19.967  0.00  0.00    +0.000 A 
ATOM      9  C   UNL     1       1.342   6.554  20.756  0.00  0.00    +0.000 A 
ATOM     10  C   UNL     1       2.004   5.319  20.652  0.00  0.00    +0.000 A 
ATOM     11  C   UNL     1       2.989   5.136  19.689  0.00  0.00    +0.000 A 
ATOM     12 CL   UNL     1       3.776   3.616  19.532  0.00  0.00    +0.000 Cl
ATOM     13  C   UNL     1       3.338   6.186  18.858  0.00  0.00    +0.000 A 
ATOM     14  C   UNL     1       2.731   7.438  19.029  0.00  0.00    +0.000 A 
ENDBRANCH   7   8
BRANCH   3  15
ATOM     15  C   UNL     1      -0.430  11.976  21.799  0.00  0.00    +0.000 A 
ATOM     16  C   UNL     1      -1.499  11.680  22.656  0.00  0.00    +0.000 A 
ATOM     17  C   UNL     1      -2.073  12.668  23.474  0.00  0.00    +0.000 A 
ATOM     18  C   UNL     1      -1.478  13.924  23.539  0.00  0.00    +0.000 A 
ATOM     19  C   UNL     1      -0.382  14.225  22.736  0.00  0.00    +0.000 A 
ATOM     20  C   UNL     1       0.079  13.280  21.811  0.00  0.00    +0.000 A 
BRANCH  18  21
ATOM     21  S   UNL     1      -2.162  15.157  24.608  0.00  0.00    +0.000 S 
ATOM     22  O   UNL     1      -2.404  16.365  23.858  0.00  0.00    +0.000 OA
ATOM     23  O   UNL     1      -3.166  14.543  25.441  0.00  0.00    +0.000 OA
BRANCH  21  24
ATOM     24  N   UNL     1      -0.856  15.506  25.616  0.00  0.00    +0.000 NA
ATOM     25  H   UNL     1      -0.245  14.696  25.684  0.00  0.00    +0.000 HD
ATOM     26  H   UNL     1      -0.381  16.348  25.271  0.00  0.00    +0.000 HD
ENDBRANCH  21  24
ENDBRANCH  18  21
ENDBRANCH   3  15
BRANCH   4  27
ATOM     27  C   UNL     1      -0.330  12.070  18.480  0.00  0.00    +0.000 C 
ATOM     28  O   UNL     1       0.419  13.019  18.220  0.00  0.00    +0.000 OA
BRANCH  27  29
ATOM     29  C   UNL     1      -1.662  12.026  17.733  0.00  0.00    +0.000 C 
BRANCH  29  30
ATOM     30  C   UNL     1      -2.715  11.143  18.345  0.00  0.00    +0.000 C 
ATOM     31  C   UNL     1      -4.101  11.114  17.744  0.00  0.00    +0.000 C 
ATOM     32  C   UNL     1      -3.189   9.931  17.586  0.00  0.00    +0.000 C 
ENDBRANCH  29  30
ENDBRANCH  27  29
ENDBRANCH   4  27
TORSDOF 7
ENDMDL
