MODEL 1
REMARK VINA RESULT:      -7.5      0.000      0.000
REMARK  Name = 
REMARK  3 active torsions:
REMARK  status: ('A' for Active; 'I' for Inactive)
REMARK    1  A    between atoms: N_3  and  N_4
REMARK    2  A    between atoms: C_5  and  C_7
REMARK    3  A    between atoms: N_15  and  C_16
REMARK                            x       y       z     vdW  Elec       q    Type
REMARK                         _______ _______ _______ _____ _____    ______ ____
ROOT
ATOM      1  O   UNL     1       7.629   9.605  17.689  0.00  0.00    +0.000 OA
ATOM      2  C   UNL     1       8.526   9.171  18.407  0.00  0.00    +0.000 C 
ATOM      3  N   UNL     1       8.574   7.834  18.775  0.00  0.00    +0.000 N 
ATOM      4  N   UNL     1       9.607   9.872  18.895  0.00  0.00    +0.000 N 
ATOM      5  H   UNL     1       8.935   7.597  19.697  0.00  0.00    +0.000 HD
ATOM      6  H   UNL     1      10.395   9.308  19.182  0.00  0.00    +0.000 HD
ENDROOT
BRANCH   4   7
ATOM      7  C   UNL     1       9.817  11.262  18.794  0.00  0.00    +0.000 A 
ATOM      8  C   UNL     1       9.359  12.172  19.749  0.00  0.00    +0.000 A 
ATOM      9  C   UNL     1       9.621  13.538  19.612  0.00  0.00    +0.000 A 
ATOM     10  C   UNL     1      10.341  14.005  18.515  0.00  0.00    +0.000 A 
ATOM     11  C   UNL     1      10.801  13.106  17.555  0.00  0.00    +0.000 A 
ATOM     12  C   UNL     1      10.547  11.738  17.698  0.00  0.00    +0.000 A 
ENDBRANCH   4   7
BRANCH   3  13
ATOM     13  N   UNL     1       7.489   7.045  18.363  0.00  0.00    +0.000 N 
ATOM     14  C   UNL     1       7.347   5.773  18.864  0.00  0.00    +0.000 C 
ATOM     15  O   UNL     1       8.114   5.305  19.702  0.00  0.00    +0.000 OA
ATOM     16  H   UNL     1       6.813   7.498  17.748  0.00  0.00    +0.000 HD
BRANCH  14  17
ATOM     17  C   UNL     1       6.174   4.985  18.388  0.00  0.00    +0.000 A 
ATOM     18  C   UNL     1       5.180   4.705  19.344  0.00  0.00    +0.000 A 
ATOM     19  C   UNL     1       4.039   3.973  18.998  0.00  0.00    +0.000 A 
ATOM     20  C   UNL     1       3.887   3.513  17.694  0.00  0.00    +0.000 A 
ATOM     21 CL   UNL     1       2.487   2.613  17.262  0.00  0.00    +0.000 Cl
ATOM     22  C   UNL     1       4.866   3.768  16.738  0.00  0.00    +0.000 A 
ATOM     23  C   UNL     1       6.012   4.497  17.081  0.00  0.00    +0.000 A 
ATOM     24 CL   UNL     1       7.190   4.690  15.830  0.00  0.00    +0.000 Cl
ENDBRANCH  14  17
ENDBRANCH   3  13
TORSDOF 3
ENDMDL
MODEL 2
REMARK VINA RESULT:      -7.4      5.580      7.191
REMARK  Name = 
REMARK  3 active torsions:
REMARK  status: ('A' for Active; 'I' for Inactive)
REMARK    1  A    between atoms: N_3  and  N_4
REMARK    2  A    between atoms: C_5  and  C_7
REMARK    3  A    between atoms: N_15  and  C_16
REMARK                            x       y       z     vdW  Elec       q    Type
REMARK                         _______ _______ _______ _____ _____    ______ ____
ROOT
ATOM      1  O   UNL     1       1.825   8.480  19.145  0.00  0.00    +0.000 OA
ATOM      2  C   UNL     1       1.897   7.816  20.176  0.00  0.00    +0.000 C 
ATOM      3  N   UNL     1       2.519   6.576  20.194  0.00  0.00    +0.000 N 
ATOM      4  N   UNL     1       1.458   8.184  21.428  0.00  0.00    +0.000 N 
ATOM      5  H   UNL     1       2.149   5.858  20.813  0.00  0.00    +0.000 HD
ATOM      6  H   UNL     1       1.878   7.683  22.199  0.00  0.00    +0.000 HD
ENDROOT
BRANCH   4   7
ATOM      7  C   UNL     1       0.701   9.329  21.746  0.00  0.00    +0.000 A 
ATOM      8  C   UNL     1       0.767  10.514  21.010  0.00  0.00    +0.000 A 
ATOM      9  C   UNL     1      -0.029  11.611  21.354  0.00  0.00    +0.000 A 
ATOM     10  C   UNL     1      -0.896  11.531  22.440  0.00  0.00    +0.000 A 
ATOM     11  C   UNL     1      -0.969  10.354  23.183  0.00  0.00    +0.000 A 
ATOM     12  C   UNL     1      -0.180   9.254  22.832  0.00  0.00    +0.000 A 
ENDBRANCH   4   7
BRANCH   3  13
ATOM     13  N   UNL     1       2.960   6.093  18.953  0.00  0.00    +0.000 N 
ATOM     14  C   UNL     1       4.229   5.576  18.840  0.00  0.00    +0.000 C 
ATOM     15  O   UNL     1       4.989   5.476  19.800  0.00  0.00    +0.000 OA
ATOM     16  H   UNL     1       2.271   6.093  18.200  0.00  0.00    +0.000 HD
BRANCH  14  17
ATOM     17  C   UNL     1       4.639   5.078  17.495  0.00  0.00    +0.000 A 
ATOM     18  C   UNL     1       5.142   6.040  16.599  0.00  0.00    +0.000 A 
ATOM     19  C   UNL     1       5.554   5.676  15.314  0.00  0.00    +0.000 A 
ATOM     20  C   UNL     1       5.462   4.346  14.913  0.00  0.00    +0.000 A 
ATOM     21 CL   UNL     1       5.967   3.892  13.334  0.00  0.00    +0.000 Cl
ATOM     22  C   UNL     1       4.954   3.383  15.780  0.00  0.00    +0.000 A 
ATOM     23  C   UNL     1       4.536   3.744  17.067  0.00  0.00    +0.000 A 
ATOM     24 CL   UNL     1       3.858   2.476  18.027  0.00  0.00    +0.000 Cl
ENDBRANCH  14  17
ENDBRANCH   3  13
TORSDOF 3
ENDMDL
MODEL 3
REMARK VINA RESULT:      -7.3      0.218      1.059
REMARK  Name = 
REMARK  3 active torsions:
REMARK  status: ('A' for Active; 'I' for Inactive)
REMARK    1  A    between atoms: N_3  and  N_4
REMARK    2  A    between atoms: C_5  and  C_7
REMARK    3  A    between atoms: N_15  and  C_16
REMARK                            x       y       z     vdW  Elec       q    Type
REMARK                         _______ _______ _______ _____ _____    ______ ____
ROOT
ATOM      1  O   UNL     1       7.720   9.522  17.770  0.00  0.00    +0.000 OA
ATOM      2  C   UNL     1       8.583   9.072  18.519  0.00  0.00    +0.000 C 
ATOM      3  N   UNL     1       8.593   7.735  18.891  0.00  0.00    +0.000 N 
ATOM      4  N   UNL     1       9.661   9.753  19.041  0.00  0.00    +0.000 N 
ATOM      5  H   UNL     1       8.918   7.494  19.825  0.00  0.00    +0.000 HD
ATOM      6  H   UNL     1      10.428   9.175  19.355  0.00  0.00    +0.000 HD
ENDROOT
BRANCH   4   7
ATOM      7  C   UNL     1       9.901  11.138  18.945  0.00  0.00    +0.000 A 
ATOM      8  C   UNL     1      10.356  11.752  17.776  0.00  0.00    +0.000 A 
ATOM      9  C   UNL     1      10.550  13.136  17.729  0.00  0.00    +0.000 A 
ATOM     10  C   UNL     1      10.293  13.916  18.854  0.00  0.00    +0.000 A 
ATOM     11  C   UNL     1       9.840  13.314  20.025  0.00  0.00    +0.000 A 
ATOM     12  C   UNL     1       9.637  11.931  20.069  0.00  0.00    +0.000 A 
ENDBRANCH   4   7
BRANCH   3  13
ATOM     13  N   UNL     1       7.507   6.967  18.444  0.00  0.00    +0.000 N 
ATOM     14  C   UNL     1       7.339   5.689  18.922  0.00  0.00    +0.000 C 
ATOM     15  O   UNL     1       8.084   5.198  19.767  0.00  0.00    +0.000 OA
ATOM     16  H   UNL     1       6.848   7.439  17.824  0.00  0.00    +0.000 HD
BRANCH  14  17
ATOM     17  C   UNL     1       6.166   4.924  18.410  0.00  0.00    +0.000 A 
ATOM     18  C   UNL     1       5.163   4.616  19.348  0.00  0.00    +0.000 A 
ATOM     19  C   UNL     1       4.022   3.902  18.967  0.00  0.00    +0.000 A 
ATOM     20  C   UNL     1       3.879   3.487  17.647  0.00  0.00    +0.000 A 
ATOM     21 CL   UNL     1       2.478   2.609  17.174  0.00  0.00    +0.000 Cl
ATOM     22  C   UNL     1       4.867   3.770  16.709  0.00  0.00    +0.000 A 
ATOM     23  C   UNL     1       6.013   4.480  17.085  0.00  0.00    +0.000 A 
ATOM     24 CL   UNL     1       7.203   4.710  15.851  0.00  0.00    +0.000 Cl
ENDBRANCH  14  17
ENDBRANCH   3  13
TORSDOF 3
ENDMDL
MODEL 4
REMARK VINA RESULT:      -7.3      5.391      7.136
REMARK  Name = 
REMARK  3 active torsions:
REMARK  status: ('A' for Active; 'I' for Inactive)
REMARK    1  A    between atoms: N_3  and  N_4
REMARK    2  A    between atoms: C_5  and  C_7
REMARK    3  A    between atoms: N_15  and  C_16
REMARK                            x       y       z     vdW  Elec       q    Type
REMARK                         _______ _______ _______ _____ _____    ______ ____
ROOT
ATOM      1  O   UNL     1       2.124   8.353  18.925  0.00  0.00    +0.000 OA
ATOM      2  C   UNL     1       2.125   7.616  19.908  0.00  0.00    +0.000 C 
ATOM      3  N   UNL     1       2.801   6.404  19.901  0.00  0.00    +0.000 N 
ATOM      4  N   UNL     1       1.546   7.869  21.132  0.00  0.00    +0.000 N 
ATOM      5  H   UNL     1       2.406   5.626  20.425  0.00  0.00    +0.000 HD
ATOM      6  H   UNL     1       1.911   7.327  21.903  0.00  0.00    +0.000 HD
ENDROOT
BRANCH   4   7
ATOM      7  C   UNL     1       0.707   8.954  21.451  0.00  0.00    +0.000 A 
ATOM      8  C   UNL     1       0.232   9.856  20.497  0.00  0.00    +0.000 A 
ATOM      9  C   UNL     1      -0.622  10.899  20.867  0.00  0.00    +0.000 A 
ATOM     10  C   UNL     1      -1.005  11.049  22.197  0.00  0.00    +0.000 A 
ATOM     11  C   UNL     1      -0.536  10.157  23.158  0.00  0.00    +0.000 A 
ATOM     12  C   UNL     1       0.310   9.108  22.786  0.00  0.00    +0.000 A 
ENDBRANCH   4   7
BRANCH   3  13
ATOM     13  N   UNL     1       3.387   6.036  18.680  0.00  0.00    +0.000 N 
ATOM     14  C   UNL     1       4.686   5.587  18.660  0.00  0.00    +0.000 C 
ATOM     15  O   UNL     1       5.352   5.450  19.683  0.00  0.00    +0.000 OA
ATOM     16  H   UNL     1       2.776   6.062  17.863  0.00  0.00    +0.000 HD
BRANCH  14  17
ATOM     17  C   UNL     1       5.251   5.210  17.332  0.00  0.00    +0.000 A 
ATOM     18  C   UNL     1       4.554   4.222  16.613  0.00  0.00    +0.000 A 
ATOM     19  C   UNL     1       5.002   3.799  15.358  0.00  0.00    +0.000 A 
ATOM     20  C   UNL     1       6.154   4.360  14.814  0.00  0.00    +0.000 A 
ATOM     21 CL   UNL     1       6.710   3.845  13.271  0.00  0.00    +0.000 Cl
ATOM     22  C   UNL     1       6.865   5.328  15.517  0.00  0.00    +0.000 A 
ATOM     23  C   UNL     1       6.423   5.751  16.776  0.00  0.00    +0.000 A 
ATOM     24 CL   UNL     1       7.425   6.906  17.583  0.00  0.00    +0.000 Cl
ENDBRANCH  14  17
ENDBRANCH   3  13
TORSDOF 3
ENDMDL
MODEL 5
REMARK VINA RESULT:      -7.3      5.535      7.083
REMARK  Name = 
REMARK  3 active torsions:
REMARK  status: ('A' for Active; 'I' for Inactive)
REMARK    1  A    between atoms: N_3  and  N_4
REMARK    2  A    between atoms: C_5  and  C_7
REMARK    3  A    between atoms: N_15  and  C_16
REMARK                            x       y       z     vdW  Elec       q    Type
REMARK                         _______ _______ _______ _____ _____    ______ ____
ROOT
ATOM      1  O   UNL     1       1.841   8.427  19.166  0.00  0.00    +0.000 OA
ATOM      2  C   UNL     1       1.932   7.764  20.196  0.00  0.00    +0.000 C 
ATOM      3  N   UNL     1       2.577   6.535  20.209  0.00  0.00    +0.000 N 
ATOM      4  N   UNL     1       1.495   8.122  21.452  0.00  0.00    +0.000 N 
ATOM      5  H   UNL     1       2.225   5.809  20.830  0.00  0.00    +0.000 HD
ATOM      6  H   UNL     1       1.929   7.628  22.220  0.00  0.00    +0.000 HD
ENDROOT
BRANCH   4   7
ATOM      7  C   UNL     1       0.719   9.253  21.776  0.00  0.00    +0.000 A 
ATOM      8  C   UNL     1      -0.224   9.259  22.805  0.00  0.00    +0.000 A 
ATOM      9  C   UNL     1      -0.946  10.419  23.101  0.00  0.00    +0.000 A 
ATOM     10  C   UNL     1      -0.732  11.582  22.366  0.00  0.00    +0.000 A 
ATOM     11  C   UNL     1       0.206  11.587  21.335  0.00  0.00    +0.000 A 
ATOM     12  C   UNL     1       0.935  10.429  21.046  0.00  0.00    +0.000 A 
ENDBRANCH   4   7
BRANCH   3  13
ATOM     13  N   UNL     1       3.019   6.061  18.965  0.00  0.00    +0.000 N 
ATOM     14  C   UNL     1       4.306   5.593  18.836  0.00  0.00    +0.000 C 
ATOM     15  O   UNL     1       5.082   5.530  19.785  0.00  0.00    +0.000 OA
ATOM     16  H   UNL     1       2.320   6.029  18.222  0.00  0.00    +0.000 HD
BRANCH  14  17
ATOM     17  C   UNL     1       4.716   5.103  17.488  0.00  0.00    +0.000 A 
ATOM     18  C   UNL     1       5.205   6.073  16.593  0.00  0.00    +0.000 A 
ATOM     19  C   UNL     1       5.616   5.715  15.305  0.00  0.00    +0.000 A 
ATOM     20  C   UNL     1       5.536   4.386  14.902  0.00  0.00    +0.000 A 
ATOM     21 CL   UNL     1       6.040   3.940  13.319  0.00  0.00    +0.000 Cl
ATOM     22  C   UNL     1       5.041   3.416  15.768  0.00  0.00    +0.000 A 
ATOM     23  C   UNL     1       4.624   3.769  17.057  0.00  0.00    +0.000 A 
ATOM     24 CL   UNL     1       3.963   2.492  18.017  0.00  0.00    +0.000 Cl
ENDBRANCH  14  17
ENDBRANCH   3  13
TORSDOF 3
ENDMDL
MODEL 6
REMARK VINA RESULT:      -7.2      5.382      7.076
REMARK  Name = 
REMARK  3 active torsions:
REMARK  status: ('A' for Active; 'I' for Inactive)
REMARK    1  A    between atoms: N_3  and  N_4
REMARK    2  A    between atoms: C_5  and  C_7
REMARK    3  A    between atoms: N_15  and  C_16
REMARK                            x       y       z     vdW  Elec       q    Type
REMARK                         _______ _______ _______ _____ _____    ______ ____
ROOT
ATOM      1  O   UNL     1       2.080   8.367  18.981  0.00  0.00    +0.000 OA
ATOM      2  C   UNL     1       2.105   7.628  19.963  0.00  0.00    +0.000 C 
ATOM      3  N   UNL     1       2.807   6.432  19.949  0.00  0.00    +0.000 N 
ATOM      4  N   UNL     1       1.531   7.867  21.192  0.00  0.00    +0.000 N 
ATOM      5  H   UNL     1       2.434   5.644  20.475  0.00  0.00    +0.000 HD
ATOM      6  H   UNL     1       1.914   7.333  21.960  0.00  0.00    +0.000 HD
ENDROOT
BRANCH   4   7
ATOM      7  C   UNL     1       0.671   8.934  21.520  0.00  0.00    +0.000 A 
ATOM      8  C   UNL     1       0.214   9.173  22.817  0.00  0.00    +0.000 A 
ATOM      9  C   UNL     1      -0.615  10.264  23.090  0.00  0.00    +0.000 A 
ATOM     10  C   UNL     1      -0.996  11.125  22.064  0.00  0.00    +0.000 A 
ATOM     11  C   UNL     1      -0.548  10.896  20.765  0.00  0.00    +0.000 A 
ATOM     12  C   UNL     1       0.290   9.810  20.495  0.00  0.00    +0.000 A 
ENDBRANCH   4   7
BRANCH   3  13
ATOM     13  N   UNL     1       3.391   6.077  18.723  0.00  0.00    +0.000 N 
ATOM     14  C   UNL     1       4.672   5.579  18.701  0.00  0.00    +0.000 C 
ATOM     15  O   UNL     1       5.322   5.387  19.726  0.00  0.00    +0.000 OA
ATOM     16  H   UNL     1       2.789   6.150  17.902  0.00  0.00    +0.000 HD
BRANCH  14  17
ATOM     17  C   UNL     1       5.236   5.221  17.368  0.00  0.00    +0.000 A 
ATOM     18  C   UNL     1       4.533   4.249  16.632  0.00  0.00    +0.000 A 
ATOM     19  C   UNL     1       4.979   3.844  15.370  0.00  0.00    +0.000 A 
ATOM     20  C   UNL     1       6.135   4.405  14.837  0.00  0.00    +0.000 A 
ATOM     21 CL   UNL     1       6.688   3.912  13.286  0.00  0.00    +0.000 Cl
ATOM     22  C   UNL     1       6.851   5.358  15.555  0.00  0.00    +0.000 A 
ATOM     23  C   UNL     1       6.411   5.764  16.821  0.00  0.00    +0.000 A 
ATOM     24 CL   UNL     1       7.421   6.899  17.648  0.00  0.00    +0.000 Cl
ENDBRANCH  14  17
ENDBRANCH   3  13
TORSDOF 3
ENDMDL
MODEL 7
REMARK VINA RESULT:      -7.2      1.694      1.909
REMARK  Name = 
REMARK  3 active torsions:
REMARK  status: ('A' for Active; 'I' for Inactive)
REMARK    1  A    between atoms: N_3  and  N_4
REMARK    2  A    between atoms: C_5  and  C_7
REMARK    3  A    between atoms: N_15  and  C_16
REMARK                            x       y       z     vdW  Elec       q    Type
REMARK                         _______ _______ _______ _____ _____    ______ ____
ROOT
ATOM      1  O   UNL     1       8.572   8.157  18.987  0.00  0.00    +0.000 OA
ATOM      2  C   UNL     1       8.203   8.898  18.079  0.00  0.00    +0.000 C 
ATOM      3  N   UNL     1       7.221   8.506  17.181  0.00  0.00    +0.000 N 
ATOM      4  N   UNL     1       8.625  10.188  17.842  0.00  0.00    +0.000 N 
ATOM      5  H   UNL     1       7.288   8.829  16.218  0.00  0.00    +0.000 HD
ATOM      6  H   UNL     1       8.001  10.751  17.279  0.00  0.00    +0.000 HD
ENDROOT
BRANCH   4   7
ATOM      7  C   UNL     1       9.675  10.859  18.499  0.00  0.00    +0.000 A 
ATOM      8  C   UNL     1       9.697  11.071  19.879  0.00  0.00    +0.000 A 
ATOM      9  C   UNL     1      10.779  11.718  20.482  0.00  0.00    +0.000 A 
ATOM     10  C   UNL     1      11.848  12.161  19.707  0.00  0.00    +0.000 A 
ATOM     11  C   UNL     1      11.836  11.956  18.329  0.00  0.00    +0.000 A 
ATOM     12  C   UNL     1      10.758  11.300  17.728  0.00  0.00    +0.000 A 
ENDBRANCH   4   7
BRANCH   3  13
ATOM     13  N   UNL     1       6.760   7.187  17.314  0.00  0.00    +0.000 N 
ATOM     14  C   UNL     1       5.410   6.949  17.419  0.00  0.00    +0.000 C 
ATOM     15  O   UNL     1       4.575   7.848  17.357  0.00  0.00    +0.000 OA
ATOM     16  H   UNL     1       7.469   6.456  17.257  0.00  0.00    +0.000 HD
BRANCH  14  17
ATOM     17  C   UNL     1       4.983   5.527  17.557  0.00  0.00    +0.000 A 
ATOM     18  C   UNL     1       4.622   5.106  18.851  0.00  0.00    +0.000 A 
ATOM     19  C   UNL     1       4.206   3.792  19.086  0.00  0.00    +0.000 A 
ATOM     20  C   UNL     1       4.154   2.888  18.030  0.00  0.00    +0.000 A 
ATOM     21 CL   UNL     1       3.644   1.270  18.312  0.00  0.00    +0.000 Cl
ATOM     22  C   UNL     1       4.520   3.282  16.746  0.00  0.00    +0.000 A 
ATOM     23  C   UNL     1       4.941   4.595  16.506  0.00  0.00    +0.000 A 
ATOM     24 CL   UNL     1       5.439   4.949  14.888  0.00  0.00    +0.000 Cl
ENDBRANCH  14  17
ENDBRANCH   3  13
TORSDOF 3
ENDMDL
MODEL 8
REMARK VINA RESULT:      -7.2      6.369      7.936
REMARK  Name = 
REMARK  3 active torsions:
REMARK  status: ('A' for Active; 'I' for Inactive)
REMARK    1  A    between atoms: N_3  and  N_4
REMARK    2  A    between atoms: C_5  and  C_7
REMARK    3  A    between atoms: N_15  and  C_16
REMARK                            x       y       z     vdW  Elec       q    Type
REMARK                         _______ _______ _______ _____ _____    ______ ____
ROOT
ATOM      1  O   UNL     1       1.189   9.327  19.729  0.00  0.00    +0.000 OA
ATOM      2  C   UNL     1       1.070   8.790  20.828  0.00  0.00    +0.000 C 
ATOM      3  N   UNL     1       1.741   7.615  21.134  0.00  0.00    +0.000 N 
ATOM      4  N   UNL     1       0.348   9.259  21.903  0.00  0.00    +0.000 N 
ATOM      5  H   UNL     1       1.285   6.942  21.747  0.00  0.00    +0.000 HD
ATOM      6  H   UNL     1       0.617   8.883  22.802  0.00  0.00    +0.000 HD
ENDROOT
BRANCH   4   7
ATOM      7  C   UNL     1      -0.522  10.367  21.907  0.00  0.00    +0.000 A 
ATOM      8  C   UNL     1      -0.814  11.109  20.761  0.00  0.00    +0.000 A 
ATOM      9  C   UNL     1      -1.709  12.182  20.818  0.00  0.00    +0.000 A 
ATOM     10  C   UNL     1      -2.315  12.522  22.023  0.00  0.00    +0.000 A 
ATOM     11  C   UNL     1      -2.031  11.790  23.173  0.00  0.00    +0.000 A 
ATOM     12  C   UNL     1      -1.144  10.711  23.115  0.00  0.00    +0.000 A 
ENDBRANCH   4   7
BRANCH   3  13
ATOM     13  N   UNL     1       2.469   7.033  20.085  0.00  0.00    +0.000 N 
ATOM     14  C   UNL     1       2.659   5.672  20.065  0.00  0.00    +0.000 C 
ATOM     15  O   UNL     1       2.175   4.926  20.913  0.00  0.00    +0.000 OA
ATOM     16  H   UNL     1       2.769   7.665  19.342  0.00  0.00    +0.000 HD
BRANCH  14  17
ATOM     17  C   UNL     1       3.441   5.114  18.924  0.00  0.00    +0.000 A 
ATOM     18  C   UNL     1       4.790   5.507  18.840  0.00  0.00    +0.000 A 
ATOM     19  C   UNL     1       5.609   5.039  17.807  0.00  0.00    +0.000 A 
ATOM     20  C   UNL     1       5.083   4.179  16.849  0.00  0.00    +0.000 A 
ATOM     21 CL   UNL     1       6.085   3.600  15.577  0.00  0.00    +0.000 Cl
ATOM     22  C   UNL     1       3.748   3.791  16.907  0.00  0.00    +0.000 A 
ATOM     23  C   UNL     1       2.922   4.260  17.936  0.00  0.00    +0.000 A 
ATOM     24 CL   UNL     1       1.266   3.767  17.865  0.00  0.00    +0.000 Cl
ENDBRANCH  14  17
ENDBRANCH   3  13
TORSDOF 3
ENDMDL
MODEL 9
REMARK VINA RESULT:      -7.1      3.489      8.863
REMARK  Name = 
REMARK  3 active torsions:
REMARK  status: ('A' for Active; 'I' for Inactive)
REMARK    1  A    between atoms: N_3  and  N_4
REMARK    2  A    between atoms: C_5  and  C_7
REMARK    3  A    between atoms: N_15  and  C_16
REMARK                            x       y       z     vdW  Elec       q    Type
REMARK                         _______ _______ _______ _____ _____    ______ ____
ROOT
ATOM      1  O   UNL     1       7.603   8.494  16.989  0.00  0.00    +0.000 OA
ATOM      2  C   UNL     1       7.898   7.882  18.012  0.00  0.00    +0.000 C 
ATOM      3  N   UNL     1       8.746   8.430  18.964  0.00  0.00    +0.000 N 
ATOM      4  N   UNL     1       7.425   6.648  18.402  0.00  0.00    +0.000 N 
ATOM      5  H   UNL     1       9.367   7.808  19.476  0.00  0.00    +0.000 HD
ATOM      6  H   UNL     1       7.507   6.446  19.389  0.00  0.00    +0.000 HD
ENDROOT
BRANCH   4   7
ATOM      7  C   UNL     1       6.628   5.777  17.633  0.00  0.00    +0.000 A 
ATOM      8  C   UNL     1       7.155   4.915  16.670  0.00  0.00    +0.000 A 
ATOM      9  C   UNL     1       6.320   4.050  15.956  0.00  0.00    +0.000 A 
ATOM     10  C   UNL     1       4.950   4.045  16.199  0.00  0.00    +0.000 A 
ATOM     11  C   UNL     1       4.412   4.901  17.157  0.00  0.00    +0.000 A 
ATOM     12  C   UNL     1       5.249   5.759  17.878  0.00  0.00    +0.000 A 
ENDBRANCH   4   7
BRANCH   3  13
ATOM     13  N   UNL     1       9.317   9.669  18.635  0.00  0.00    +0.000 N 
ATOM     14  C   UNL     1       9.435  10.639  19.602  0.00  0.00    +0.000 C 
ATOM     15  O   UNL     1       9.098  10.451  20.768  0.00  0.00    +0.000 OA
ATOM     16  H   UNL     1       9.682   9.758  17.686  0.00  0.00    +0.000 HD
BRANCH  14  17
ATOM     17  C   UNL     1      10.051  11.934  19.190  0.00  0.00    +0.000 A 
ATOM     18  C   UNL     1      11.212  12.322  19.884  0.00  0.00    +0.000 A 
ATOM     19  C   UNL     1      11.865  13.518  19.573  0.00  0.00    +0.000 A 
ATOM     20  C   UNL     1      11.359  14.338  18.569  0.00  0.00    +0.000 A 
ATOM     21 CL   UNL     1      12.157  15.811  18.182  0.00  0.00    +0.000 Cl
ATOM     22  C   UNL     1      10.203  13.977  17.882  0.00  0.00    +0.000 A 
ATOM     23  C   UNL     1       9.543  12.782  18.193  0.00  0.00    +0.000 A 
ATOM     24 CL   UNL     1       8.080  12.475  17.323  0.00  0.00    +0.000 Cl
ENDBRANCH  14  17
ENDBRANCH   3  13
TORSDOF 3
ENDMDL
