MODEL 1
REMARK VINA RESULT:      -8.4      0.000      0.000
REMARK  Name = 
REMARK  5 active torsions:
REMARK  status: ('A' for Active; 'I' for Inactive)
REMARK    1  A    between atoms: C_1  and  O_2
REMARK    2  A    between atoms: O_2  and  C_3
REMARK    3  A    between atoms: C_6  and  N_7
REMARK    4  A    between atoms: C_8  and  C_10
REMARK    5  A    between atoms: C_10  and  N_11
REMARK                            x       y       z     vdW  Elec       q    Type
REMARK                         _______ _______ _______ _____ _____    ______ ____
ROOT
ATOM      1  N   UNL     1       4.099   4.596  19.542  0.00  0.00    +0.000 N 
ATOM      2  C   UNL     1       2.930   3.854  19.684  0.00  0.00    +0.000 A 
ATOM      3  C   UNL     1       1.910   3.915  20.646  0.00  0.00    +0.000 A 
ATOM      4  C   UNL     1       0.746   3.177  20.402  0.00  0.00    +0.000 A 
ATOM      5  C   UNL     1       0.592   2.436  19.233  0.00  0.00    +0.000 A 
ATOM      6  C   UNL     1       1.597   2.421  18.259  0.00  0.00    +0.000 A 
ATOM      7  C   UNL     1       2.792   3.122  18.495  0.00  0.00    +0.000 A 
ATOM      8  C   UNL     1       3.944   3.420  17.740  0.00  0.00    +0.000 A 
ATOM      9  N   UNL     1       4.056   3.458  16.347  0.00  0.00    +0.000 NA
ATOM     10  C   UNL     1       5.164   4.003  15.959  0.00  0.00    +0.000 A 
ATOM     11  N   UNL     1       6.250   4.357  16.731  0.00  0.00    +0.000 N 
ATOM     12  C   UNL     1       6.176   4.388  18.106  0.00  0.00    +0.000 A 
ATOM     13  O   UNL     1       7.080   4.762  18.842  0.00  0.00    +0.000 OA
ATOM     14  C   UNL     1       4.866   4.030  18.546  0.00  0.00    +0.000 A 
ATOM     15  C   UNL     1       7.414   4.840  16.034  0.00  0.00    +0.000 C 
ATOM     16  C   UNL     1       7.173   4.778  14.537  0.00  0.00    +0.000 C 
ATOM     17  S   UNL     1       5.401   4.511  14.312  0.00  0.00    +0.000 S 
ENDROOT
BRANCH   1  18
ATOM     18  C   UNL     1       4.167   6.035  19.808  0.00  0.00    +0.000 C 
BRANCH  18  20
ATOM     19  N   UNL     1       2.324   7.670  20.111  0.00  0.00    +0.000 N 
ATOM     20  C   UNL     1       2.974   6.807  19.225  0.00  0.00    +0.000 C 
ATOM     21  O   UNL     1       2.612   6.564  18.074  0.00  0.00    +0.000 OA
ATOM     22  H   UNL     1       2.680   7.743  21.055  0.00  0.00    +0.000 HD
BRANCH  19  26
ATOM     23  C   UNL     1      -0.702  10.534  19.334  0.00  0.00    +0.000 A 
ATOM     24  C   UNL     1       0.169  10.154  18.321  0.00  0.00    +0.000 A 
ATOM     25  C   UNL     1       1.161   9.194  18.541  0.00  0.00    +0.000 A 
ATOM     26  C   UNL     1       1.306   8.611  19.801  0.00  0.00    +0.000 A 
ATOM     27  C   UNL     1       0.426   9.003  20.824  0.00  0.00    +0.000 A 
ATOM     28  C   UNL     1      -0.571   9.963  20.594  0.00  0.00    +0.000 A 
BRANCH  23  30
ATOM     29  C   UNL     1      -2.049  11.464  17.620  0.00  0.00    +0.000 C 
ATOM     30  O   UNL     1      -1.599  11.507  18.971  0.00  0.00    +0.000 OA
ENDBRANCH  23  30
ENDBRANCH  19  26
ENDBRANCH  18  20
ENDBRANCH   1  18
TORSDOF 4
ENDMDL
MODEL 2
REMARK VINA RESULT:      -8.1      4.086      9.105
REMARK  Name = 
REMARK  5 active torsions:
REMARK  status: ('A' for Active; 'I' for Inactive)
REMARK    1  A    between atoms: C_1  and  O_2
REMARK    2  A    between atoms: O_2  and  C_3
REMARK    3  A    between atoms: C_6  and  N_7
REMARK    4  A    between atoms: C_8  and  C_10
REMARK    5  A    between atoms: C_10  and  N_11
REMARK                            x       y       z     vdW  Elec       q    Type
REMARK                         _______ _______ _______ _____ _____    ______ ____
ROOT
ATOM      1  N   UNL     1       0.072  10.951  18.577  0.00  0.00    +0.000 N 
ATOM      2  C   UNL     1      -1.237  10.765  18.141  0.00  0.00    +0.000 A 
ATOM      3  C   UNL     1      -1.876   9.643  17.593  0.00  0.00    +0.000 A 
ATOM      4  C   UNL     1      -3.267   9.696  17.450  0.00  0.00    +0.000 A 
ATOM      5  C   UNL     1      -3.994  10.809  17.866  0.00  0.00    +0.000 A 
ATOM      6  C   UNL     1      -3.351  11.903  18.454  0.00  0.00    +0.000 A 
ATOM      7  C   UNL     1      -1.951  11.893  18.576  0.00  0.00    +0.000 A 
ATOM      8  C   UNL     1      -0.992  12.727  19.185  0.00  0.00    +0.000 A 
ATOM      9  N   UNL     1      -1.197  13.621  20.239  0.00  0.00    +0.000 NA
ATOM     10  C   UNL     1      -0.083  14.053  20.739  0.00  0.00    +0.000 A 
ATOM     11  N   UNL     1       1.193  13.873  20.248  0.00  0.00    +0.000 N 
ATOM     12  C   UNL     1       1.456  12.965  19.247  0.00  0.00    +0.000 A 
ATOM     13  O   UNL     1       2.574  12.707  18.820  0.00  0.00    +0.000 OA
ATOM     14  C   UNL     1       0.262  12.288  18.855  0.00  0.00    +0.000 A 
ATOM     15  C   UNL     1       2.256  14.562  20.932  0.00  0.00    +0.000 C 
ATOM     16  C   UNL     1       1.677  15.415  22.045  0.00  0.00    +0.000 C 
ATOM     17  S   UNL     1      -0.032  14.874  22.272  0.00  0.00    +0.000 S 
ENDROOT
BRANCH   1  18
ATOM     18  C   UNL     1       0.824   9.924  19.302  0.00  0.00    +0.000 C 
BRANCH  18  20
ATOM     19  N   UNL     1       2.144   7.856  18.922  0.00  0.00    +0.000 N 
ATOM     20  C   UNL     1       1.703   9.065  18.380  0.00  0.00    +0.000 C 
ATOM     21  O   UNL     1       2.033   9.515  17.282  0.00  0.00    +0.000 OA
ATOM     22  H   UNL     1       1.851   7.619  19.862  0.00  0.00    +0.000 HD
BRANCH  19  26
ATOM     23  C   UNL     1       4.317   4.806  16.938  0.00  0.00    +0.000 A 
ATOM     24  C   UNL     1       3.138   4.496  17.604  0.00  0.00    +0.000 A 
ATOM     25  C   UNL     1       2.388   5.485  18.247  0.00  0.00    +0.000 A 
ATOM     26  C   UNL     1       2.826   6.810  18.246  0.00  0.00    +0.000 A 
ATOM     27  C   UNL     1       4.023   7.117  17.575  0.00  0.00    +0.000 A 
ATOM     28  C   UNL     1       4.767   6.121  16.927  0.00  0.00    +0.000 A 
BRANCH  23  30
ATOM     29  C   UNL     1       6.141   4.010  15.652  0.00  0.00    +0.000 C 
ATOM     30  O   UNL     1       4.954   3.724  16.384  0.00  0.00    +0.000 OA
ENDBRANCH  23  30
ENDBRANCH  19  26
ENDBRANCH  18  20
ENDBRANCH   1  18
TORSDOF 4
ENDMDL
MODEL 3
REMARK VINA RESULT:      -8.0      2.634      4.840
REMARK  Name = 
REMARK  5 active torsions:
REMARK  status: ('A' for Active; 'I' for Inactive)
REMARK    1  A    between atoms: C_1  and  O_2
REMARK    2  A    between atoms: O_2  and  C_3
REMARK    3  A    between atoms: C_6  and  N_7
REMARK    4  A    between atoms: C_8  and  C_10
REMARK    5  A    between atoms: C_10  and  N_11
REMARK                            x       y       z     vdW  Elec       q    Type
REMARK                         _______ _______ _______ _____ _____    ______ ____
ROOT
ATOM      1  N   UNL     1       3.962   5.989  17.387  0.00  0.00    +0.000 N 
ATOM      2  C   UNL     1       5.318   6.248  17.566  0.00  0.00    +0.000 A 
ATOM      3  C   UNL     1       6.128   7.294  17.098  0.00  0.00    +0.000 A 
ATOM      4  C   UNL     1       7.419   7.398  17.625  0.00  0.00    +0.000 A 
ATOM      5  C   UNL     1       7.874   6.516  18.602  0.00  0.00    +0.000 A 
ATOM      6  C   UNL     1       7.042   5.506  19.096  0.00  0.00    +0.000 A 
ATOM      7  C   UNL     1       5.753   5.354  18.558  0.00  0.00    +0.000 A 
ATOM      8  C   UNL     1       4.629   4.557  18.856  0.00  0.00    +0.000 A 
ATOM      9  N   UNL     1       4.319   3.958  20.081  0.00  0.00    +0.000 NA
ATOM     10  C   UNL     1       3.107   3.504  20.110  0.00  0.00    +0.000 A 
ATOM     11  N   UNL     1       2.217   3.394  19.063  0.00  0.00    +0.000 N 
ATOM     12  C   UNL     1       2.451   4.010  17.853  0.00  0.00    +0.000 A 
ATOM     13  O   UNL     1       1.668   4.012  16.912  0.00  0.00    +0.000 OA
ATOM     14  C   UNL     1       3.679   4.737  17.888  0.00  0.00    +0.000 A 
ATOM     15  C   UNL     1       0.964   2.739  19.339  0.00  0.00    +0.000 C 
ATOM     16  C   UNL     1       0.954   2.245  20.773  0.00  0.00    +0.000 C 
ATOM     17  S   UNL     1       2.342   3.049  21.605  0.00  0.00    +0.000 S 
ENDROOT
BRANCH   1  18
ATOM     18  C   UNL     1       2.943   7.041  17.391  0.00  0.00    +0.000 C 
BRANCH  18  20
ATOM     19  N   UNL     1       1.772   8.652  18.873  0.00  0.00    +0.000 N 
ATOM     20  C   UNL     1       2.574   7.510  18.806  0.00  0.00    +0.000 C 
ATOM     21  O   UNL     1       3.062   6.926  19.774  0.00  0.00    +0.000 OA
ATOM     22  H   UNL     1       1.478   9.081  18.005  0.00  0.00    +0.000 HD
BRANCH  19  26
ATOM     23  C   UNL     1      -0.125  10.410  22.231  0.00  0.00    +0.000 A 
ATOM     24  C   UNL     1       0.077   9.036  22.189  0.00  0.00    +0.000 A 
ATOM     25  C   UNL     1       0.721   8.432  21.106  0.00  0.00    +0.000 A 
ATOM     26  C   UNL     1       1.159   9.204  20.029  0.00  0.00    +0.000 A 
ATOM     27  C   UNL     1       0.947  10.593  20.074  0.00  0.00    +0.000 A 
ATOM     28  C   UNL     1       0.306  11.193  21.167  0.00  0.00    +0.000 A 
BRANCH  23  30
ATOM     29  C   UNL     1      -1.949  11.649  23.098  0.00  0.00    +0.000 C 
ATOM     30  O   UNL     1      -0.797  10.847  23.344  0.00  0.00    +0.000 OA
ENDBRANCH  23  30
ENDBRANCH  19  26
ENDBRANCH  18  20
ENDBRANCH   1  18
TORSDOF 4
ENDMDL
MODEL 4
REMARK VINA RESULT:      -7.9      2.806      7.405
REMARK  Name = 
REMARK  5 active torsions:
REMARK  status: ('A' for Active; 'I' for Inactive)
REMARK    1  A    between atoms: C_1  and  O_2
REMARK    2  A    between atoms: O_2  and  C_3
REMARK    3  A    between atoms: C_6  and  N_7
REMARK    4  A    between atoms: C_8  and  C_10
REMARK    5  A    between atoms: C_10  and  N_11
REMARK                            x       y       z     vdW  Elec       q    Type
REMARK                         _______ _______ _______ _____ _____    ______ ____
ROOT
ATOM      1  N   UNL     1       3.677   5.705  18.898  0.00  0.00    +0.000 N 
ATOM      2  C   UNL     1       3.410   4.517  19.572  0.00  0.00    +0.000 A 
ATOM      3  C   UNL     1       4.141   3.323  19.663  0.00  0.00    +0.000 A 
ATOM      4  C   UNL     1       3.714   2.373  20.597  0.00  0.00    +0.000 A 
ATOM      5  C   UNL     1       2.624   2.616  21.428  0.00  0.00    +0.000 A 
ATOM      6  C   UNL     1       1.932   3.830  21.362  0.00  0.00    +0.000 A 
ATOM      7  C   UNL     1       2.315   4.787  20.407  0.00  0.00    +0.000 A 
ATOM      8  C   UNL     1       1.946   6.116  20.117  0.00  0.00    +0.000 A 
ATOM      9  N   UNL     1       1.366   7.042  20.989  0.00  0.00    +0.000 NA
ATOM     10  C   UNL     1       1.376   8.243  20.506  0.00  0.00    +0.000 A 
ATOM     11  N   UNL     1       1.712   8.640  19.229  0.00  0.00    +0.000 N 
ATOM     12  C   UNL     1       2.335   7.782  18.350  0.00  0.00    +0.000 A 
ATOM     13  O   UNL     1       2.723   8.095  17.231  0.00  0.00    +0.000 OA
ATOM     14  C   UNL     1       2.563   6.513  18.962  0.00  0.00    +0.000 A 
ATOM     15  C   UNL     1       1.525  10.032  18.909  0.00  0.00    +0.000 C 
ATOM     16  C   UNL     1       0.910  10.748  20.097  0.00  0.00    +0.000 C 
ATOM     17  S   UNL     1       1.063   9.630  21.508  0.00  0.00    +0.000 S 
ENDROOT
BRANCH   1  18
ATOM     18  C   UNL     1       5.018   6.290  18.815  0.00  0.00    +0.000 C 
BRANCH  18  20
ATOM     19  N   UNL     1       5.653   4.991  16.797  0.00  0.00    +0.000 N 
ATOM     20  C   UNL     1       5.599   6.253  17.393  0.00  0.00    +0.000 C 
ATOM     21  O   UNL     1       6.052   7.290  16.907  0.00  0.00    +0.000 OA
ATOM     22  H   UNL     1       5.301   4.200  17.320  0.00  0.00    +0.000 HD
BRANCH  19  26
ATOM     23  C   UNL     1       6.809   4.089  12.820  0.00  0.00    +0.000 A 
ATOM     24  C   UNL     1       5.583   3.651  13.302  0.00  0.00    +0.000 A 
ATOM     25  C   UNL     1       5.164   3.954  14.601  0.00  0.00    +0.000 A 
ATOM     26  C   UNL     1       5.990   4.692  15.450  0.00  0.00    +0.000 A 
ATOM     27  C   UNL     1       7.233   5.129  14.959  0.00  0.00    +0.000 A 
ATOM     28  C   UNL     1       7.643   4.826  13.653  0.00  0.00    +0.000 A 
BRANCH  23  30
ATOM     29  C   UNL     1       7.078   2.278  11.315  0.00  0.00    +0.000 C 
ATOM     30  O   UNL     1       7.089   3.685  11.539  0.00  0.00    +0.000 OA
ENDBRANCH  23  30
ENDBRANCH  19  26
ENDBRANCH  18  20
ENDBRANCH   1  18
TORSDOF 4
ENDMDL
MODEL 5
REMARK VINA RESULT:      -7.8      2.062      2.268
REMARK  Name = 
REMARK  5 active torsions:
REMARK  status: ('A' for Active; 'I' for Inactive)
REMARK    1  A    between atoms: C_1  and  O_2
REMARK    2  A    between atoms: O_2  and  C_3
REMARK    3  A    between atoms: C_6  and  N_7
REMARK    4  A    between atoms: C_8  and  C_10
REMARK    5  A    between atoms: C_10  and  N_11
REMARK                            x       y       z     vdW  Elec       q    Type
REMARK                         _______ _______ _______ _____ _____    ______ ____
ROOT
ATOM      1  N   UNL     1       3.110   5.847  18.701  0.00  0.00    +0.000 N 
ATOM      2  C   UNL     1       2.583   4.819  19.477  0.00  0.00    +0.000 A 
ATOM      3  C   UNL     1       1.452   4.775  20.306  0.00  0.00    +0.000 A 
ATOM      4  C   UNL     1       1.055   3.525  20.793  0.00  0.00    +0.000 A 
ATOM      5  C   UNL     1       1.738   2.363  20.443  0.00  0.00    +0.000 A 
ATOM      6  C   UNL     1       2.836   2.413  19.577  0.00  0.00    +0.000 A 
ATOM      7  C   UNL     1       3.280   3.659  19.103  0.00  0.00    +0.000 A 
ATOM      8  C   UNL     1       4.244   4.091  18.170  0.00  0.00    +0.000 A 
ATOM      9  N   UNL     1       4.772   3.361  17.101  0.00  0.00    +0.000 NA
ATOM     10  C   UNL     1       5.444   4.106  16.283  0.00  0.00    +0.000 A 
ATOM     11  N   UNL     1       5.819   5.423  16.449  0.00  0.00    +0.000 N 
ATOM     12  C   UNL     1       5.287   6.200  17.454  0.00  0.00    +0.000 A 
ATOM     13  O   UNL     1       5.523   7.392  17.609  0.00  0.00    +0.000 OA
ATOM     14  C   UNL     1       4.341   5.455  18.219  0.00  0.00    +0.000 A 
ATOM     15  C   UNL     1       6.670   5.990  15.436  0.00  0.00    +0.000 C 
ATOM     16  C   UNL     1       7.019   4.927  14.411  0.00  0.00    +0.000 C 
ATOM     17  S   UNL     1       5.891   3.545  14.698  0.00  0.00    +0.000 S 
ENDROOT
BRANCH   1  18
ATOM     18  C   UNL     1       2.275   6.780  17.941  0.00  0.00    +0.000 C 
BRANCH  18  20
ATOM     19  N   UNL     1       1.919   9.235  17.848  0.00  0.00    +0.000 N 
ATOM     20  C   UNL     1       2.054   8.114  18.670  0.00  0.00    +0.000 C 
ATOM     21  O   UNL     1       2.096   8.135  19.901  0.00  0.00    +0.000 OA
ATOM     22  H   UNL     1       1.959   9.101  16.846  0.00  0.00    +0.000 HD
BRANCH  19  26
ATOM     23  C   UNL     1       0.741  13.095  19.143  0.00  0.00    +0.000 A 
ATOM     24  C   UNL     1       1.992  12.908  18.571  0.00  0.00    +0.000 A 
ATOM     25  C   UNL     1       2.398  11.651  18.113  0.00  0.00    +0.000 A 
ATOM     26  C   UNL     1       1.552  10.549  18.243  0.00  0.00    +0.000 A 
ATOM     27  C   UNL     1       0.289  10.743  18.828  0.00  0.00    +0.000 A 
ATOM     28  C   UNL     1      -0.114  12.008  19.280  0.00  0.00    +0.000 A 
BRANCH  23  30
ATOM     29  C   UNL     1       1.190  15.405  18.865  0.00  0.00    +0.000 C 
ATOM     30  O   UNL     1       0.502  14.377  19.570  0.00  0.00    +0.000 OA
ENDBRANCH  23  30
ENDBRANCH  19  26
ENDBRANCH  18  20
ENDBRANCH   1  18
TORSDOF 4
ENDMDL
MODEL 6
REMARK VINA RESULT:      -7.7      1.849      2.167
REMARK  Name = 
REMARK  5 active torsions:
REMARK  status: ('A' for Active; 'I' for Inactive)
REMARK    1  A    between atoms: C_1  and  O_2
REMARK    2  A    between atoms: O_2  and  C_3
REMARK    3  A    between atoms: C_6  and  N_7
REMARK    4  A    between atoms: C_8  and  C_10
REMARK    5  A    between atoms: C_10  and  N_11
REMARK                            x       y       z     vdW  Elec       q    Type
REMARK                         _______ _______ _______ _____ _____    ______ ____
ROOT
ATOM      1  N   UNL     1       3.103   5.858  18.713  0.00  0.00    +0.000 N 
ATOM      2  C   UNL     1       2.570   4.831  19.487  0.00  0.00    +0.000 A 
ATOM      3  C   UNL     1       1.431   4.788  20.306  0.00  0.00    +0.000 A 
ATOM      4  C   UNL     1       1.031   3.539  20.793  0.00  0.00    +0.000 A 
ATOM      5  C   UNL     1       1.718   2.377  20.451  0.00  0.00    +0.000 A 
ATOM      6  C   UNL     1       2.823   2.425  19.595  0.00  0.00    +0.000 A 
ATOM      7  C   UNL     1       3.271   3.671  19.122  0.00  0.00    +0.000 A 
ATOM      8  C   UNL     1       4.242   4.101  18.196  0.00  0.00    +0.000 A 
ATOM      9  N   UNL     1       4.779   3.368  17.133  0.00  0.00    +0.000 NA
ATOM     10  C   UNL     1       5.457   4.113  16.319  0.00  0.00    +0.000 A 
ATOM     11  N   UNL     1       5.831   5.430  16.485  0.00  0.00    +0.000 N 
ATOM     12  C   UNL     1       5.290   6.209  17.483  0.00  0.00    +0.000 A 
ATOM     13  O   UNL     1       5.524   7.401  17.637  0.00  0.00    +0.000 OA
ATOM     14  C   UNL     1       4.337   5.465  18.243  0.00  0.00    +0.000 A 
ATOM     15  C   UNL     1       6.690   5.995  15.477  0.00  0.00    +0.000 C 
ATOM     16  C   UNL     1       7.048   4.929  14.458  0.00  0.00    +0.000 C 
ATOM     17  S   UNL     1       5.919   3.547  14.740  0.00  0.00    +0.000 S 
ENDROOT
BRANCH   1  18
ATOM     18  C   UNL     1       2.274   6.789  17.943  0.00  0.00    +0.000 C 
BRANCH  18  20
ATOM     19  N   UNL     1       1.471   9.138  17.952  0.00  0.00    +0.000 N 
ATOM     20  C   UNL     1       1.931   8.067  18.723  0.00  0.00    +0.000 C 
ATOM     21  O   UNL     1       2.158   8.107  19.932  0.00  0.00    +0.000 OA
ATOM     22  H   UNL     1       1.379   9.003  16.953  0.00  0.00    +0.000 HD
BRANCH  19  26
ATOM     23  C   UNL     1      -0.014  12.885  19.263  0.00  0.00    +0.000 A 
ATOM     24  C   UNL     1      -0.874  11.800  19.148  0.00  0.00    +0.000 A 
ATOM     25  C   UNL     1      -0.408  10.546  18.741  0.00  0.00    +0.000 A 
ATOM     26  C   UNL     1       0.939  10.367  18.422  0.00  0.00    +0.000 A 
ATOM     27  C   UNL     1       1.804  11.470  18.536  0.00  0.00    +0.000 A 
ATOM     28  C   UNL     1       1.330  12.723  18.950  0.00  0.00    +0.000 A 
BRANCH  23  30
ATOM     29  C   UNL     1      -0.195  15.229  18.965  0.00  0.00    +0.000 C 
ATOM     30  O   UNL     1      -0.626  14.052  19.643  0.00  0.00    +0.000 OA
ENDBRANCH  23  30
ENDBRANCH  19  26
ENDBRANCH  18  20
ENDBRANCH   1  18
TORSDOF 4
ENDMDL
MODEL 7
REMARK VINA RESULT:      -7.6      4.315      9.726
REMARK  Name = 
REMARK  5 active torsions:
REMARK  status: ('A' for Active; 'I' for Inactive)
REMARK    1  A    between atoms: C_1  and  O_2
REMARK    2  A    between atoms: O_2  and  C_3
REMARK    3  A    between atoms: C_6  and  N_7
REMARK    4  A    between atoms: C_8  and  C_10
REMARK    5  A    between atoms: C_10  and  N_11
REMARK                            x       y       z     vdW  Elec       q    Type
REMARK                         _______ _______ _______ _____ _____    ______ ____
ROOT
ATOM      1  N   UNL     1      -0.891  11.133  19.464  0.00  0.00    +0.000 N 
ATOM      2  C   UNL     1      -1.726  10.937  18.367  0.00  0.00    +0.000 A 
ATOM      3  C   UNL     1      -1.651  10.028  17.301  0.00  0.00    +0.000 A 
ATOM      4  C   UNL     1      -2.762   9.929  16.457  0.00  0.00    +0.000 A 
ATOM      5  C   UNL     1      -3.913  10.679  16.685  0.00  0.00    +0.000 A 
ATOM      6  C   UNL     1      -3.994  11.547  17.780  0.00  0.00    +0.000 A 
ATOM      7  C   UNL     1      -2.879  11.696  18.622  0.00  0.00    +0.000 A 
ATOM      8  C   UNL     1      -2.622  12.365  19.836  0.00  0.00    +0.000 A 
ATOM      9  N   UNL     1      -3.555  12.749  20.803  0.00  0.00    +0.000 NA
ATOM     10  C   UNL     1      -2.991  13.115  21.909  0.00  0.00    +0.000 A 
ATOM     11  N   UNL     1      -1.649  13.325  22.148  0.00  0.00    +0.000 N 
ATOM     12  C   UNL     1      -0.688  12.917  21.251  0.00  0.00    +0.000 A 
ATOM     13  O   UNL     1       0.519  13.008  21.437  0.00  0.00    +0.000 OA
ATOM     14  C   UNL     1      -1.288  12.273  20.127  0.00  0.00    +0.000 A 
ATOM     15  C   UNL     1      -1.292  13.849  23.441  0.00  0.00    +0.000 C 
ATOM     16  C   UNL     1      -2.550  14.117  24.246  0.00  0.00    +0.000 C 
ATOM     17  S   UNL     1      -3.902  13.287  23.382  0.00  0.00    +0.000 S 
ENDROOT
BRANCH   1  18
ATOM     18  C   UNL     1      -0.260  10.029  20.192  0.00  0.00    +0.000 C 
BRANCH  18  20
ATOM     19  N   UNL     1       1.363   8.190  19.806  0.00  0.00    +0.000 N 
ATOM     20  C   UNL     1       1.008   9.506  19.500  0.00  0.00    +0.000 C 
ATOM     21  O   UNL     1       1.671  10.278  18.807  0.00  0.00    +0.000 OA
ATOM     22  H   UNL     1       0.767   7.669  20.438  0.00  0.00    +0.000 HD
BRANCH  19  26
ATOM     23  C   UNL     1       4.336   5.736  18.045  0.00  0.00    +0.000 A 
ATOM     24  C   UNL     1       3.933   6.903  17.408  0.00  0.00    +0.000 A 
ATOM     25  C   UNL     1       2.972   7.744  17.976  0.00  0.00    +0.000 A 
ATOM     26  C   UNL     1       2.382   7.411  19.196  0.00  0.00    +0.000 A 
ATOM     27  C   UNL     1       2.790   6.227  19.835  0.00  0.00    +0.000 A 
ATOM     28  C   UNL     1       3.759   5.391  19.261  0.00  0.00    +0.000 A 
BRANCH  23  30
ATOM     29  C   UNL     1       6.484   4.734  18.031  0.00  0.00    +0.000 C 
ATOM     30  O   UNL     1       5.263   5.003  17.347  0.00  0.00    +0.000 OA
ENDBRANCH  23  30
ENDBRANCH  19  26
ENDBRANCH  18  20
ENDBRANCH   1  18
TORSDOF 4
ENDMDL
MODEL 8
REMARK VINA RESULT:      -7.6      1.666      1.964
REMARK  Name = 
REMARK  5 active torsions:
REMARK  status: ('A' for Active; 'I' for Inactive)
REMARK    1  A    between atoms: C_1  and  O_2
REMARK    2  A    between atoms: O_2  and  C_3
REMARK    3  A    between atoms: C_6  and  N_7
REMARK    4  A    between atoms: C_8  and  C_10
REMARK    5  A    between atoms: C_10  and  N_11
REMARK                            x       y       z     vdW  Elec       q    Type
REMARK                         _______ _______ _______ _____ _____    ______ ____
ROOT
ATOM      1  N   UNL     1       3.190   5.290  18.853  0.00  0.00    +0.000 N 
ATOM      2  C   UNL     1       2.343   4.222  19.134  0.00  0.00    +0.000 A 
ATOM      3  C   UNL     1       1.144   4.161  19.860  0.00  0.00    +0.000 A 
ATOM      4  C   UNL     1       0.404   2.976  19.789  0.00  0.00    +0.000 A 
ATOM      5  C   UNL     1       0.825   1.908  19.001  0.00  0.00    +0.000 A 
ATOM      6  C   UNL     1       1.998   1.997  18.244  0.00  0.00    +0.000 A 
ATOM      7  C   UNL     1       2.781   3.161  18.326  0.00  0.00    +0.000 A 
ATOM      8  C   UNL     1       3.924   3.649  17.661  0.00  0.00    +0.000 A 
ATOM      9  N   UNL     1       4.384   3.284  16.393  0.00  0.00    +0.000 NA
ATOM     10  C   UNL     1       5.307   4.081  15.959  0.00  0.00    +0.000 A 
ATOM     11  N   UNL     1       5.965   5.075  16.653  0.00  0.00    +0.000 N 
ATOM     12  C   UNL     1       5.520   5.507  17.883  0.00  0.00    +0.000 A 
ATOM     13  O   UNL     1       6.015   6.432  18.514  0.00  0.00    +0.000 OA
ATOM     14  C   UNL     1       4.338   4.805  18.266  0.00  0.00    +0.000 A 
ATOM     15  C   UNL     1       7.042   5.743  15.970  0.00  0.00    +0.000 C 
ATOM     16  C   UNL     1       7.245   5.116  14.603  0.00  0.00    +0.000 C 
ATOM     17  S   UNL     1       5.792   4.088  14.288  0.00  0.00    +0.000 S 
ENDROOT
BRANCH   1  18
ATOM     18  C   UNL     1       2.699   6.633  18.532  0.00  0.00    +0.000 C 
BRANCH  18  20
ATOM     19  N   UNL     1       1.524   8.590  19.508  0.00  0.00    +0.000 N 
ATOM     20  C   UNL     1       2.206   7.399  19.769  0.00  0.00    +0.000 C 
ATOM     21  O   UNL     1       2.506   6.982  20.888  0.00  0.00    +0.000 OA
ATOM     22  H   UNL     1       1.386   8.860  18.542  0.00  0.00    +0.000 HD
BRANCH  19  26
ATOM     23  C   UNL     1      -0.514  10.914  22.407  0.00  0.00    +0.000 A 
ATOM     24  C   UNL     1       0.166  11.540  21.371  0.00  0.00    +0.000 A 
ATOM     25  C   UNL     1       0.827  10.799  20.387  0.00  0.00    +0.000 A 
ATOM     26  C   UNL     1       0.830   9.404  20.442  0.00  0.00    +0.000 A 
ATOM     27  C   UNL     1       0.144   8.776  21.496  0.00  0.00    +0.000 A 
ATOM     28  C   UNL     1      -0.522   9.526  22.476  0.00  0.00    +0.000 A 
BRANCH  23  30
ATOM     29  C   UNL     1      -1.266  13.116  22.858  0.00  0.00    +0.000 C 
ATOM     30  O   UNL     1      -1.086  11.777  23.309  0.00  0.00    +0.000 OA
ENDBRANCH  23  30
ENDBRANCH  19  26
ENDBRANCH  18  20
ENDBRANCH   1  18
TORSDOF 4
ENDMDL
MODEL 9
REMARK VINA RESULT:      -7.5      4.113      9.010
REMARK  Name = 
REMARK  5 active torsions:
REMARK  status: ('A' for Active; 'I' for Inactive)
REMARK    1  A    between atoms: C_1  and  O_2
REMARK    2  A    between atoms: O_2  and  C_3
REMARK    3  A    between atoms: C_6  and  N_7
REMARK    4  A    between atoms: C_8  and  C_10
REMARK    5  A    between atoms: C_10  and  N_11
REMARK                            x       y       z     vdW  Elec       q    Type
REMARK                         _______ _______ _______ _____ _____    ______ ____
ROOT
ATOM      1  N   UNL     1       0.173  10.991  18.526  0.00  0.00    +0.000 N 
ATOM      2  C   UNL     1      -1.143  10.769  18.130  0.00  0.00    +0.000 A 
ATOM      3  C   UNL     1      -1.810   9.591  17.761  0.00  0.00    +0.000 A 
ATOM      4  C   UNL     1      -3.200   9.653  17.617  0.00  0.00    +0.000 A 
ATOM      5  C   UNL     1      -3.900  10.831  17.863  0.00  0.00    +0.000 A 
ATOM      6  C   UNL     1      -3.230  11.987  18.277  0.00  0.00    +0.000 A 
ATOM      7  C   UNL     1      -1.830  11.965  18.392  0.00  0.00    +0.000 A 
ATOM      8  C   UNL     1      -0.849  12.860  18.864  0.00  0.00    +0.000 A 
ATOM      9  N   UNL     1      -1.028  13.908  19.771  0.00  0.00    +0.000 NA
ATOM     10  C   UNL     1       0.099  14.386  20.195  0.00  0.00    +0.000 A 
ATOM     11  N   UNL     1       1.367  14.107  19.731  0.00  0.00    +0.000 N 
ATOM     12  C   UNL     1       1.603  13.052  18.878  0.00  0.00    +0.000 A 
ATOM     13  O   UNL     1       2.712  12.708  18.490  0.00  0.00    +0.000 OA
ATOM     14  C   UNL     1       0.393  12.349  18.599  0.00  0.00    +0.000 A 
ATOM     15  C   UNL     1       2.450  14.868  20.298  0.00  0.00    +0.000 C 
ATOM     16  C   UNL     1       1.897  15.892  21.272  0.00  0.00    +0.000 C 
ATOM     17  S   UNL     1       0.179  15.429  21.586  0.00  0.00    +0.000 S 
ENDROOT
BRANCH   1  18
ATOM     18  C   UNL     1       0.909  10.069  19.395  0.00  0.00    +0.000 C 
BRANCH  18  20
ATOM     19  N   UNL     1       2.048   7.863  19.380  0.00  0.00    +0.000 N 
ATOM     20  C   UNL     1       1.614   8.948  18.616  0.00  0.00    +0.000 C 
ATOM     21  O   UNL     1       1.829   9.102  17.413  0.00  0.00    +0.000 OA
ATOM     22  H   UNL     1       1.863   7.875  20.375  0.00  0.00    +0.000 HD
BRANCH  19  26
ATOM     23  C   UNL     1       3.487   4.131  17.979  0.00  0.00    +0.000 A 
ATOM     24  C   UNL     1       4.008   5.312  17.466  0.00  0.00    +0.000 A 
ATOM     25  C   UNL     1       3.570   6.557  17.926  0.00  0.00    +0.000 A 
ATOM     26  C   UNL     1       2.578   6.635  18.904  0.00  0.00    +0.000 A 
ATOM     27  C   UNL     1       2.050   5.436  19.417  0.00  0.00    +0.000 A 
ATOM     28  C   UNL     1       2.499   4.191  18.954  0.00  0.00    +0.000 A 
BRANCH  23  30
ATOM     29  C   UNL     1       3.631   1.766  18.029  0.00  0.00    +0.000 C 
ATOM     30  O   UNL     1       3.996   2.993  17.405  0.00  0.00    +0.000 OA
ENDBRANCH  23  30
ENDBRANCH  19  26
ENDBRANCH  18  20
ENDBRANCH   1  18
TORSDOF 4
ENDMDL
