MODEL 1
REMARK VINA RESULT:      -7.4      0.000      0.000
REMARK  Name = 
REMARK  10 active torsions:
REMARK  status: ('A' for Active; 'I' for Inactive)
REMARK    1  A    between atoms: C_1  and  C_2
REMARK    2  A    between atoms: C_2  and  N_3
REMARK    3  A    between atoms: C_4  and  C_5
REMARK    4  A    between atoms: C_5  and  O_6
REMARK    5  A    between atoms: N_8  and  C_9
REMARK    6  A    between atoms: C_12  and  C_13
REMARK    7  A    between atoms: C_13  and  C_14
REMARK    8  A    between atoms: C_13  and  C_15
REMARK    9  A    between atoms: N_17  and  C_18
REMARK   10  A    between atoms: C_23  and  C_24
REMARK                            x       y       z     vdW  Elec       q    Type
REMARK                         _______ _______ _______ _____ _____    ______ ____
ROOT
ATOM      1  C   UNL     1       1.862   7.255  19.208  0.00  0.00    +0.000 A 
ATOM      2  C   UNL     1       1.104   8.046  20.090  0.00  0.00    +0.000 A 
ATOM      3  C   UNL     1       1.055   9.447  19.987  0.00  0.00    +0.000 A 
ATOM      4  C   UNL     1       0.430  10.309  21.026  0.00  0.00    +0.000 A 
ATOM      5  C   UNL     1       0.470  11.636  20.829  0.00  0.00    +0.000 A 
ATOM      6  N   UNL     1       1.031  12.251  19.719  0.00  0.00    +0.000 N 
ATOM      7  C   UNL     1       1.705  11.514  18.733  0.00  0.00    +0.000 A 
ATOM      8  O   UNL     1       2.328  11.992  17.787  0.00  0.00    +0.000 OA
ATOM      9  C   UNL     1       1.694  10.040  18.889  0.00  0.00    +0.000 A 
ATOM     10  C   UNL     1       2.375   9.263  17.943  0.00  0.00    +0.000 A 
ATOM     11  C   UNL     1       2.474   7.890  18.120  0.00  0.00    +0.000 A 
ATOM     12  F   UNL     1       3.163   7.197  17.201  0.00  0.00    +0.000 F 
ENDROOT
BRANCH   6  13
ATOM     13  C   UNL     1       1.012  13.676  19.602  0.00  0.00    +0.000 A 
ATOM     14  C   UNL     1       0.000  14.280  18.836  0.00  0.00    +0.000 A 
ATOM     15  C   UNL     1      -0.061  15.667  18.703  0.00  0.00    +0.000 A 
ATOM     16  C   UNL     1       0.894  16.463  19.327  0.00  0.00    +0.000 A 
ATOM     17  C   UNL     1       1.919  15.875  20.069  0.00  0.00    +0.000 A 
ATOM     18  C   UNL     1       2.003  14.479  20.204  0.00  0.00    +0.000 A 
ATOM     19  C   UNL     1       3.200  13.891  20.903  0.00  0.00    +0.000 C 
ENDBRANCH   6  13
BRANCH   1  23
ATOM     20  N   UNL     1       2.022   3.675  19.424  0.00  0.00    +0.000 N 
ATOM     21  C   UNL     1       2.279   4.149  20.656  0.00  0.00    +0.000 A 
ATOM     22  N   UNL     1       2.313   5.444  20.742  0.00  0.00    +0.000 NA
ATOM     23  N   UNL     1       2.056   5.885  19.465  0.00  0.00    +0.000 N 
ATOM     24  C   UNL     1       1.837   4.777  18.621  0.00  0.00    +0.000 A 
ATOM     25  O   UNL     1       1.553   4.756  17.432  0.00  0.00    +0.000 OA
BRANCH  20  27
ATOM     26  C   UNL     1       3.295   1.793  18.436  0.00  0.00    +0.000 C 
ATOM     27  C   UNL     1       1.957   2.307  18.938  0.00  0.00    +0.000 C 
ENDBRANCH  20  27
BRANCH  21  28
ATOM     28  C   UNL     1       2.496   3.254  21.855  0.00  0.00    +0.000 C 
BRANCH  28  29
ATOM     29  O   UNL     1       1.325   2.555  22.236  0.00  0.00    +0.000 OA
ATOM     30  H   UNL     1       1.066   1.998  21.479  0.00  0.00    +0.000 HD
ENDBRANCH  28  29
ENDBRANCH  21  28
ENDBRANCH   1  23
BRANCH   4  31
ATOM     31  C   UNL     1      -0.196   9.689  22.279  0.00  0.00    +0.000 C 
ATOM     32  C   UNL     1       0.899   9.213  23.242  0.00  0.00    +0.000 C 
ATOM     33  C   UNL     1      -1.172  10.602  23.037  0.00  0.00    +0.000 C 
ENDBRANCH   4  31
TORSDOF 6
ENDMDL
MODEL 2
REMARK VINA RESULT:      -7.4      3.387      4.332
REMARK  Name = 
REMARK  10 active torsions:
REMARK  status: ('A' for Active; 'I' for Inactive)
REMARK    1  A    between atoms: C_1  and  C_2
REMARK    2  A    between atoms: C_2  and  N_3
REMARK    3  A    between atoms: C_4  and  C_5
REMARK    4  A    between atoms: C_5  and  O_6
REMARK    5  A    between atoms: N_8  and  C_9
REMARK    6  A    between atoms: C_12  and  C_13
REMARK    7  A    between atoms: C_13  and  C_14
REMARK    8  A    between atoms: C_13  and  C_15
REMARK    9  A    between atoms: N_17  and  C_18
REMARK   10  A    between atoms: C_23  and  C_24
REMARK                            x       y       z     vdW  Elec       q    Type
REMARK                         _______ _______ _______ _____ _____    ______ ____
ROOT
ATOM      1  C   UNL     1       0.980   8.925  20.516  0.00  0.00    +0.000 A 
ATOM      2  C   UNL     1       0.105   9.523  19.592  0.00  0.00    +0.000 A 
ATOM      3  C   UNL     1      -0.739  10.592  19.943  0.00  0.00    +0.000 A 
ATOM      4  C   UNL     1      -1.810  11.100  19.044  0.00  0.00    +0.000 A 
ATOM      5  C   UNL     1      -2.571  12.106  19.502  0.00  0.00    +0.000 A 
ATOM      6  N   UNL     1      -2.411  12.714  20.739  0.00  0.00    +0.000 N 
ATOM      7  C   UNL     1      -1.475  12.245  21.673  0.00  0.00    +0.000 A 
ATOM      8  O   UNL     1      -1.355  12.650  22.827  0.00  0.00    +0.000 OA
ATOM      9  C   UNL     1      -0.599  11.136  21.228  0.00  0.00    +0.000 A 
ATOM     10  C   UNL     1       0.335  10.617  22.134  0.00  0.00    +0.000 A 
ATOM     11  C   UNL     1       1.095   9.509  21.784  0.00  0.00    +0.000 A 
ATOM     12  F   UNL     1       1.952   9.034  22.700  0.00  0.00    +0.000 F 
ENDROOT
BRANCH   6  13
ATOM     13  C   UNL     1      -3.272  13.789  21.126  0.00  0.00    +0.000 A 
ATOM     14  C   UNL     1      -4.556  13.487  21.609  0.00  0.00    +0.000 A 
ATOM     15  C   UNL     1      -5.425  14.504  22.005  0.00  0.00    +0.000 A 
ATOM     16  C   UNL     1      -5.021  15.832  21.915  0.00  0.00    +0.000 A 
ATOM     17  C   UNL     1      -3.757  16.147  21.413  0.00  0.00    +0.000 A 
ATOM     18  C   UNL     1      -2.874  15.136  20.997  0.00  0.00    +0.000 A 
ATOM     19  C   UNL     1      -1.578  15.533  20.342  0.00  0.00    +0.000 C 
ENDBRANCH   6  13
BRANCH   1  23
ATOM     20  N   UNL     1       2.718   6.087  19.169  0.00  0.00    +0.000 N 
ATOM     21  C   UNL     1       2.058   5.655  20.259  0.00  0.00    +0.000 A 
ATOM     22  N   UNL     1       1.414   6.579  20.903  0.00  0.00    +0.000 NA
ATOM     23  N   UNL     1       1.653   7.732  20.191  0.00  0.00    +0.000 N 
ATOM     24  C   UNL     1       2.453   7.433  19.070  0.00  0.00    +0.000 A 
ATOM     25  O   UNL     1       2.852   8.177  18.186  0.00  0.00    +0.000 OA
BRANCH  20  27
ATOM     26  C   UNL     1       5.032   5.356  18.670  0.00  0.00    +0.000 C 
ATOM     27  C   UNL     1       3.574   5.366  18.243  0.00  0.00    +0.000 C 
ENDBRANCH  20  27
BRANCH  21  28
ATOM     28  C   UNL     1       2.048   4.208  20.698  0.00  0.00    +0.000 C 
BRANCH  28  29
ATOM     29  O   UNL     1       0.750   3.641  20.685  0.00  0.00    +0.000 OA
ATOM     30  H   UNL     1       0.316   3.901  21.517  0.00  0.00    +0.000 HD
ENDBRANCH  28  29
ENDBRANCH  21  28
ENDBRANCH   1  23
BRANCH   4  31
ATOM     31  C   UNL     1      -2.042  10.462  17.671  0.00  0.00    +0.000 C 
ATOM     32  C   UNL     1      -3.244   9.510  17.721  0.00  0.00    +0.000 C 
ATOM     33  C   UNL     1      -2.236  11.458  16.517  0.00  0.00    +0.000 C 
ENDBRANCH   4  31
TORSDOF 6
ENDMDL
MODEL 3
REMARK VINA RESULT:      -7.4      3.350      4.399
REMARK  Name = 
REMARK  10 active torsions:
REMARK  status: ('A' for Active; 'I' for Inactive)
REMARK    1  A    between atoms: C_1  and  C_2
REMARK    2  A    between atoms: C_2  and  N_3
REMARK    3  A    between atoms: C_4  and  C_5
REMARK    4  A    between atoms: C_5  and  O_6
REMARK    5  A    between atoms: N_8  and  C_9
REMARK    6  A    between atoms: C_12  and  C_13
REMARK    7  A    between atoms: C_13  and  C_14
REMARK    8  A    between atoms: C_13  and  C_15
REMARK    9  A    between atoms: N_17  and  C_18
REMARK   10  A    between atoms: C_23  and  C_24
REMARK                            x       y       z     vdW  Elec       q    Type
REMARK                         _______ _______ _______ _____ _____    ______ ____
ROOT
ATOM      1  C   UNL     1       0.932   8.989  20.529  0.00  0.00    +0.000 A 
ATOM      2  C   UNL     1       0.067   9.560  19.578  0.00  0.00    +0.000 A 
ATOM      3  C   UNL     1      -0.729  10.682  19.867  0.00  0.00    +0.000 A 
ATOM      4  C   UNL     1      -1.793  11.172  18.950  0.00  0.00    +0.000 A 
ATOM      5  C   UNL     1      -2.506  12.237  19.349  0.00  0.00    +0.000 A 
ATOM      6  N   UNL     1      -2.302  12.919  20.541  0.00  0.00    +0.000 N 
ATOM      7  C   UNL     1      -1.371  12.476  21.491  0.00  0.00    +0.000 A 
ATOM      8  O   UNL     1      -1.217  12.952  22.614  0.00  0.00    +0.000 OA
ATOM      9  C   UNL     1      -0.547  11.304  21.110  0.00  0.00    +0.000 A 
ATOM     10  C   UNL     1       0.380  10.810  22.037  0.00  0.00    +0.000 A 
ATOM     11  C   UNL     1       1.090   9.652  21.752  0.00  0.00    +0.000 A 
ATOM     12  F   UNL     1       1.942   9.204  22.687  0.00  0.00    +0.000 F 
ENDROOT
BRANCH   6  13
ATOM     13  C   UNL     1      -3.114  14.051  20.866  0.00  0.00    +0.000 A 
ATOM     14  C   UNL     1      -2.560  15.337  20.752  0.00  0.00    +0.000 A 
ATOM     15  C   UNL     1      -3.318  16.468  21.052  0.00  0.00    +0.000 A 
ATOM     16  C   UNL     1      -4.636  16.325  21.476  0.00  0.00    +0.000 A 
ATOM     17  C   UNL     1      -5.190  15.052  21.617  0.00  0.00    +0.000 A 
ATOM     18  C   UNL     1      -4.437  13.900  21.333  0.00  0.00    +0.000 A 
ATOM     19  C   UNL     1      -5.038  12.552  21.628  0.00  0.00    +0.000 C 
ENDBRANCH   6  13
BRANCH   1  23
ATOM     20  N   UNL     1       2.548   6.006  19.355  0.00  0.00    +0.000 N 
ATOM     21  C   UNL     1       1.862   5.664  20.461  0.00  0.00    +0.000 A 
ATOM     22  N   UNL     1       1.256   6.651  21.048  0.00  0.00    +0.000 NA
ATOM     23  N   UNL     1       1.552   7.751  20.276  0.00  0.00    +0.000 N 
ATOM     24  C   UNL     1       2.345   7.355  19.180  0.00  0.00    +0.000 A 
ATOM     25  O   UNL     1       2.785   8.030  18.260  0.00  0.00    +0.000 OA
BRANCH  20  27
ATOM     26  C   UNL     1       2.567   4.339  17.522  0.00  0.00    +0.000 C 
ATOM     27  C   UNL     1       3.377   5.197  18.478  0.00  0.00    +0.000 C 
ENDBRANCH  20  27
BRANCH  21  28
ATOM     28  C   UNL     1       1.783   4.246  20.978  0.00  0.00    +0.000 C 
BRANCH  28  29
ATOM     29  O   UNL     1       0.646   3.551  20.499  0.00  0.00    +0.000 OA
ATOM     30  H   UNL     1      -0.139   4.042  20.804  0.00  0.00    +0.000 HD
ENDBRANCH  28  29
ENDBRANCH  21  28
ENDBRANCH   1  23
BRANCH   4  31
ATOM     31  C   UNL     1      -2.071  10.454  17.626  0.00  0.00    +0.000 C 
ATOM     32  C   UNL     1      -3.268   9.505  17.776  0.00  0.00    +0.000 C 
ATOM     33  C   UNL     1      -2.310  11.380  16.423  0.00  0.00    +0.000 C 
ENDBRANCH   4  31
TORSDOF 6
ENDMDL
MODEL 4
REMARK VINA RESULT:      -7.3      0.433      1.262
REMARK  Name = 
REMARK  10 active torsions:
REMARK  status: ('A' for Active; 'I' for Inactive)
REMARK    1  A    between atoms: C_1  and  C_2
REMARK    2  A    between atoms: C_2  and  N_3
REMARK    3  A    between atoms: C_4  and  C_5
REMARK    4  A    between atoms: C_5  and  O_6
REMARK    5  A    between atoms: N_8  and  C_9
REMARK    6  A    between atoms: C_12  and  C_13
REMARK    7  A    between atoms: C_13  and  C_14
REMARK    8  A    between atoms: C_13  and  C_15
REMARK    9  A    between atoms: N_17  and  C_18
REMARK   10  A    between atoms: C_23  and  C_24
REMARK                            x       y       z     vdW  Elec       q    Type
REMARK                         _______ _______ _______ _____ _____    ______ ____
ROOT
ATOM      1  C   UNL     1       1.996   6.999  19.133  0.00  0.00    +0.000 A 
ATOM      2  C   UNL     1       1.292   7.799  20.050  0.00  0.00    +0.000 A 
ATOM      3  C   UNL     1       1.281   9.202  19.966  0.00  0.00    +0.000 A 
ATOM      4  C   UNL     1       0.717  10.069  21.035  0.00  0.00    +0.000 A 
ATOM      5  C   UNL     1       0.789  11.396  20.854  0.00  0.00    +0.000 A 
ATOM      6  N   UNL     1       1.330  12.009  19.732  0.00  0.00    +0.000 N 
ATOM      7  C   UNL     1       1.948  11.266  18.715  0.00  0.00    +0.000 A 
ATOM      8  O   UNL     1       2.553  11.738  17.754  0.00  0.00    +0.000 OA
ATOM      9  C   UNL     1       1.900   9.791  18.854  0.00  0.00    +0.000 A 
ATOM     10  C   UNL     1       2.525   9.007  17.876  0.00  0.00    +0.000 A 
ATOM     11  C   UNL     1       2.589   7.630  18.032  0.00  0.00    +0.000 A 
ATOM     12  F   UNL     1       3.226   6.929  17.082  0.00  0.00    +0.000 F 
ENDROOT
BRANCH   6  13
ATOM     13  C   UNL     1       1.349  13.436  19.633  0.00  0.00    +0.000 A 
ATOM     14  C   UNL     1       2.341  14.150  20.325  0.00  0.00    +0.000 A 
ATOM     15  C   UNL     1       2.401  15.541  20.249  0.00  0.00    +0.000 A 
ATOM     16  C   UNL     1       1.463  16.233  19.489  0.00  0.00    +0.000 A 
ATOM     17  C   UNL     1       0.457  15.537  18.818  0.00  0.00    +0.000 A 
ATOM     18  C   UNL     1       0.374  14.136  18.893  0.00  0.00    +0.000 A 
ATOM     19  C   UNL     1      -0.806  13.448  18.260  0.00  0.00    +0.000 C 
ENDBRANCH   6  13
BRANCH   1  23
ATOM     20  N   UNL     1       2.048   3.413  19.309  0.00  0.00    +0.000 N 
ATOM     21  C   UNL     1       2.391   3.865  20.528  0.00  0.00    +0.000 A 
ATOM     22  N   UNL     1       2.474   5.157  20.623  0.00  0.00    +0.000 NA
ATOM     23  N   UNL     1       2.158   5.620  19.367  0.00  0.00    +0.000 N 
ATOM     24  C   UNL     1       1.855   4.529  18.527  0.00  0.00    +0.000 A 
ATOM     25  O   UNL     1       1.502   4.529  17.357  0.00  0.00    +0.000 OA
BRANCH  20  27
ATOM     26  C   UNL     1       3.223   1.459  18.338  0.00  0.00    +0.000 C 
ATOM     27  C   UNL     1       1.910   2.053  18.817  0.00  0.00    +0.000 C 
ENDBRANCH  20  27
BRANCH  21  28
ATOM     28  C   UNL     1       2.647   2.951  21.705  0.00  0.00    +0.000 C 
BRANCH  28  29
ATOM     29  O   UNL     1       1.452   2.471  22.295  0.00  0.00    +0.000 OA
ATOM     30  H   UNL     1       1.613   2.407  23.254  0.00  0.00    +0.000 HD
ENDBRANCH  28  29
ENDBRANCH  21  28
ENDBRANCH   1  23
BRANCH   4  31
ATOM     31  C   UNL     1       0.116   9.450  22.302  0.00  0.00    +0.000 C 
ATOM     32  C   UNL     1       1.222   9.140  23.319  0.00  0.00    +0.000 C 
ATOM     33  C   UNL     1      -0.973  10.295  22.982  0.00  0.00    +0.000 C 
ENDBRANCH   4  31
TORSDOF 6
ENDMDL
MODEL 5
REMARK VINA RESULT:      -7.3      1.109      1.244
REMARK  Name = 
REMARK  10 active torsions:
REMARK  status: ('A' for Active; 'I' for Inactive)
REMARK    1  A    between atoms: C_1  and  C_2
REMARK    2  A    between atoms: C_2  and  N_3
REMARK    3  A    between atoms: C_4  and  C_5
REMARK    4  A    between atoms: C_5  and  O_6
REMARK    5  A    between atoms: N_8  and  C_9
REMARK    6  A    between atoms: C_12  and  C_13
REMARK    7  A    between atoms: C_13  and  C_14
REMARK    8  A    between atoms: C_13  and  C_15
REMARK    9  A    between atoms: N_17  and  C_18
REMARK   10  A    between atoms: C_23  and  C_24
REMARK                            x       y       z     vdW  Elec       q    Type
REMARK                         _______ _______ _______ _____ _____    ______ ____
ROOT
ATOM      1  C   UNL     1       2.018   7.225  19.325  0.00  0.00    +0.000 A 
ATOM      2  C   UNL     1       1.250   8.015  20.199  0.00  0.00    +0.000 A 
ATOM      3  C   UNL     1       1.148   9.410  20.055  0.00  0.00    +0.000 A 
ATOM      4  C   UNL     1       0.514  10.281  21.080  0.00  0.00    +0.000 A 
ATOM      5  C   UNL     1       0.502  11.601  20.844  0.00  0.00    +0.000 A 
ATOM      6  N   UNL     1       1.018  12.201  19.703  0.00  0.00    +0.000 N 
ATOM      7  C   UNL     1       1.698  11.459  18.726  0.00  0.00    +0.000 A 
ATOM      8  O   UNL     1       2.285  11.930  17.754  0.00  0.00    +0.000 OA
ATOM      9  C   UNL     1       1.744   9.992  18.927  0.00  0.00    +0.000 A 
ATOM     10  C   UNL     1       2.433   9.210  17.990  0.00  0.00    +0.000 A 
ATOM     11  C   UNL     1       2.585   7.848  18.206  0.00  0.00    +0.000 A 
ATOM     12  F   UNL     1       3.280   7.152  17.294  0.00  0.00    +0.000 F 
ENDROOT
BRANCH   6  13
ATOM     13  C   UNL     1       0.945  13.621  19.544  0.00  0.00    +0.000 A 
ATOM     14  C   UNL     1      -0.114  14.166  18.799  0.00  0.00    +0.000 A 
ATOM     15  C   UNL     1      -0.228  15.545  18.626  0.00  0.00    +0.000 A 
ATOM     16  C   UNL     1       0.720  16.393  19.190  0.00  0.00    +0.000 A 
ATOM     17  C   UNL     1       1.792  15.863  19.911  0.00  0.00    +0.000 A 
ATOM     18  C   UNL     1       1.929  14.475  20.084  0.00  0.00    +0.000 A 
ATOM     19  C   UNL     1       3.170  13.951  20.755  0.00  0.00    +0.000 C 
ENDBRANCH   6  13
BRANCH   1  23
ATOM     20  N   UNL     1       3.139   3.850  19.815  0.00  0.00    +0.000 N 
ATOM     21  C   UNL     1       1.795   3.820  19.851  0.00  0.00    +0.000 A 
ATOM     22  N   UNL     1       1.225   4.981  19.742  0.00  0.00    +0.000 NA
ATOM     23  N   UNL     1       2.267   5.871  19.619  0.00  0.00    +0.000 N 
ATOM     24  C   UNL     1       3.488   5.168  19.632  0.00  0.00    +0.000 A 
ATOM     25  O   UNL     1       4.627   5.597  19.518  0.00  0.00    +0.000 OA
BRANCH  20  27
ATOM     26  C   UNL     1       4.037   1.764  18.825  0.00  0.00    +0.000 C 
ATOM     27  C   UNL     1       4.106   2.774  19.957  0.00  0.00    +0.000 C 
ENDBRANCH  20  27
BRANCH  21  28
ATOM     28  C   UNL     1       1.001   2.541  19.990  0.00  0.00    +0.000 C 
BRANCH  28  29
ATOM     29  O   UNL     1       0.305   2.197  18.805  0.00  0.00    +0.000 OA
ATOM     30  H   UNL     1      -0.098   3.016  18.463  0.00  0.00    +0.000 HD
ENDBRANCH  28  29
ENDBRANCH  21  28
ENDBRANCH   1  23
BRANCH   4  31
ATOM     31  C   UNL     1      -0.064   9.677  22.365  0.00  0.00    +0.000 C 
ATOM     32  C   UNL     1       1.066   9.298  23.330  0.00  0.00    +0.000 C 
ATOM     33  C   UNL     1      -1.079  10.567  23.100  0.00  0.00    +0.000 C 
ENDBRANCH   4  31
TORSDOF 6
ENDMDL
MODEL 6
REMARK VINA RESULT:      -7.1      2.816      4.484
REMARK  Name = 
REMARK  10 active torsions:
REMARK  status: ('A' for Active; 'I' for Inactive)
REMARK    1  A    between atoms: C_1  and  C_2
REMARK    2  A    between atoms: C_2  and  N_3
REMARK    3  A    between atoms: C_4  and  C_5
REMARK    4  A    between atoms: C_5  and  O_6
REMARK    5  A    between atoms: N_8  and  C_9
REMARK    6  A    between atoms: C_12  and  C_13
REMARK    7  A    between atoms: C_13  and  C_14
REMARK    8  A    between atoms: C_13  and  C_15
REMARK    9  A    between atoms: N_17  and  C_18
REMARK   10  A    between atoms: C_23  and  C_24
REMARK                            x       y       z     vdW  Elec       q    Type
REMARK                         _______ _______ _______ _____ _____    ______ ____
ROOT
ATOM      1  C   UNL     1       1.800   8.065  19.739  0.00  0.00    +0.000 A 
ATOM      2  C   UNL     1       1.160   9.236  19.297  0.00  0.00    +0.000 A 
ATOM      3  C   UNL     1       0.416  10.057  20.163  0.00  0.00    +0.000 A 
ATOM      4  C   UNL     1      -0.432  11.179  19.678  0.00  0.00    +0.000 A 
ATOM      5  C   UNL     1      -1.118  11.873  20.599  0.00  0.00    +0.000 A 
ATOM      6  N   UNL     1      -1.071  11.629  21.965  0.00  0.00    +0.000 N 
ATOM      7  C   UNL     1      -0.356  10.545  22.494  0.00  0.00    +0.000 A 
ATOM      8  O   UNL     1      -0.362  10.194  23.672  0.00  0.00    +0.000 OA
ATOM      9  C   UNL     1       0.428   9.739  21.528  0.00  0.00    +0.000 A 
ATOM     10  C   UNL     1       1.140   8.631  22.006  0.00  0.00    +0.000 A 
ATOM     11  C   UNL     1       1.796   7.795  21.114  0.00  0.00    +0.000 A 
ATOM     12  F   UNL     1       2.436   6.730  21.620  0.00  0.00    +0.000 F 
ENDROOT
BRANCH   6  13
ATOM     13  C   UNL     1      -1.836  12.437  22.864  0.00  0.00    +0.000 A 
ATOM     14  C   UNL     1      -3.056  11.939  23.352  0.00  0.00    +0.000 A 
ATOM     15  C   UNL     1      -3.829  12.691  24.236  0.00  0.00    +0.000 A 
ATOM     16  C   UNL     1      -3.395  13.951  24.635  0.00  0.00    +0.000 A 
ATOM     17  C   UNL     1      -2.198  14.468  24.138  0.00  0.00    +0.000 A 
ATOM     18  C   UNL     1      -1.412  13.730  23.236  0.00  0.00    +0.000 A 
ATOM     19  C   UNL     1      -0.201  14.386  22.630  0.00  0.00    +0.000 C 
ENDBRANCH   6  13
BRANCH   1  23
ATOM     20  N   UNL     1       3.084   5.368  17.747  0.00  0.00    +0.000 N 
ATOM     21  C   UNL     1       3.746   6.477  17.369  0.00  0.00    +0.000 A 
ATOM     22  N   UNL     1       3.359   7.566  17.962  0.00  0.00    +0.000 NA
ATOM     23  N   UNL     1       2.357   7.163  18.813  0.00  0.00    +0.000 N 
ATOM     24  C   UNL     1       2.190   5.767  18.713  0.00  0.00    +0.000 A 
ATOM     25  O   UNL     1       1.424   5.035  19.324  0.00  0.00    +0.000 OA
BRANCH  20  27
ATOM     26  C   UNL     1       4.092   3.143  18.158  0.00  0.00    +0.000 C 
ATOM     27  C   UNL     1       3.201   3.999  17.275  0.00  0.00    +0.000 C 
ENDBRANCH  20  27
BRANCH  21  28
ATOM     28  C   UNL     1       4.862   6.465  16.349  0.00  0.00    +0.000 C 
BRANCH  28  29
ATOM     29  O   UNL     1       6.018   7.151  16.795  0.00  0.00    +0.000 OA
ATOM     30  H   UNL     1       6.776   6.555  16.655  0.00  0.00    +0.000 HD
ENDBRANCH  28  29
ENDBRANCH  21  28
ENDBRANCH   1  23
BRANCH   4  31
ATOM     31  C   UNL     1      -0.533  11.488  18.181  0.00  0.00    +0.000 C 
ATOM     32  C   UNL     1      -1.718  10.738  17.560  0.00  0.00    +0.000 C 
ATOM     33  C   UNL     1      -0.643  12.981  17.834  0.00  0.00    +0.000 C 
ENDBRANCH   4  31
TORSDOF 6
ENDMDL
MODEL 7
REMARK VINA RESULT:      -7.1      1.288      1.682
REMARK  Name = 
REMARK  10 active torsions:
REMARK  status: ('A' for Active; 'I' for Inactive)
REMARK    1  A    between atoms: C_1  and  C_2
REMARK    2  A    between atoms: C_2  and  N_3
REMARK    3  A    between atoms: C_4  and  C_5
REMARK    4  A    between atoms: C_5  and  O_6
REMARK    5  A    between atoms: N_8  and  C_9
REMARK    6  A    between atoms: C_12  and  C_13
REMARK    7  A    between atoms: C_13  and  C_14
REMARK    8  A    between atoms: C_13  and  C_15
REMARK    9  A    between atoms: N_17  and  C_18
REMARK   10  A    between atoms: C_23  and  C_24
REMARK                            x       y       z     vdW  Elec       q    Type
REMARK                         _______ _______ _______ _____ _____    ______ ____
ROOT
ATOM      1  C   UNL     1       2.216   7.396  19.026  0.00  0.00    +0.000 A 
ATOM      2  C   UNL     1       1.454   8.088  19.983  0.00  0.00    +0.000 A 
ATOM      3  C   UNL     1       1.278   9.482  19.937  0.00  0.00    +0.000 A 
ATOM      4  C   UNL     1       0.652  10.252  21.045  0.00  0.00    +0.000 A 
ATOM      5  C   UNL     1       0.566  11.583  20.897  0.00  0.00    +0.000 A 
ATOM      6  N   UNL     1       0.998  12.280  19.776  0.00  0.00    +0.000 N 
ATOM      7  C   UNL     1       1.665  11.638  18.723  0.00  0.00    +0.000 A 
ATOM      8  O   UNL     1       2.181  12.199  17.758  0.00  0.00    +0.000 OA
ATOM      9  C   UNL     1       1.791  10.164  18.824  0.00  0.00    +0.000 A 
ATOM     10  C   UNL     1       2.471   9.481  17.808  0.00  0.00    +0.000 A 
ATOM     11  C   UNL     1       2.698   8.117  17.925  0.00  0.00    +0.000 A 
ATOM     12  F   UNL     1       3.381   7.517  16.939  0.00  0.00    +0.000 F 
ENDROOT
BRANCH   6  13
ATOM     13  C   UNL     1       0.849  13.701  19.715  0.00  0.00    +0.000 A 
ATOM     14  C   UNL     1      -0.256  14.238  19.034  0.00  0.00    +0.000 A 
ATOM     15  C   UNL     1      -0.444  15.618  18.957  0.00  0.00    +0.000 A 
ATOM     16  C   UNL     1       0.476  16.475  19.553  0.00  0.00    +0.000 A 
ATOM     17  C   UNL     1       1.591  15.955  20.211  0.00  0.00    +0.000 A 
ATOM     18  C   UNL     1       1.803  14.568  20.288  0.00  0.00    +0.000 A 
ATOM     19  C   UNL     1       3.087  14.066  20.892  0.00  0.00    +0.000 C 
ENDBRANCH   6  13
BRANCH   1  23
ATOM     20  N   UNL     1       2.641   3.939  19.897  0.00  0.00    +0.000 N 
ATOM     21  C   UNL     1       3.820   4.362  19.406  0.00  0.00    +0.000 A 
ATOM     22  N   UNL     1       3.822   5.591  18.988  0.00  0.00    +0.000 NA
ATOM     23  N   UNL     1       2.543   6.040  19.218  0.00  0.00    +0.000 N 
ATOM     24  C   UNL     1       1.788   5.015  19.823  0.00  0.00    +0.000 A 
ATOM     25  O   UNL     1       0.626   5.034  20.205  0.00  0.00    +0.000 OA
BRANCH  20  27
ATOM     26  C   UNL     1       2.093   2.604  21.912  0.00  0.00    +0.000 C 
ATOM     27  C   UNL     1       2.248   2.634  20.401  0.00  0.00    +0.000 C 
ENDBRANCH  20  27
BRANCH  21  28
ATOM     28  C   UNL     1       5.053   3.488  19.353  0.00  0.00    +0.000 C 
BRANCH  28  29
ATOM     29  O   UNL     1       6.100   4.066  18.594  0.00  0.00    +0.000 OA
ATOM     30  H   UNL     1       6.596   4.654  19.192  0.00  0.00    +0.000 HD
ENDBRANCH  28  29
ENDBRANCH  21  28
ENDBRANCH   1  23
BRANCH   4  31
ATOM     31  C   UNL     1       0.166   9.539  22.311  0.00  0.00    +0.000 C 
ATOM     32  C   UNL     1       1.351   9.230  23.236  0.00  0.00    +0.000 C 
ATOM     33  C   UNL     1      -0.911  10.292  23.106  0.00  0.00    +0.000 C 
ENDBRANCH   4  31
TORSDOF 6
ENDMDL
MODEL 8
REMARK VINA RESULT:      -7.1      1.045      1.621
REMARK  Name = 
REMARK  10 active torsions:
REMARK  status: ('A' for Active; 'I' for Inactive)
REMARK    1  A    between atoms: C_1  and  C_2
REMARK    2  A    between atoms: C_2  and  N_3
REMARK    3  A    between atoms: C_4  and  C_5
REMARK    4  A    between atoms: C_5  and  O_6
REMARK    5  A    between atoms: N_8  and  C_9
REMARK    6  A    between atoms: C_12  and  C_13
REMARK    7  A    between atoms: C_13  and  C_14
REMARK    8  A    between atoms: C_13  and  C_15
REMARK    9  A    between atoms: N_17  and  C_18
REMARK   10  A    between atoms: C_23  and  C_24
REMARK                            x       y       z     vdW  Elec       q    Type
REMARK                         _______ _______ _______ _____ _____    ______ ____
ROOT
ATOM      1  C   UNL     1       2.200   6.977  19.419  0.00  0.00    +0.000 A 
ATOM      2  C   UNL     1       1.447   7.793  20.282  0.00  0.00    +0.000 A 
ATOM      3  C   UNL     1       1.303   9.176  20.070  0.00  0.00    +0.000 A 
ATOM      4  C   UNL     1       0.687  10.084  21.074  0.00  0.00    +0.000 A 
ATOM      5  C   UNL     1       0.632  11.390  20.770  0.00  0.00    +0.000 A 
ATOM      6  N   UNL     1       1.088  11.941  19.580  0.00  0.00    +0.000 N 
ATOM      7  C   UNL     1       1.747  11.165  18.615  0.00  0.00    +0.000 A 
ATOM      8  O   UNL     1       2.282  11.597  17.596  0.00  0.00    +0.000 OA
ATOM      9  C   UNL     1       1.839   9.711  18.890  0.00  0.00    +0.000 A 
ATOM     10  C   UNL     1       2.510   8.898  17.967  0.00  0.00    +0.000 A 
ATOM     11  C   UNL     1       2.705   7.553  18.247  0.00  0.00    +0.000 A 
ATOM     12  F   UNL     1       3.382   6.826  17.345  0.00  0.00    +0.000 F 
ENDROOT
BRANCH   6  13
ATOM     13  C   UNL     1       0.972  13.348  19.350  0.00  0.00    +0.000 A 
ATOM     14  C   UNL     1       2.078  14.172  19.618  0.00  0.00    +0.000 A 
ATOM     15  C   UNL     1       2.011  15.548  19.402  0.00  0.00    +0.000 A 
ATOM     16  C   UNL     1       0.834  16.115  18.923  0.00  0.00    +0.000 A 
ATOM     17  C   UNL     1      -0.280  15.312  18.677  0.00  0.00    +0.000 A 
ATOM     18  C   UNL     1      -0.235  13.925  18.902  0.00  0.00    +0.000 A 
ATOM     19  C   UNL     1      -1.501  13.127  18.747  0.00  0.00    +0.000 C 
ENDBRANCH   6  13
BRANCH   1  23
ATOM     20  N   UNL     1       3.331   3.605  19.912  0.00  0.00    +0.000 N 
ATOM     21  C   UNL     1       2.069   3.661  20.375  0.00  0.00    +0.000 A 
ATOM     22  N   UNL     1       1.524   4.839  20.320  0.00  0.00    +0.000 NA
ATOM     23  N   UNL     1       2.494   5.646  19.773  0.00  0.00    +0.000 N 
ATOM     24  C   UNL     1       3.636   4.875  19.479  0.00  0.00    +0.000 A 
ATOM     25  O   UNL     1       4.689   5.219  18.962  0.00  0.00    +0.000 OA
BRANCH  20  27
ATOM     26  C   UNL     1       3.986   1.539  18.713  0.00  0.00    +0.000 C 
ATOM     27  C   UNL     1       4.263   2.492  19.863  0.00  0.00    +0.000 C 
ENDBRANCH  20  27
BRANCH  21  28
ATOM     28  C   UNL     1       1.329   2.454  20.903  0.00  0.00    +0.000 C 
BRANCH  28  29
ATOM     29  O   UNL     1       1.436   2.319  22.309  0.00  0.00    +0.000 OA
ATOM     30  H   UNL     1       0.818   1.615  22.577  0.00  0.00    +0.000 HD
ENDBRANCH  28  29
ENDBRANCH  21  28
ENDBRANCH   1  23
BRANCH   4  31
ATOM     31  C   UNL     1       0.176   9.536  22.410  0.00  0.00    +0.000 C 
ATOM     32  C   UNL     1       1.346   9.321  23.380  0.00  0.00    +0.000 C 
ATOM     33  C   UNL     1      -0.896  10.396  23.096  0.00  0.00    +0.000 C 
ENDBRANCH   4  31
TORSDOF 6
ENDMDL
MODEL 9
REMARK VINA RESULT:      -6.9      3.496      4.743
REMARK  Name = 
REMARK  10 active torsions:
REMARK  status: ('A' for Active; 'I' for Inactive)
REMARK    1  A    between atoms: C_1  and  C_2
REMARK    2  A    between atoms: C_2  and  N_3
REMARK    3  A    between atoms: C_4  and  C_5
REMARK    4  A    between atoms: C_5  and  O_6
REMARK    5  A    between atoms: N_8  and  C_9
REMARK    6  A    between atoms: C_12  and  C_13
REMARK    7  A    between atoms: C_13  and  C_14
REMARK    8  A    between atoms: C_13  and  C_15
REMARK    9  A    between atoms: N_17  and  C_18
REMARK   10  A    between atoms: C_23  and  C_24
REMARK                            x       y       z     vdW  Elec       q    Type
REMARK                         _______ _______ _______ _____ _____    ______ ____
ROOT
ATOM      1  C   UNL     1       1.149   8.991  19.814  0.00  0.00    +0.000 A 
ATOM      2  C   UNL     1       0.171   9.608  19.014  0.00  0.00    +0.000 A 
ATOM      3  C   UNL     1      -0.740  10.545  19.533  0.00  0.00    +0.000 A 
ATOM      4  C   UNL     1      -1.904  11.052  18.758  0.00  0.00    +0.000 A 
ATOM      5  C   UNL     1      -2.719  11.923  19.371  0.00  0.00    +0.000 A 
ATOM      6  N   UNL     1      -2.537  12.396  20.663  0.00  0.00    +0.000 N 
ATOM      7  C   UNL     1      -1.509  11.912  21.485  0.00  0.00    +0.000 A 
ATOM      8  O   UNL     1      -1.354  12.191  22.672  0.00  0.00    +0.000 OA
ATOM      9  C   UNL     1      -0.569  10.948  20.866  0.00  0.00    +0.000 A 
ATOM     10  C   UNL     1       0.460  10.418  21.654  0.00  0.00    +0.000 A 
ATOM     11  C   UNL     1       1.291   9.434  21.136  0.00  0.00    +0.000 A 
ATOM     12  F   UNL     1       2.240   8.938  21.943  0.00  0.00    +0.000 F 
ENDROOT
BRANCH   6  13
ATOM     13  C   UNL     1      -3.462  13.334  21.220  0.00  0.00    +0.000 A 
ATOM     14  C   UNL     1      -4.695  12.864  21.704  0.00  0.00    +0.000 A 
ATOM     15  C   UNL     1      -5.623  13.743  22.263  0.00  0.00    +0.000 A 
ATOM     16  C   UNL     1      -5.332  15.101  22.335  0.00  0.00    +0.000 A 
ATOM     17  C   UNL     1      -4.122  15.585  21.834  0.00  0.00    +0.000 A 
ATOM     18  C   UNL     1      -3.181  14.716  21.257  0.00  0.00    +0.000 A 
ATOM     19  C   UNL     1      -1.953  15.304  20.615  0.00  0.00    +0.000 C 
ENDBRANCH   6  13
BRANCH   1  23
ATOM     20  N   UNL     1       3.057   6.044  19.063  0.00  0.00    +0.000 N 
ATOM     21  C   UNL     1       3.383   6.962  18.136  0.00  0.00    +0.000 A 
ATOM     22  N   UNL     1       2.733   8.082  18.232  0.00  0.00    +0.000 NA
ATOM     23  N   UNL     1       1.902   7.911  19.314  0.00  0.00    +0.000 N 
ATOM     24  C   UNL     1       2.116   6.635  19.874  0.00  0.00    +0.000 A 
ATOM     25  O   UNL     1       1.596   6.125  20.855  0.00  0.00    +0.000 OA
BRANCH  20  27
ATOM     26  C   UNL     1       2.716   3.668  18.448  0.00  0.00    +0.000 C 
ATOM     27  C   UNL     1       3.527   4.680  19.239  0.00  0.00    +0.000 C 
ENDBRANCH  20  27
BRANCH  21  28
ATOM     28  C   UNL     1       4.431   6.725  17.072  0.00  0.00    +0.000 C 
BRANCH  28  29
ATOM     29  O   UNL     1       5.751   6.796  17.579  0.00  0.00    +0.000 OA
ATOM     30  H   UNL     1       5.721   6.478  18.500  0.00  0.00    +0.000 HD
ENDBRANCH  28  29
ENDBRANCH  21  28
ENDBRANCH   1  23
BRANCH   4  31
ATOM     31  C   UNL     1      -2.163  10.557  17.331  0.00  0.00    +0.000 C 
ATOM     32  C   UNL     1      -3.248   9.473  17.332  0.00  0.00    +0.000 C 
ATOM     33  C   UNL     1      -2.545  11.653  16.324  0.00  0.00    +0.000 C 
ENDBRANCH   4  31
TORSDOF 6
ENDMDL
