MODEL 1
REMARK VINA RESULT:      -7.7      0.000      0.000
REMARK  Name = 
REMARK  12 active torsions:
REMARK  status: ('A' for Active; 'I' for Inactive)
REMARK    1  A    between atoms: C_1  and  C_2
REMARK    2  A    between atoms: C_2  and  O_3
REMARK    3  A    between atoms: O_3  and  P_4
REMARK    4  A    between atoms: P_4  and  O_6
REMARK    5  A    between atoms: P_4  and  C_9
REMARK    6  A    between atoms: O_6  and  C_7
REMARK    7  A    between atoms: C_7  and  C_8
REMARK    8  A    between atoms: C_9  and  N_10
REMARK    9  A    between atoms: C_9  and  C_17
REMARK   10  A    between atoms: C_25  and  C_26
REMARK   11  A    between atoms: N_31  and  C_32
REMARK   12  A    between atoms: C_32  and  C_33
REMARK                            x       y       z     vdW  Elec       q    Type
REMARK                         _______ _______ _______ _____ _____    ______ ____
ROOT
ATOM      1  C   UNL     1       0.647  11.032  19.491  0.00  0.00    +0.000 C 
ENDROOT
BRANCH   1   2
ATOM      2  C   UNL     1       0.981   9.525  19.635  0.00  0.00    +0.000 A 
ATOM      3  C   UNL     1       0.625   8.832  20.805  0.00  0.00    +0.000 A 
ATOM      4  C   UNL     1       1.052   7.521  21.054  0.00  0.00    +0.000 A 
ATOM      5  C   UNL     1       1.903   6.917  20.116  0.00  0.00    +0.000 A 
ATOM      6  C   UNL     1       2.276   7.575  18.943  0.00  0.00    +0.000 A 
ATOM      7  C   UNL     1       1.775   8.870  18.679  0.00  0.00    +0.000 A 
ATOM      8  C   UNL     1       3.190   6.727  18.248  0.00  0.00    +0.000 A 
ATOM      9  C   UNL     1       3.926   6.881  17.055  0.00  0.00    +0.000 A 
ATOM     10  C   UNL     1       4.763   5.847  16.630  0.00  0.00    +0.000 A 
ATOM     11  C   UNL     1       4.877   4.669  17.367  0.00  0.00    +0.000 A 
ATOM     12  C   UNL     1       4.162   4.503  18.559  0.00  0.00    +0.000 A 
ATOM     13  C   UNL     1       3.328   5.550  18.984  0.00  0.00    +0.000 A 
ATOM     14  N   UNL     1       2.524   5.681  20.105  0.00  0.00    +0.000 N 
BRANCH  10  15
ATOM     15  C   UNL     1       5.545   6.006  15.388  0.00  0.00    +0.000 C 
ATOM     16  O   UNL     1       6.753   5.835  15.347  0.00  0.00    +0.000 OA
ENDBRANCH  10  15
BRANCH  14  17
ATOM     17  C   UNL     1       2.330   4.639  21.103  0.00  0.00    +0.000 C 
ATOM     18  C   UNL     1       1.226   3.654  20.750  0.00  0.00    +0.000 C 
ENDBRANCH  14  17
ENDBRANCH   1   2
BRANCH   1  19
ATOM     19  N   UNL     1       0.999  11.746  20.736  0.00  0.00    +0.000 N 
ATOM     20  C   UNL     1       1.756  12.906  20.548  0.00  0.00    +0.000 A 
ATOM     21  N   UNL     1       1.660  13.809  21.536  0.00  0.00    +0.000 NA
ATOM     22  C   UNL     1       2.405  14.930  21.409  0.00  0.00    +0.000 A 
ATOM     23  C   UNL     1       3.216  15.203  20.340  0.00  0.00    +0.000 A 
ATOM     24  C   UNL     1       3.224  14.240  19.369  0.00  0.00    +0.000 A 
ATOM     25  N   UNL     1       2.500  13.098  19.453  0.00  0.00    +0.000 NA
ATOM     26  H   UNL     1       0.237  12.031  21.329  0.00  0.00    +0.000 HD
ENDBRANCH   1  19
BRANCH   1  27
ATOM     27  P   UNL     1      -1.070  11.352  18.945  0.00  0.00    +0.000 P 
ATOM     28  O   UNL     1      -0.644  12.673  18.273  0.00  0.00    +0.000 OA
BRANCH  27  29
ATOM     29  O   UNL     1      -2.693  11.654  18.428  0.00  0.00    +0.000 OA
BRANCH  29  31
ATOM     30  C   UNL     1      -2.280   9.926  16.808  0.00  0.00    +0.000 C 
ATOM     31  C   UNL     1      -2.947  11.259  17.082  0.00  0.00    +0.000 C 
ENDBRANCH  29  31
ENDBRANCH  27  29
BRANCH  27  32
ATOM     32  O   UNL     1      -1.539  11.807  20.472  0.00  0.00    +0.000 OA
BRANCH  32  33
ATOM     33  C   UNL     1      -2.517  12.797  20.747  0.00  0.00    +0.000 C 
ATOM     34  C   UNL     1      -2.875  12.996  22.217  0.00  0.00    +0.000 C 
ENDBRANCH  32  33
ENDBRANCH  27  32
ENDBRANCH   1  27
TORSDOF 9
ENDMDL
MODEL 2
REMARK VINA RESULT:      -7.3      0.729      1.893
REMARK  Name = 
REMARK  12 active torsions:
REMARK  status: ('A' for Active; 'I' for Inactive)
REMARK    1  A    between atoms: C_1  and  C_2
REMARK    2  A    between atoms: C_2  and  O_3
REMARK    3  A    between atoms: O_3  and  P_4
REMARK    4  A    between atoms: P_4  and  O_6
REMARK    5  A    between atoms: P_4  and  C_9
REMARK    6  A    between atoms: O_6  and  C_7
REMARK    7  A    between atoms: C_7  and  C_8
REMARK    8  A    between atoms: C_9  and  N_10
REMARK    9  A    between atoms: C_9  and  C_17
REMARK   10  A    between atoms: C_25  and  C_26
REMARK   11  A    between atoms: N_31  and  C_32
REMARK   12  A    between atoms: C_32  and  C_33
REMARK                            x       y       z     vdW  Elec       q    Type
REMARK                         _______ _______ _______ _____ _____    ______ ____
ROOT
ATOM      1  C   UNL     1       0.666  11.208  19.722  0.00  0.00    +0.000 C 
ENDROOT
BRANCH   1   2
ATOM      2  C   UNL     1       0.973   9.690  19.797  0.00  0.00    +0.000 A 
ATOM      3  C   UNL     1       0.610   8.953  20.938  0.00  0.00    +0.000 A 
ATOM      4  C   UNL     1       1.015   7.625  21.127  0.00  0.00    +0.000 A 
ATOM      5  C   UNL     1       1.851   7.048  20.160  0.00  0.00    +0.000 A 
ATOM      6  C   UNL     1       2.231   7.750  19.015  0.00  0.00    +0.000 A 
ATOM      7  C   UNL     1       1.752   9.064  18.810  0.00  0.00    +0.000 A 
ATOM      8  C   UNL     1       3.127   6.918  18.279  0.00  0.00    +0.000 A 
ATOM      9  C   UNL     1       3.861   7.112  17.090  0.00  0.00    +0.000 A 
ATOM     10  C   UNL     1       4.678   6.082  16.617  0.00  0.00    +0.000 A 
ATOM     11  C   UNL     1       4.774   4.871  17.300  0.00  0.00    +0.000 A 
ATOM     12  C   UNL     1       4.061   4.665  18.488  0.00  0.00    +0.000 A 
ATOM     13  C   UNL     1       3.247   5.707  18.962  0.00  0.00    +0.000 A 
ATOM     14  N   UNL     1       2.450   5.803  20.091  0.00  0.00    +0.000 N 
BRANCH  10  15
ATOM     15  C   UNL     1       5.459   6.282  15.379  0.00  0.00    +0.000 C 
ATOM     16  O   UNL     1       6.321   5.499  15.013  0.00  0.00    +0.000 OA
ENDBRANCH  10  15
BRANCH  14  17
ATOM     17  C   UNL     1       2.241   4.721  21.043  0.00  0.00    +0.000 C 
ATOM     18  C   UNL     1       1.119   3.773  20.653  0.00  0.00    +0.000 C 
ENDBRANCH  14  17
ENDBRANCH   1   2
BRANCH   1  19
ATOM     19  N   UNL     1       1.274  11.902  20.875  0.00  0.00    +0.000 N 
ATOM     20  C   UNL     1       2.031  13.029  20.543  0.00  0.00    +0.000 A 
ATOM     21  N   UNL     1       2.160  13.933  21.527  0.00  0.00    +0.000 NA
ATOM     22  C   UNL     1       2.916  15.021  21.257  0.00  0.00    +0.000 A 
ATOM     23  C   UNL     1       3.523  15.263  20.053  0.00  0.00    +0.000 A 
ATOM     24  C   UNL     1       3.309  14.303  19.103  0.00  0.00    +0.000 A 
ATOM     25  N   UNL     1       2.565  13.192  19.327  0.00  0.00    +0.000 NA
ATOM     26  H   UNL     1       0.649  12.218  21.598  0.00  0.00    +0.000 HD
ENDBRANCH   1  19
BRANCH   1  27
ATOM     27  P   UNL     1      -1.113  11.584  19.518  0.00  0.00    +0.000 P 
ATOM     28  O   UNL     1      -1.377  11.300  21.011  0.00  0.00    +0.000 OA
BRANCH  27  29
ATOM     29  O   UNL     1      -2.795  11.939  19.326  0.00  0.00    +0.000 OA
BRANCH  29  31
ATOM     30  C   UNL     1      -4.827  12.825  20.259  0.00  0.00    +0.000 C 
ATOM     31  C   UNL     1      -3.313  12.817  20.324  0.00  0.00    +0.000 C 
ENDBRANCH  29  31
ENDBRANCH  27  29
BRANCH  27  32
ATOM     32  O   UNL     1      -1.402  10.127  18.772  0.00  0.00    +0.000 OA
BRANCH  32  33
ATOM     33  C   UNL     1      -2.510   9.868  17.926  0.00  0.00    +0.000 C 
ATOM     34  C   UNL     1      -2.264  10.034  16.429  0.00  0.00    +0.000 C 
ENDBRANCH  32  33
ENDBRANCH  27  32
ENDBRANCH   1  27
TORSDOF 9
ENDMDL
MODEL 3
REMARK VINA RESULT:      -7.2      2.556      5.197
REMARK  Name = 
REMARK  12 active torsions:
REMARK  status: ('A' for Active; 'I' for Inactive)
REMARK    1  A    between atoms: C_1  and  C_2
REMARK    2  A    between atoms: C_2  and  O_3
REMARK    3  A    between atoms: O_3  and  P_4
REMARK    4  A    between atoms: P_4  and  O_6
REMARK    5  A    between atoms: P_4  and  C_9
REMARK    6  A    between atoms: O_6  and  C_7
REMARK    7  A    between atoms: C_7  and  C_8
REMARK    8  A    between atoms: C_9  and  N_10
REMARK    9  A    between atoms: C_9  and  C_17
REMARK   10  A    between atoms: C_25  and  C_26
REMARK   11  A    between atoms: N_31  and  C_32
REMARK   12  A    between atoms: C_32  and  C_33
REMARK                            x       y       z     vdW  Elec       q    Type
REMARK                         _______ _______ _______ _____ _____    ______ ____
ROOT
ATOM      1  C   UNL     1       0.013  10.043  19.178  0.00  0.00    +0.000 C 
ENDROOT
BRANCH   1   2
ATOM      2  C   UNL     1       1.259   9.158  18.917  0.00  0.00    +0.000 A 
ATOM      3  C   UNL     1       2.124   9.454  17.849  0.00  0.00    +0.000 A 
ATOM      4  C   UNL     1       3.162   8.593  17.468  0.00  0.00    +0.000 A 
ATOM      5  C   UNL     1       3.293   7.378  18.156  0.00  0.00    +0.000 A 
ATOM      6  C   UNL     1       2.453   7.050  19.222  0.00  0.00    +0.000 A 
ATOM      7  C   UNL     1       1.459   7.967  19.635  0.00  0.00    +0.000 A 
ATOM      8  C   UNL     1       2.798   5.734  19.653  0.00  0.00    +0.000 A 
ATOM      9  C   UNL     1       2.267   4.875  20.636  0.00  0.00    +0.000 A 
ATOM     10  C   UNL     1       2.835   3.611  20.817  0.00  0.00    +0.000 A 
ATOM     11  C   UNL     1       3.916   3.193  20.044  0.00  0.00    +0.000 A 
ATOM     12  C   UNL     1       4.450   4.029  19.055  0.00  0.00    +0.000 A 
ATOM     13  C   UNL     1       3.869   5.295  18.873  0.00  0.00    +0.000 A 
ATOM     14  N   UNL     1       4.163   6.316  17.983  0.00  0.00    +0.000 N 
BRANCH  10  15
ATOM     15  C   UNL     1       2.276   2.701  21.838  0.00  0.00    +0.000 C 
ATOM     16  O   UNL     1       1.075   2.553  21.998  0.00  0.00    +0.000 OA
ENDBRANCH  10  15
BRANCH  14  17
ATOM     17  C   UNL     1       5.267   6.286  17.034  0.00  0.00    +0.000 C 
ATOM     18  C   UNL     1       4.980   5.462  15.789  0.00  0.00    +0.000 C 
ENDBRANCH  14  17
ENDBRANCH   1   2
BRANCH   1  19
ATOM     19  N   UNL     1      -0.384  10.732  17.933  0.00  0.00    +0.000 N 
ATOM     20  C   UNL     1      -1.729  10.578  17.587  0.00  0.00    +0.000 A 
ATOM     21  N   UNL     1      -2.225  11.549  16.803  0.00  0.00    +0.000 NA
ATOM     22  C   UNL     1      -3.514  11.418  16.416  0.00  0.00    +0.000 A 
ATOM     23  C   UNL     1      -4.334  10.387  16.791  0.00  0.00    +0.000 A 
ATOM     24  C   UNL     1      -3.751   9.464  17.614  0.00  0.00    +0.000 A 
ATOM     25  N   UNL     1      -2.462   9.547  18.025  0.00  0.00    +0.000 NA
ATOM     26  H   UNL     1      -0.220  11.724  17.889  0.00  0.00    +0.000 HD
ENDBRANCH   1  19
BRANCH   1  27
ATOM     27  P   UNL     1       0.211  11.184  20.595  0.00  0.00    +0.000 P 
ATOM     28  O   UNL     1      -1.314  11.396  20.678  0.00  0.00    +0.000 OA
BRANCH  27  29
ATOM     29  O   UNL     1       0.398  12.263  21.934  0.00  0.00    +0.000 OA
BRANCH  29  31
ATOM     30  C   UNL     1      -0.866  13.957  23.081  0.00  0.00    +0.000 C 
ATOM     31  C   UNL     1      -0.813  12.506  22.646  0.00  0.00    +0.000 C 
ENDBRANCH  29  31
ENDBRANCH  27  29
BRANCH  27  32
ATOM     32  O   UNL     1       0.739  12.415  19.612  0.00  0.00    +0.000 OA
BRANCH  32  33
ATOM     33  C   UNL     1       2.071  12.902  19.584  0.00  0.00    +0.000 C 
ATOM     34  C   UNL     1       2.647  13.199  18.202  0.00  0.00    +0.000 C 
ENDBRANCH  32  33
ENDBRANCH  27  32
ENDBRANCH   1  27
TORSDOF 9
ENDMDL
MODEL 4
REMARK VINA RESULT:      -7.2      2.517      5.001
REMARK  Name = 
REMARK  12 active torsions:
REMARK  status: ('A' for Active; 'I' for Inactive)
REMARK    1  A    between atoms: C_1  and  C_2
REMARK    2  A    between atoms: C_2  and  O_3
REMARK    3  A    between atoms: O_3  and  P_4
REMARK    4  A    between atoms: P_4  and  O_6
REMARK    5  A    between atoms: P_4  and  C_9
REMARK    6  A    between atoms: O_6  and  C_7
REMARK    7  A    between atoms: C_7  and  C_8
REMARK    8  A    between atoms: C_9  and  N_10
REMARK    9  A    between atoms: C_9  and  C_17
REMARK   10  A    between atoms: C_25  and  C_26
REMARK   11  A    between atoms: N_31  and  C_32
REMARK   12  A    between atoms: C_32  and  C_33
REMARK                            x       y       z     vdW  Elec       q    Type
REMARK                         _______ _______ _______ _____ _____    ______ ____
ROOT
ATOM      1  C   UNL     1       0.323  10.702  19.286  0.00  0.00    +0.000 C 
ENDROOT
BRANCH   1   2
ATOM      2  C   UNL     1       1.381   9.623  18.940  0.00  0.00    +0.000 A 
ATOM      3  C   UNL     1       2.208   9.782  17.814  0.00  0.00    +0.000 A 
ATOM      4  C   UNL     1       3.056   8.762  17.362  0.00  0.00    +0.000 A 
ATOM      5  C   UNL     1       3.027   7.534  18.040  0.00  0.00    +0.000 A 
ATOM      6  C   UNL     1       2.219   7.341  19.162  0.00  0.00    +0.000 A 
ATOM      7  C   UNL     1       1.425   8.408  19.642  0.00  0.00    +0.000 A 
ATOM      8  C   UNL     1       2.366   5.981  19.569  0.00  0.00    +0.000 A 
ATOM      9  C   UNL     1       1.767   5.212  20.587  0.00  0.00    +0.000 A 
ATOM     10  C   UNL     1       2.124   3.869  20.729  0.00  0.00    +0.000 A 
ATOM     11  C   UNL     1       3.064   3.284  19.882  0.00  0.00    +0.000 A 
ATOM     12  C   UNL     1       3.661   4.029  18.859  0.00  0.00    +0.000 A 
ATOM     13  C   UNL     1       3.292   5.377  18.716  0.00  0.00    +0.000 A 
ATOM     14  N   UNL     1       3.692   6.343  17.808  0.00  0.00    +0.000 N 
BRANCH  10  15
ATOM     15  C   UNL     1       1.491   3.055  21.786  0.00  0.00    +0.000 C 
ATOM     16  O   UNL     1       1.920   1.961  22.118  0.00  0.00    +0.000 OA
ENDBRANCH  10  15
BRANCH  14  17
ATOM     17  C   UNL     1       4.707   6.138  16.784  0.00  0.00    +0.000 C 
ATOM     18  C   UNL     1       6.100   6.573  17.210  0.00  0.00    +0.000 C 
ENDBRANCH  14  17
ENDBRANCH   1   2
BRANCH   1  19
ATOM     19  N   UNL     1      -0.250  11.261  18.044  0.00  0.00    +0.000 N 
ATOM     20  C   UNL     1      -1.573  10.886  17.794  0.00  0.00    +0.000 A 
ATOM     21  N   UNL     1      -2.260  11.730  17.008  0.00  0.00    +0.000 NA
ATOM     22  C   UNL     1      -3.533  11.385  16.712  0.00  0.00    +0.000 A 
ATOM     23  C   UNL     1      -4.158  10.259  17.179  0.00  0.00    +0.000 A 
ATOM     24  C   UNL     1      -3.390   9.477  17.997  0.00  0.00    +0.000 A 
ATOM     25  N   UNL     1      -2.108   9.777  18.318  0.00  0.00    +0.000 NA
ATOM     26  H   UNL     1      -0.247  12.264  17.952  0.00  0.00    +0.000 HD
ENDBRANCH   1  19
BRANCH   1  27
ATOM     27  P   UNL     1       0.939  11.989  20.432  0.00  0.00    +0.000 P 
ATOM     28  O   UNL     1       1.156  10.941  21.543  0.00  0.00    +0.000 OA
BRANCH  27  29
ATOM     29  O   UNL     1       1.522  13.205  21.515  0.00  0.00    +0.000 OA
BRANCH  29  31
ATOM     30  C   UNL     1       2.234  14.457  19.589  0.00  0.00    +0.000 C 
ATOM     31  C   UNL     1       2.594  13.980  20.982  0.00  0.00    +0.000 C 
ENDBRANCH  29  31
ENDBRANCH  27  29
BRANCH  27  32
ATOM     32  O   UNL     1      -0.594  12.565  20.712  0.00  0.00    +0.000 OA
BRANCH  32  33
ATOM     33  C   UNL     1      -1.564  11.904  21.509  0.00  0.00    +0.000 C 
ATOM     34  C   UNL     1      -1.677  12.378  22.955  0.00  0.00    +0.000 C 
ENDBRANCH  32  33
ENDBRANCH  27  32
ENDBRANCH   1  27
TORSDOF 9
ENDMDL
MODEL 5
REMARK VINA RESULT:      -7.1      2.699      8.990
REMARK  Name = 
REMARK  12 active torsions:
REMARK  status: ('A' for Active; 'I' for Inactive)
REMARK    1  A    between atoms: C_1  and  C_2
REMARK    2  A    between atoms: C_2  and  O_3
REMARK    3  A    between atoms: O_3  and  P_4
REMARK    4  A    between atoms: P_4  and  O_6
REMARK    5  A    between atoms: P_4  and  C_9
REMARK    6  A    between atoms: O_6  and  C_7
REMARK    7  A    between atoms: C_7  and  C_8
REMARK    8  A    between atoms: C_9  and  N_10
REMARK    9  A    between atoms: C_9  and  C_17
REMARK   10  A    between atoms: C_25  and  C_26
REMARK   11  A    between atoms: N_31  and  C_32
REMARK   12  A    between atoms: C_32  and  C_33
REMARK                            x       y       z     vdW  Elec       q    Type
REMARK                         _______ _______ _______ _____ _____    ______ ____
ROOT
ATOM      1  C   UNL     1       2.535   6.660  18.695  0.00  0.00    +0.000 C 
ENDROOT
BRANCH   1   2
ATOM      2  C   UNL     1       2.096   8.143  18.602  0.00  0.00    +0.000 A 
ATOM      3  C   UNL     1       2.737   9.014  17.704  0.00  0.00    +0.000 A 
ATOM      4  C   UNL     1       2.496  10.394  17.703  0.00  0.00    +0.000 A 
ATOM      5  C   UNL     1       1.621  10.909  18.670  0.00  0.00    +0.000 A 
ATOM      6  C   UNL     1       0.966  10.075  19.576  0.00  0.00    +0.000 A 
ATOM      7  C   UNL     1       1.169   8.677  19.512  0.00  0.00    +0.000 A 
ATOM      8  C   UNL     1       0.212  10.906  20.459  0.00  0.00    +0.000 A 
ATOM      9  C   UNL     1      -0.590  10.633  21.586  0.00  0.00    +0.000 A 
ATOM     10  C   UNL     1      -1.205  11.692  22.259  0.00  0.00    +0.000 A 
ATOM     11  C   UNL     1      -1.038  13.008  21.830  0.00  0.00    +0.000 A 
ATOM     12  C   UNL     1      -0.237  13.298  20.720  0.00  0.00    +0.000 A 
ATOM     13  C   UNL     1       0.385  12.230  20.052  0.00  0.00    +0.000 A 
ATOM     14  N   UNL     1       1.230  12.206  18.954  0.00  0.00    +0.000 N 
BRANCH  10  15
ATOM     15  C   UNL     1      -2.037  11.414  23.447  0.00  0.00    +0.000 C 
ATOM     16  O   UNL     1      -3.174  11.841  23.567  0.00  0.00    +0.000 OA
ENDBRANCH  10  15
BRANCH  14  17
ATOM     17  C   UNL     1       1.610  13.382  18.184  0.00  0.00    +0.000 C 
ATOM     18  C   UNL     1       2.953  13.968  18.588  0.00  0.00    +0.000 C 
ENDBRANCH  14  17
ENDBRANCH   1   2
BRANCH   1  19
ATOM     19  N   UNL     1       2.634   6.252  20.112  0.00  0.00    +0.000 N 
ATOM     20  C   UNL     1       2.139   4.974  20.386  0.00  0.00    +0.000 A 
ATOM     21  N   UNL     1       2.650   4.394  21.483  0.00  0.00    +0.000 NA
ATOM     22  C   UNL     1       2.171   3.170  21.803  0.00  0.00    +0.000 A 
ATOM     23  C   UNL     1       1.233   2.492  21.072  0.00  0.00    +0.000 A 
ATOM     24  C   UNL     1       0.795   3.148  19.955  0.00  0.00    +0.000 A 
ATOM     25  N   UNL     1       1.240   4.376  19.595  0.00  0.00    +0.000 NA
ATOM     26  H   UNL     1       3.551   6.266  20.528  0.00  0.00    +0.000 HD
ENDBRANCH   1  19
BRANCH   1  27
ATOM     27  P   UNL     1       4.048   6.284  17.737  0.00  0.00    +0.000 P 
ATOM     28  O   UNL     1       3.455   4.940  17.266  0.00  0.00    +0.000 OA
BRANCH  27  29
ATOM     29  O   UNL     1       5.479   5.929  16.831  0.00  0.00    +0.000 OA
BRANCH  29  31
ATOM     30  C   UNL     1       6.062   4.794  14.792  0.00  0.00    +0.000 C 
ATOM     31  C   UNL     1       5.276   5.929  15.420  0.00  0.00    +0.000 C 
ENDBRANCH  29  31
ENDBRANCH  27  29
BRANCH  27  32
ATOM     32  O   UNL     1       4.898   5.892  19.110  0.00  0.00    +0.000 OA
BRANCH  32  33
ATOM     33  C   UNL     1       6.014   5.017  19.138  0.00  0.00    +0.000 C 
ATOM     34  C   UNL     1       7.344   5.639  19.554  0.00  0.00    +0.000 C 
ENDBRANCH  32  33
ENDBRANCH  27  32
ENDBRANCH   1  27
TORSDOF 9
ENDMDL
MODEL 6
REMARK VINA RESULT:      -7.1      1.946      3.582
REMARK  Name = 
REMARK  12 active torsions:
REMARK  status: ('A' for Active; 'I' for Inactive)
REMARK    1  A    between atoms: C_1  and  C_2
REMARK    2  A    between atoms: C_2  and  O_3
REMARK    3  A    between atoms: O_3  and  P_4
REMARK    4  A    between atoms: P_4  and  O_6
REMARK    5  A    between atoms: P_4  and  C_9
REMARK    6  A    between atoms: O_6  and  C_7
REMARK    7  A    between atoms: C_7  and  C_8
REMARK    8  A    between atoms: C_9  and  N_10
REMARK    9  A    between atoms: C_9  and  C_17
REMARK   10  A    between atoms: C_25  and  C_26
REMARK   11  A    between atoms: N_31  and  C_32
REMARK   12  A    between atoms: C_32  and  C_33
REMARK                            x       y       z     vdW  Elec       q    Type
REMARK                         _______ _______ _______ _____ _____    ______ ____
ROOT
ATOM      1  C   UNL     1       0.427  11.238  20.051  0.00  0.00    +0.000 C 
ENDROOT
BRANCH   1   2
ATOM      2  C   UNL     1       0.769   9.726  20.071  0.00  0.00    +0.000 A 
ATOM      3  C   UNL     1       0.429   8.941  21.187  0.00  0.00    +0.000 A 
ATOM      4  C   UNL     1       0.865   7.616  21.328  0.00  0.00    +0.000 A 
ATOM      5  C   UNL     1       1.708   7.093  20.336  0.00  0.00    +0.000 A 
ATOM      6  C   UNL     1       2.065   7.843  19.215  0.00  0.00    +0.000 A 
ATOM      7  C   UNL     1       1.555   9.152  19.058  0.00  0.00    +0.000 A 
ATOM      8  C   UNL     1       2.975   7.058  18.444  0.00  0.00    +0.000 A 
ATOM      9  C   UNL     1       3.697   7.310  17.260  0.00  0.00    +0.000 A 
ATOM     10  C   UNL     1       4.534   6.316  16.746  0.00  0.00    +0.000 A 
ATOM     11  C   UNL     1       4.661   5.084  17.386  0.00  0.00    +0.000 A 
ATOM     12  C   UNL     1       3.961   4.821  18.569  0.00  0.00    +0.000 A 
ATOM     13  C   UNL     1       3.127   5.827  19.084  0.00  0.00    +0.000 A 
ATOM     14  N   UNL     1       2.335   5.865  20.220  0.00  0.00    +0.000 N 
BRANCH  10  15
ATOM     15  C   UNL     1       5.302   6.577  15.512  0.00  0.00    +0.000 C 
ATOM     16  O   UNL     1       6.346   6.000  15.254  0.00  0.00    +0.000 OA
ENDBRANCH  10  15
BRANCH  14  17
ATOM     17  C   UNL     1       2.156   4.746  21.135  0.00  0.00    +0.000 C 
ATOM     18  C   UNL     1       1.139   3.723  20.656  0.00  0.00    +0.000 C 
ENDBRANCH  14  17
ENDBRANCH   1   2
BRANCH   1  19
ATOM     19  N   UNL     1      -1.017  11.423  19.800  0.00  0.00    +0.000 N 
ATOM     20  C   UNL     1      -1.741  11.902  20.896  0.00  0.00    +0.000 A 
ATOM     21  N   UNL     1      -2.880  12.540  20.585  0.00  0.00    +0.000 NA
ATOM     22  C   UNL     1      -3.628  12.987  21.619  0.00  0.00    +0.000 A 
ATOM     23  C   UNL     1      -3.285  12.851  22.938  0.00  0.00    +0.000 A 
ATOM     24  C   UNL     1      -2.093  12.216  23.155  0.00  0.00    +0.000 A 
ATOM     25  N   UNL     1      -1.311  11.745  22.154  0.00  0.00    +0.000 NA
ATOM     26  H   UNL     1      -1.273  12.031  19.039  0.00  0.00    +0.000 HD
ENDBRANCH   1  19
BRANCH   1  27
ATOM     27  P   UNL     1       1.480  12.210  18.913  0.00  0.00    +0.000 P 
ATOM     28  O   UNL     1       2.256  12.817  20.100  0.00  0.00    +0.000 OA
BRANCH  27  29
ATOM     29  O   UNL     1       2.476  13.129  17.838  0.00  0.00    +0.000 OA
BRANCH  29  31
ATOM     30  C   UNL     1       3.679  15.207  17.701  0.00  0.00    +0.000 C 
ATOM     31  C   UNL     1       3.437  13.945  18.505  0.00  0.00    +0.000 C 
ENDBRANCH  29  31
ENDBRANCH  27  29
BRANCH  27  32
ATOM     32  O   UNL     1       0.265  13.305  18.620  0.00  0.00    +0.000 OA
BRANCH  32  33
ATOM     33  C   UNL     1       0.073  14.502  19.356  0.00  0.00    +0.000 C 
ATOM     34  C   UNL     1       0.115  15.797  18.550  0.00  0.00    +0.000 C 
ENDBRANCH  32  33
ENDBRANCH  27  32
ENDBRANCH   1  27
TORSDOF 9
ENDMDL
MODEL 7
REMARK VINA RESULT:      -7.0      2.791      5.127
REMARK  Name = 
REMARK  12 active torsions:
REMARK  status: ('A' for Active; 'I' for Inactive)
REMARK    1  A    between atoms: C_1  and  C_2
REMARK    2  A    between atoms: C_2  and  O_3
REMARK    3  A    between atoms: O_3  and  P_4
REMARK    4  A    between atoms: P_4  and  O_6
REMARK    5  A    between atoms: P_4  and  C_9
REMARK    6  A    between atoms: O_6  and  C_7
REMARK    7  A    between atoms: C_7  and  C_8
REMARK    8  A    between atoms: C_9  and  N_10
REMARK    9  A    between atoms: C_9  and  C_17
REMARK   10  A    between atoms: C_25  and  C_26
REMARK   11  A    between atoms: N_31  and  C_32
REMARK   12  A    between atoms: C_32  and  C_33
REMARK                            x       y       z     vdW  Elec       q    Type
REMARK                         _______ _______ _______ _____ _____    ______ ____
ROOT
ATOM      1  C   UNL     1       0.130  10.147  19.162  0.00  0.00    +0.000 C 
ENDROOT
BRANCH   1   2
ATOM      2  C   UNL     1       1.315   9.194  18.861  0.00  0.00    +0.000 A 
ATOM      3  C   UNL     1       2.229   9.505  17.840  0.00  0.00    +0.000 A 
ATOM      4  C   UNL     1       3.211   8.600  17.417  0.00  0.00    +0.000 A 
ATOM      5  C   UNL     1       3.233   7.329  18.010  0.00  0.00    +0.000 A 
ATOM      6  C   UNL     1       2.342   6.986  19.027  0.00  0.00    +0.000 A 
ATOM      7  C   UNL     1       1.406   7.940  19.488  0.00  0.00    +0.000 A 
ATOM      8  C   UNL     1       2.578   5.618  19.362  0.00  0.00    +0.000 A 
ATOM      9  C   UNL     1       1.957   4.728  20.263  0.00  0.00    +0.000 A 
ATOM     10  C   UNL     1       2.426   3.416  20.358  0.00  0.00    +0.000 A 
ATOM     11  C   UNL     1       3.496   2.978  19.579  0.00  0.00    +0.000 A 
ATOM     12  C   UNL     1       4.117   3.845  18.671  0.00  0.00    +0.000 A 
ATOM     13  C   UNL     1       3.636   5.161  18.575  0.00  0.00    +0.000 A 
ATOM     14  N   UNL     1       4.028   6.222  17.775  0.00  0.00    +0.000 N 
BRANCH  10  15
ATOM     15  C   UNL     1       1.773   2.475  21.291  0.00  0.00    +0.000 C 
ATOM     16  O   UNL     1       1.540   2.761  22.454  0.00  0.00    +0.000 OA
ENDBRANCH  10  15
BRANCH  14  17
ATOM     17  C   UNL     1       5.154   6.181  16.852  0.00  0.00    +0.000 C 
ATOM     18  C   UNL     1       6.465   6.644  17.467  0.00  0.00    +0.000 C 
ENDBRANCH  14  17
ENDBRANCH   1   2
BRANCH   1  19
ATOM     19  N   UNL     1      -0.325  10.794  17.914  0.00  0.00    +0.000 N 
ATOM     20  C   UNL     1      -1.688  10.645  17.644  0.00  0.00    +0.000 A 
ATOM     21  N   UNL     1      -2.213  11.592  16.851  0.00  0.00    +0.000 NA
ATOM     22  C   UNL     1      -3.522  11.464  16.537  0.00  0.00    +0.000 A 
ATOM     23  C   UNL     1      -4.333  10.459  16.993  0.00  0.00    +0.000 A 
ATOM     24  C   UNL     1      -3.718   9.560  17.820  0.00  0.00    +0.000 A 
ATOM     25  N   UNL     1      -2.408   9.642  18.159  0.00  0.00    +0.000 NA
ATOM     26  H   UNL     1      -0.152  11.782  17.824  0.00  0.00    +0.000 HD
ENDBRANCH   1  19
BRANCH   1  27
ATOM     27  P   UNL     1       0.476  11.344  20.502  0.00  0.00    +0.000 P 
ATOM     28  O   UNL     1       1.547  12.045  19.643  0.00  0.00    +0.000 OA
BRANCH  27  29
ATOM     29  O   UNL     1       0.803  12.475  21.769  0.00  0.00    +0.000 OA
BRANCH  29  31
ATOM     30  C   UNL     1      -0.437  14.354  22.616  0.00  0.00    +0.000 C 
ATOM     31  C   UNL     1       0.390  13.806  21.469  0.00  0.00    +0.000 C 
ENDBRANCH  29  31
ENDBRANCH  27  29
BRANCH  27  32
ATOM     32  O   UNL     1       1.331  10.217  21.375  0.00  0.00    +0.000 OA
BRANCH  32  33
ATOM     33  C   UNL     1       0.884   9.640  22.591  0.00  0.00    +0.000 C 
ATOM     34  C   UNL     1      -0.546   9.107  22.594  0.00  0.00    +0.000 C 
ENDBRANCH  32  33
ENDBRANCH  27  32
ENDBRANCH   1  27
TORSDOF 9
ENDMDL
MODEL 8
REMARK VINA RESULT:      -7.0      1.201      1.731
REMARK  Name = 
REMARK  12 active torsions:
REMARK  status: ('A' for Active; 'I' for Inactive)
REMARK    1  A    between atoms: C_1  and  C_2
REMARK    2  A    between atoms: C_2  and  O_3
REMARK    3  A    between atoms: O_3  and  P_4
REMARK    4  A    between atoms: P_4  and  O_6
REMARK    5  A    between atoms: P_4  and  C_9
REMARK    6  A    between atoms: O_6  and  C_7
REMARK    7  A    between atoms: C_7  and  C_8
REMARK    8  A    between atoms: C_9  and  N_10
REMARK    9  A    between atoms: C_9  and  C_17
REMARK   10  A    between atoms: C_25  and  C_26
REMARK   11  A    between atoms: N_31  and  C_32
REMARK   12  A    between atoms: C_32  and  C_33
REMARK                            x       y       z     vdW  Elec       q    Type
REMARK                         _______ _______ _______ _____ _____    ______ ____
ROOT
ATOM      1  C   UNL     1       0.619  11.256  19.776  0.00  0.00    +0.000 C 
ENDROOT
BRANCH   1   2
ATOM      2  C   UNL     1       0.914   9.736  19.851  0.00  0.00    +0.000 A 
ATOM      3  C   UNL     1       0.534   8.998  20.986  0.00  0.00    +0.000 A 
ATOM      4  C   UNL     1       0.927   7.667  21.176  0.00  0.00    +0.000 A 
ATOM      5  C   UNL     1       1.769   7.087  20.216  0.00  0.00    +0.000 A 
ATOM      6  C   UNL     1       2.166   7.789  19.077  0.00  0.00    +0.000 A 
ATOM      7  C   UNL     1       1.698   9.106  18.870  0.00  0.00    +0.000 A 
ATOM      8  C   UNL     1       3.064   6.952  18.348  0.00  0.00    +0.000 A 
ATOM      9  C   UNL     1       3.811   7.142  17.168  0.00  0.00    +0.000 A 
ATOM     10  C   UNL     1       4.625   6.108  16.700  0.00  0.00    +0.000 A 
ATOM     11  C   UNL     1       4.705   4.895  17.381  0.00  0.00    +0.000 A 
ATOM     12  C   UNL     1       3.978   4.691  18.561  0.00  0.00    +0.000 A 
ATOM     13  C   UNL     1       3.167   5.738  19.029  0.00  0.00    +0.000 A 
ATOM     14  N   UNL     1       2.360   5.837  20.151  0.00  0.00    +0.000 N 
BRANCH  10  15
ATOM     15  C   UNL     1       5.420   6.305  15.471  0.00  0.00    +0.000 C 
ATOM     16  O   UNL     1       6.561   5.888  15.353  0.00  0.00    +0.000 OA
ENDBRANCH  10  15
BRANCH  14  17
ATOM     17  C   UNL     1       2.133   4.755  21.098  0.00  0.00    +0.000 C 
ATOM     18  C   UNL     1       1.081   3.756  20.643  0.00  0.00    +0.000 C 
ENDBRANCH  14  17
ENDBRANCH   1   2
BRANCH   1  19
ATOM     19  N   UNL     1       1.343  11.963  20.852  0.00  0.00    +0.000 N 
ATOM     20  C   UNL     1       2.164  13.005  20.414  0.00  0.00    +0.000 A 
ATOM     21  N   UNL     1       2.418  13.949  21.334  0.00  0.00    +0.000 NA
ATOM     22  C   UNL     1       3.239  14.957  20.959  0.00  0.00    +0.000 A 
ATOM     23  C   UNL     1       3.793  15.082  19.713  0.00  0.00    +0.000 A 
ATOM     24  C   UNL     1       3.452  14.090  18.835  0.00  0.00    +0.000 A 
ATOM     25  N   UNL     1       2.640  13.057  19.164  0.00  0.00    +0.000 NA
ATOM     26  H   UNL     1       0.786  12.368  21.587  0.00  0.00    +0.000 HD
ENDBRANCH   1  19
BRANCH   1  27
ATOM     27  P   UNL     1      -1.167  11.652  19.737  0.00  0.00    +0.000 P 
ATOM     28  O   UNL     1      -1.255  11.256  18.249  0.00  0.00    +0.000 OA
BRANCH  27  29
ATOM     29  O   UNL     1      -2.856  12.027  19.700  0.00  0.00    +0.000 OA
BRANCH  29  31
ATOM     30  C   UNL     1      -3.786  12.628  21.834  0.00  0.00    +0.000 C 
ATOM     31  C   UNL     1      -3.214  13.133  20.524  0.00  0.00    +0.000 C 
ENDBRANCH  29  31
ENDBRANCH  27  29
BRANCH  27  32
ATOM     32  O   UNL     1      -0.869  13.287  19.704  0.00  0.00    +0.000 OA
BRANCH  32  33
ATOM     33  C   UNL     1      -0.518  14.013  18.538  0.00  0.00    +0.000 C 
ATOM     34  C   UNL     1      -0.130  15.474  18.749  0.00  0.00    +0.000 C 
ENDBRANCH  32  33
ENDBRANCH  27  32
ENDBRANCH   1  27
TORSDOF 9
ENDMDL
MODEL 9
REMARK VINA RESULT:      -6.9      1.079      1.261
REMARK  Name = 
REMARK  12 active torsions:
REMARK  status: ('A' for Active; 'I' for Inactive)
REMARK    1  A    between atoms: C_1  and  C_2
REMARK    2  A    between atoms: C_2  and  O_3
REMARK    3  A    between atoms: O_3  and  P_4
REMARK    4  A    between atoms: P_4  and  O_6
REMARK    5  A    between atoms: P_4  and  C_9
REMARK    6  A    between atoms: O_6  and  C_7
REMARK    7  A    between atoms: C_7  and  C_8
REMARK    8  A    between atoms: C_9  and  N_10
REMARK    9  A    between atoms: C_9  and  C_17
REMARK   10  A    between atoms: C_25  and  C_26
REMARK   11  A    between atoms: N_31  and  C_32
REMARK   12  A    between atoms: C_32  and  C_33
REMARK                            x       y       z     vdW  Elec       q    Type
REMARK                         _______ _______ _______ _____ _____    ______ ____
ROOT
ATOM      1  C   UNL     1       0.768  10.965  19.285  0.00  0.00    +0.000 C 
ENDROOT
BRANCH   1   2
ATOM      2  C   UNL     1       1.101   9.463  19.470  0.00  0.00    +0.000 A 
ATOM      3  C   UNL     1       0.753   8.804  20.662  0.00  0.00    +0.000 A 
ATOM      4  C   UNL     1       1.182   7.500  20.946  0.00  0.00    +0.000 A 
ATOM      5  C   UNL     1       2.026   6.869  20.020  0.00  0.00    +0.000 A 
ATOM      6  C   UNL     1       2.391   7.493  18.826  0.00  0.00    +0.000 A 
ATOM      7  C   UNL     1       1.889   8.780  18.528  0.00  0.00    +0.000 A 
ATOM      8  C   UNL     1       3.300   6.625  18.149  0.00  0.00    +0.000 A 
ATOM      9  C   UNL     1       4.028   6.744  16.948  0.00  0.00    +0.000 A 
ATOM     10  C   UNL     1       4.862   5.697  16.547  0.00  0.00    +0.000 A 
ATOM     11  C   UNL     1       4.980   4.541  17.317  0.00  0.00    +0.000 A 
ATOM     12  C   UNL     1       4.273   4.409  18.518  0.00  0.00    +0.000 A 
ATOM     13  C   UNL     1       3.443   5.469  18.918  0.00  0.00    +0.000 A 
ATOM     14  N   UNL     1       2.647   5.633  20.040  0.00  0.00    +0.000 N 
BRANCH  10  15
ATOM     15  C   UNL     1       5.636   5.820  15.296  0.00  0.00    +0.000 C 
ATOM     16  O   UNL     1       6.847   5.667  15.255  0.00  0.00    +0.000 OA
ENDBRANCH  10  15
BRANCH  14  17
ATOM     17  C   UNL     1       2.458   4.620  21.069  0.00  0.00    +0.000 C 
ATOM     18  C   UNL     1       1.283   3.693  20.805  0.00  0.00    +0.000 C 
ENDBRANCH  14  17
ENDBRANCH   1   2
BRANCH   1  19
ATOM     19  N   UNL     1       1.466  11.765  20.312  0.00  0.00    +0.000 N 
ATOM     20  C   UNL     1       2.148  12.880  19.817  0.00  0.00    +0.000 A 
ATOM     21  N   UNL     1       2.346  13.863  20.709  0.00  0.00    +0.000 NA
ATOM     22  C   UNL     1       3.034  14.945  20.278  0.00  0.00    +0.000 A 
ATOM     23  C   UNL     1       3.509  15.103  19.003  0.00  0.00    +0.000 A 
ATOM     24  C   UNL     1       3.231  14.065  18.158  0.00  0.00    +0.000 A 
ATOM     25  N   UNL     1       2.551  12.958  18.543  0.00  0.00    +0.000 NA
ATOM     26  H   UNL     1       0.906  12.123  21.069  0.00  0.00    +0.000 HD
ENDBRANCH   1  19
BRANCH   1  27
ATOM     27  P   UNL     1      -1.028  11.311  19.208  0.00  0.00    +0.000 P 
ATOM     28  O   UNL     1      -0.799  12.443  18.187  0.00  0.00    +0.000 OA
BRANCH  27  29
ATOM     29  O   UNL     1      -2.725  11.637  19.136  0.00  0.00    +0.000 OA
BRANCH  29  31
ATOM     30  C   UNL     1      -4.592  12.833  20.068  0.00  0.00    +0.000 C 
ATOM     31  C   UNL     1      -3.103  12.850  19.785  0.00  0.00    +0.000 C 
ENDBRANCH  29  31
ENDBRANCH  27  29
BRANCH  27  32
ATOM     32  O   UNL     1      -1.008  12.082  20.680  0.00  0.00    +0.000 OA
BRANCH  32  33
ATOM     33  C   UNL     1      -1.153  11.427  21.929  0.00  0.00    +0.000 C 
ATOM     34  C   UNL     1      -1.462  12.324  23.125  0.00  0.00    +0.000 C 
ENDBRANCH  32  33
ENDBRANCH  27  32
ENDBRANCH   1  27
TORSDOF 9
ENDMDL
