MODEL 1
REMARK VINA RESULT:      -7.9      0.000      0.000
REMARK  Name = 
REMARK  6 active torsions:
REMARK  status: ('A' for Active; 'I' for Inactive)
REMARK    1  A    between atoms: C_3  and  N_4
REMARK    2  A    between atoms: N_4  and  C_5
REMARK    3  A    between atoms: C_5  and  C_6
REMARK    4  A    between atoms: C_10  and  O_11
REMARK    5  A    between atoms: N_15  and  C_16
REMARK    6  A    between atoms: C_16  and  C_17
REMARK                            x       y       z     vdW  Elec       q    Type
REMARK                         _______ _______ _______ _____ _____    ______ ____
ROOT
ATOM      1  O   UNL     1       6.610   4.874  18.984  0.00  0.00    +0.000 OA
ATOM      2  C   UNL     1       5.864   5.617  18.367  0.00  0.00    +0.000 C 
ATOM      3  C   UNL     1       6.225   6.526  17.180  0.00  0.00    +0.000 C 
ATOM      4  C   UNL     1       4.856   6.706  16.517  0.00  0.00    +0.000 C 
ATOM      5  C   UNL     1       3.901   6.735  17.699  0.00  0.00    +0.000 C 
ATOM      6  N   UNL     1       4.516   5.837  18.644  0.00  0.00    +0.000 N 
ENDROOT
BRANCH   3   7
ATOM      7  N   UNL     1       7.258   5.951  16.314  0.00  0.00    +0.000 NA
ATOM      8  H   UNL     1       8.162   5.941  16.785  0.00  0.00    +0.000 HD
BRANCH   7   9
ATOM      9  C   UNL     1       6.911   4.605  15.867  0.00  0.00    +0.000 C 
BRANCH   9  10
ATOM     10  C   UNL     1       6.958   4.486  14.362  0.00  0.00    +0.000 A 
ATOM     11  C   UNL     1       7.777   5.336  13.601  0.00  0.00    +0.000 A 
ATOM     12  C   UNL     1       7.798   5.245  12.209  0.00  0.00    +0.000 A 
ATOM     13  C   UNL     1       6.998   4.307  11.555  0.00  0.00    +0.000 A 
ATOM     14  C   UNL     1       6.186   3.465  12.305  0.00  0.00    +0.000 A 
ATOM     15  C   UNL     1       6.154   3.548  13.698  0.00  0.00    +0.000 A 
BRANCH  14  16
ATOM     16  O   UNL     1       5.384   2.536  11.711  0.00  0.00    +0.000 OA
ATOM     17  H   UNL     1       5.543   2.561  10.754  0.00  0.00    +0.000 HD
ENDBRANCH  14  16
ENDBRANCH   9  10
ENDBRANCH   7   9
ENDBRANCH   3   7
BRANCH   6  18
ATOM     18  C   UNL     1       3.820   5.313  19.804  0.00  0.00    +0.000 C 
BRANCH  18  19
ATOM     19  C   UNL     1       2.825   4.214  19.500  0.00  0.00    +0.000 A 
ATOM     20  C   UNL     1       1.612   4.133  20.203  0.00  0.00    +0.000 A 
ATOM     21  C   UNL     1       0.635   3.199  19.840  0.00  0.00    +0.000 A 
ATOM     22  C   UNL     1       0.859   2.329  18.776  0.00  0.00    +0.000 A 
ATOM     23  C   UNL     1       2.066   2.383  18.081  0.00  0.00    +0.000 A 
ATOM     24  C   UNL     1       3.043   3.317  18.443  0.00  0.00    +0.000 A 
ENDBRANCH  18  19
ENDBRANCH   6  18
TORSDOF 6
ENDMDL
MODEL 2
REMARK VINA RESULT:      -7.8      0.772      1.167
REMARK  Name = 
REMARK  6 active torsions:
REMARK  status: ('A' for Active; 'I' for Inactive)
REMARK    1  A    between atoms: C_3  and  N_4
REMARK    2  A    between atoms: N_4  and  C_5
REMARK    3  A    between atoms: C_5  and  C_6
REMARK    4  A    between atoms: C_10  and  O_11
REMARK    5  A    between atoms: N_15  and  C_16
REMARK    6  A    between atoms: C_16  and  C_17
REMARK                            x       y       z     vdW  Elec       q    Type
REMARK                         _______ _______ _______ _____ _____    ______ ____
ROOT
ATOM      1  O   UNL     1       5.626   4.633  19.339  0.00  0.00    +0.000 OA
ATOM      2  C   UNL     1       5.256   5.508  18.572  0.00  0.00    +0.000 C 
ATOM      3  C   UNL     1       6.038   6.102  17.389  0.00  0.00    +0.000 C 
ATOM      4  C   UNL     1       4.898   6.654  16.528  0.00  0.00    +0.000 C 
ATOM      5  C   UNL     1       3.889   7.135  17.557  0.00  0.00    +0.000 C 
ATOM      6  N   UNL     1       4.047   6.197  18.640  0.00  0.00    +0.000 N 
ENDROOT
BRANCH   3   7
ATOM      7  N   UNL     1       6.895   5.119  16.720  0.00  0.00    +0.000 NA
ATOM      8  H   UNL     1       7.508   4.657  17.390  0.00  0.00    +0.000 HD
BRANCH   7   9
ATOM      9  C   UNL     1       6.118   4.128  15.981  0.00  0.00    +0.000 C 
BRANCH   9  10
ATOM     10  C   UNL     1       6.455   4.137  14.509  0.00  0.00    +0.000 A 
ATOM     11  C   UNL     1       7.418   5.022  13.999  0.00  0.00    +0.000 A 
ATOM     12  C   UNL     1       7.707   5.049  12.635  0.00  0.00    +0.000 A 
ATOM     13  C   UNL     1       7.035   4.197  11.758  0.00  0.00    +0.000 A 
ATOM     14  C   UNL     1       6.081   3.321  12.259  0.00  0.00    +0.000 A 
ATOM     15  C   UNL     1       5.781   3.285  13.622  0.00  0.00    +0.000 A 
BRANCH  14  16
ATOM     16  O   UNL     1       5.395   2.472  11.441  0.00  0.00    +0.000 OA
ATOM     17  H   UNL     1       5.668   1.563  11.645  0.00  0.00    +0.000 HD
ENDBRANCH  14  16
ENDBRANCH   9  10
ENDBRANCH   7   9
ENDBRANCH   3   7
BRANCH   6  18
ATOM     18  C   UNL     1       3.090   6.072  19.723  0.00  0.00    +0.000 C 
BRANCH  18  19
ATOM     19  C   UNL     1       2.211   4.843  19.650  0.00  0.00    +0.000 A 
ATOM     20  C   UNL     1       1.838   4.302  18.409  0.00  0.00    +0.000 A 
ATOM     21  C   UNL     1       1.133   3.095  18.336  0.00  0.00    +0.000 A 
ATOM     22  C   UNL     1       0.786   2.416  19.500  0.00  0.00    +0.000 A 
ATOM     23  C   UNL     1       1.130   2.950  20.741  0.00  0.00    +0.000 A 
ATOM     24  C   UNL     1       1.835   4.156  20.815  0.00  0.00    +0.000 A 
ENDBRANCH  18  19
ENDBRANCH   6  18
TORSDOF 6
ENDMDL
MODEL 3
REMARK VINA RESULT:      -7.7      1.512      2.014
REMARK  Name = 
REMARK  6 active torsions:
REMARK  status: ('A' for Active; 'I' for Inactive)
REMARK    1  A    between atoms: C_3  and  N_4
REMARK    2  A    between atoms: N_4  and  C_5
REMARK    3  A    between atoms: C_5  and  C_6
REMARK    4  A    between atoms: C_10  and  O_11
REMARK    5  A    between atoms: N_15  and  C_16
REMARK    6  A    between atoms: C_16  and  C_17
REMARK                            x       y       z     vdW  Elec       q    Type
REMARK                         _______ _______ _______ _____ _____    ______ ____
ROOT
ATOM      1  O   UNL     1       4.899   4.042  19.292  0.00  0.00    +0.000 OA
ATOM      2  C   UNL     1       4.861   5.028  18.574  0.00  0.00    +0.000 C 
ATOM      3  C   UNL     1       5.911   5.470  17.541  0.00  0.00    +0.000 C 
ATOM      4  C   UNL     1       5.065   6.351  16.617  0.00  0.00    +0.000 C 
ATOM      5  C   UNL     1       4.087   7.014  17.572  0.00  0.00    +0.000 C 
ATOM      6  N   UNL     1       3.865   6.003  18.574  0.00  0.00    +0.000 N 
ENDROOT
BRANCH   3   7
ATOM      7  N   UNL     1       6.572   4.341  16.880  0.00  0.00    +0.000 NA
ATOM      8  H   UNL     1       6.834   3.626  17.558  0.00  0.00    +0.000 HD
BRANCH   7   9
ATOM      9  C   UNL     1       5.742   3.758  15.830  0.00  0.00    +0.000 C 
BRANCH   9  10
ATOM     10  C   UNL     1       6.289   4.055  14.454  0.00  0.00    +0.000 A 
ATOM     11  C   UNL     1       5.777   3.400  13.323  0.00  0.00    +0.000 A 
ATOM     12  C   UNL     1       6.303   3.654  12.055  0.00  0.00    +0.000 A 
ATOM     13  C   UNL     1       7.350   4.562  11.899  0.00  0.00    +0.000 A 
ATOM     14  C   UNL     1       7.860   5.211  13.017  0.00  0.00    +0.000 A 
ATOM     15  C   UNL     1       7.344   4.964  14.290  0.00  0.00    +0.000 A 
BRANCH  14  16
ATOM     16  O   UNL     1       8.885   6.104  12.915  0.00  0.00    +0.000 OA
ATOM     17  H   UNL     1       8.598   6.947  13.302  0.00  0.00    +0.000 HD
ENDBRANCH  14  16
ENDBRANCH   9  10
ENDBRANCH   7   9
ENDBRANCH   3   7
BRANCH   6  18
ATOM     18  C   UNL     1       2.777   6.064  19.532  0.00  0.00    +0.000 C 
BRANCH  18  19
ATOM     19  C   UNL     1       1.994   4.779  19.683  0.00  0.00    +0.000 A 
ATOM     20  C   UNL     1       1.473   4.122  18.556  0.00  0.00    +0.000 A 
ATOM     21  C   UNL     1       0.860   2.870  18.675  0.00  0.00    +0.000 A 
ATOM     22  C   UNL     1       0.752   2.261  19.922  0.00  0.00    +0.000 A 
ATOM     23  C   UNL     1       1.245   2.908  21.054  0.00  0.00    +0.000 A 
ATOM     24  C   UNL     1       1.859   4.159  20.935  0.00  0.00    +0.000 A 
ENDBRANCH  18  19
ENDBRANCH   6  18
TORSDOF 6
ENDMDL
MODEL 4
REMARK VINA RESULT:      -7.7      6.108      8.492
REMARK  Name = 
REMARK  6 active torsions:
REMARK  status: ('A' for Active; 'I' for Inactive)
REMARK    1  A    between atoms: C_3  and  N_4
REMARK    2  A    between atoms: N_4  and  C_5
REMARK    3  A    between atoms: C_5  and  C_6
REMARK    4  A    between atoms: C_10  and  O_11
REMARK    5  A    between atoms: N_15  and  C_16
REMARK    6  A    between atoms: C_16  and  C_17
REMARK                            x       y       z     vdW  Elec       q    Type
REMARK                         _______ _______ _______ _____ _____    ______ ____
ROOT
ATOM      1  O   UNL     1       2.025   8.674  17.612  0.00  0.00    +0.000 OA
ATOM      2  C   UNL     1       1.738   8.746  18.796  0.00  0.00    +0.000 C 
ATOM      3  C   UNL     1       1.044   9.913  19.518  0.00  0.00    +0.000 C 
ATOM      4  C   UNL     1       0.460   9.200  20.741  0.00  0.00    +0.000 C 
ATOM      5  C   UNL     1       1.511   8.150  21.063  0.00  0.00    +0.000 C 
ATOM      6  N   UNL     1       2.028   7.790  19.767  0.00  0.00    +0.000 N 
ENDROOT
BRANCH   3   7
ATOM      7  N   UNL     1       0.060  10.600  18.677  0.00  0.00    +0.000 NA
ATOM      8  H   UNL     1       0.234  10.415  17.690  0.00  0.00    +0.000 HD
BRANCH   7   9
ATOM      9  C   UNL     1      -1.309  10.232  19.024  0.00  0.00    +0.000 C 
BRANCH   9  10
ATOM     10  C   UNL     1      -2.254  10.435  17.863  0.00  0.00    +0.000 A 
ATOM     11  C   UNL     1      -2.045   9.772  16.644  0.00  0.00    +0.000 A 
ATOM     12  C   UNL     1      -2.902   9.982  15.563  0.00  0.00    +0.000 A 
ATOM     13  C   UNL     1      -3.978  10.861  15.682  0.00  0.00    +0.000 A 
ATOM     14  C   UNL     1      -4.188  11.520  16.888  0.00  0.00    +0.000 A 
ATOM     15  C   UNL     1      -3.336  11.320  17.975  0.00  0.00    +0.000 A 
BRANCH  14  16
ATOM     16  O   UNL     1      -5.223  12.392  17.051  0.00  0.00    +0.000 OA
ATOM     17  H   UNL     1      -5.316  12.914  16.237  0.00  0.00    +0.000 HD
ENDBRANCH  14  16
ENDBRANCH   9  10
ENDBRANCH   7   9
ENDBRANCH   3   7
BRANCH   6  18
ATOM     18  C   UNL     1       2.842   6.610  19.541  0.00  0.00    +0.000 C 
BRANCH  18  19
ATOM     19  C   UNL     1       2.062   5.322  19.400  0.00  0.00    +0.000 A 
ATOM     20  C   UNL     1       1.911   4.711  18.144  0.00  0.00    +0.000 A 
ATOM     21  C   UNL     1       1.302   3.457  18.026  0.00  0.00    +0.000 A 
ATOM     22  C   UNL     1       0.830   2.799  19.159  0.00  0.00    +0.000 A 
ATOM     23  C   UNL     1       0.954   3.400  20.410  0.00  0.00    +0.000 A 
ATOM     24  C   UNL     1       1.563   4.654  20.529  0.00  0.00    +0.000 A 
ENDBRANCH  18  19
ENDBRANCH   6  18
TORSDOF 6
ENDMDL
MODEL 5
REMARK VINA RESULT:      -7.6      1.432      1.774
REMARK  Name = 
REMARK  6 active torsions:
REMARK  status: ('A' for Active; 'I' for Inactive)
REMARK    1  A    between atoms: C_3  and  N_4
REMARK    2  A    between atoms: N_4  and  C_5
REMARK    3  A    between atoms: C_5  and  C_6
REMARK    4  A    between atoms: C_10  and  O_11
REMARK    5  A    between atoms: N_15  and  C_16
REMARK    6  A    between atoms: C_16  and  C_17
REMARK                            x       y       z     vdW  Elec       q    Type
REMARK                         _______ _______ _______ _____ _____    ______ ____
ROOT
ATOM      1  O   UNL     1       5.324   3.951  19.263  0.00  0.00    +0.000 OA
ATOM      2  C   UNL     1       5.206   4.949  18.571  0.00  0.00    +0.000 C 
ATOM      3  C   UNL     1       6.173   5.451  17.486  0.00  0.00    +0.000 C 
ATOM      4  C   UNL     1       5.240   6.318  16.636  0.00  0.00    +0.000 C 
ATOM      5  C   UNL     1       4.299   6.925  17.664  0.00  0.00    +0.000 C 
ATOM      6  N   UNL     1       4.178   5.886  18.655  0.00  0.00    +0.000 N 
ENDROOT
BRANCH   3   7
ATOM      7  N   UNL     1       6.832   4.361  16.761  0.00  0.00    +0.000 NA
ATOM      8  H   UNL     1       7.192   3.661  17.407  0.00  0.00    +0.000 HD
BRANCH   7   9
ATOM      9  C   UNL     1       5.943   3.736  15.786  0.00  0.00    +0.000 C 
BRANCH   9  10
ATOM     10  C   UNL     1       6.380   4.018  14.368  0.00  0.00    +0.000 A 
ATOM     11  C   UNL     1       5.837   3.296  13.293  0.00  0.00    +0.000 A 
ATOM     12  C   UNL     1       6.262   3.537  11.987  0.00  0.00    +0.000 A 
ATOM     13  C   UNL     1       7.241   4.498  11.734  0.00  0.00    +0.000 A 
ATOM     14  C   UNL     1       7.782   5.214  12.795  0.00  0.00    +0.000 A 
ATOM     15  C   UNL     1       7.365   4.981  14.107  0.00  0.00    +0.000 A 
BRANCH  14  16
ATOM     16  O   UNL     1       8.743   6.161  12.598  0.00  0.00    +0.000 OA
ATOM     17  H   UNL     1       8.412   6.803  11.950  0.00  0.00    +0.000 HD
ENDBRANCH  14  16
ENDBRANCH   9  10
ENDBRANCH   7   9
ENDBRANCH   3   7
BRANCH   6  18
ATOM     18  C   UNL     1       3.150   5.887  19.680  0.00  0.00    +0.000 C 
BRANCH  18  19
ATOM     19  C   UNL     1       2.340   4.612  19.765  0.00  0.00    +0.000 A 
ATOM     20  C   UNL     1       2.129   3.980  21.001  0.00  0.00    +0.000 A 
ATOM     21  C   UNL     1       1.277   2.875  21.104  0.00  0.00    +0.000 A 
ATOM     22  C   UNL     1       0.631   2.382  19.974  0.00  0.00    +0.000 A 
ATOM     23  C   UNL     1       0.846   2.985  18.736  0.00  0.00    +0.000 A 
ATOM     24  C   UNL     1       1.697   4.090  18.632  0.00  0.00    +0.000 A 
ENDBRANCH  18  19
ENDBRANCH   6  18
TORSDOF 6
ENDMDL
MODEL 6
REMARK VINA RESULT:      -7.6      2.013      7.102
REMARK  Name = 
REMARK  6 active torsions:
REMARK  status: ('A' for Active; 'I' for Inactive)
REMARK    1  A    between atoms: C_3  and  N_4
REMARK    2  A    between atoms: N_4  and  C_5
REMARK    3  A    between atoms: C_5  and  C_6
REMARK    4  A    between atoms: C_10  and  O_11
REMARK    5  A    between atoms: N_15  and  C_16
REMARK    6  A    between atoms: C_16  and  C_17
REMARK                            x       y       z     vdW  Elec       q    Type
REMARK                         _______ _______ _______ _____ _____    ______ ____
ROOT
ATOM      1  O   UNL     1       4.969   7.016  15.690  0.00  0.00    +0.000 OA
ATOM      2  C   UNL     1       5.283   6.229  16.568  0.00  0.00    +0.000 C 
ATOM      3  C   UNL     1       4.593   6.024  17.927  0.00  0.00    +0.000 C 
ATOM      4  C   UNL     1       5.037   4.600  18.273  0.00  0.00    +0.000 C 
ATOM      5  C   UNL     1       6.449   4.532  17.714  0.00  0.00    +0.000 C 
ATOM      6  N   UNL     1       6.382   5.372  16.544  0.00  0.00    +0.000 N 
ENDROOT
BRANCH   3   7
ATOM      7  N   UNL     1       3.142   6.219  17.865  0.00  0.00    +0.000 NA
ATOM      8  H   UNL     1       2.696   5.465  17.343  0.00  0.00    +0.000 HD
BRANCH   7   9
ATOM      9  C   UNL     1       2.547   6.330  19.194  0.00  0.00    +0.000 C 
BRANCH   9  10
ATOM     10  C   UNL     1       2.062   4.994  19.704  0.00  0.00    +0.000 A 
ATOM     11  C   UNL     1       2.268   4.621  21.041  0.00  0.00    +0.000 A 
ATOM     12  C   UNL     1       1.845   3.374  21.505  0.00  0.00    +0.000 A 
ATOM     13  C   UNL     1       1.217   2.480  20.638  0.00  0.00    +0.000 A 
ATOM     14  C   UNL     1       1.013   2.846  19.313  0.00  0.00    +0.000 A 
ATOM     15  C   UNL     1       1.432   4.089  18.838  0.00  0.00    +0.000 A 
BRANCH  14  16
ATOM     16  O   UNL     1       0.406   2.005  18.428  0.00  0.00    +0.000 OA
ATOM     17  H   UNL     1      -0.368   1.610  18.862  0.00  0.00    +0.000 HD
ENDBRANCH  14  16
ENDBRANCH   9  10
ENDBRANCH   7   9
ENDBRANCH   3   7
BRANCH   6  18
ATOM     18  C   UNL     1       7.406   5.378  15.517  0.00  0.00    +0.000 C 
BRANCH  18  19
ATOM     19  C   UNL     1       6.974   4.795  14.189  0.00  0.00    +0.000 A 
ATOM     20  C   UNL     1       7.721   5.036  13.025  0.00  0.00    +0.000 A 
ATOM     21  C   UNL     1       7.400   4.397  11.822  0.00  0.00    +0.000 A 
ATOM     22  C   UNL     1       6.325   3.514  11.765  0.00  0.00    +0.000 A 
ATOM     23  C   UNL     1       5.561   3.279  12.907  0.00  0.00    +0.000 A 
ATOM     24  C   UNL     1       5.882   3.917  14.109  0.00  0.00    +0.000 A 
ENDBRANCH  18  19
ENDBRANCH   6  18
TORSDOF 6
ENDMDL
MODEL 7
REMARK VINA RESULT:      -7.6      6.093      8.435
REMARK  Name = 
REMARK  6 active torsions:
REMARK  status: ('A' for Active; 'I' for Inactive)
REMARK    1  A    between atoms: C_3  and  N_4
REMARK    2  A    between atoms: N_4  and  C_5
REMARK    3  A    between atoms: C_5  and  C_6
REMARK    4  A    between atoms: C_10  and  O_11
REMARK    5  A    between atoms: N_15  and  C_16
REMARK    6  A    between atoms: C_16  and  C_17
REMARK                            x       y       z     vdW  Elec       q    Type
REMARK                         _______ _______ _______ _____ _____    ______ ____
ROOT
ATOM      1  O   UNL     1       2.275   9.042  17.346  0.00  0.00    +0.000 OA
ATOM      2  C   UNL     1       1.911   8.954  18.507  0.00  0.00    +0.000 C 
ATOM      3  C   UNL     1       1.159  10.012  19.332  0.00  0.00    +0.000 C 
ATOM      4  C   UNL     1       0.505   9.140  20.407  0.00  0.00    +0.000 C 
ATOM      5  C   UNL     1       1.543   8.058  20.655  0.00  0.00    +0.000 C 
ATOM      6  N   UNL     1       2.147   7.876  19.359  0.00  0.00    +0.000 N 
ENDROOT
BRANCH   3   7
ATOM      7  N   UNL     1       0.225  10.804  18.528  0.00  0.00    +0.000 NA
ATOM      8  H   UNL     1       0.262  10.525  17.548  0.00  0.00    +0.000 HD
BRANCH   7   9
ATOM      9  C   UNL     1      -1.145  10.707  19.025  0.00  0.00    +0.000 C 
BRANCH   9  10
ATOM     10  C   UNL     1      -2.150  10.688  17.898  0.00  0.00    +0.000 A 
ATOM     11  C   UNL     1      -1.972   9.840  16.794  0.00  0.00    +0.000 A 
ATOM     12  C   UNL     1      -2.886   9.843  15.740  0.00  0.00    +0.000 A 
ATOM     13  C   UNL     1      -3.988  10.697  15.770  0.00  0.00    +0.000 A 
ATOM     14  C   UNL     1      -4.166  11.539  16.861  0.00  0.00    +0.000 A 
ATOM     15  C   UNL     1      -3.258  11.546  17.920  0.00  0.00    +0.000 A 
BRANCH  14  16
ATOM     16  O   UNL     1      -5.226  12.395  16.933  0.00  0.00    +0.000 OA
ATOM     17  H   UNL     1      -5.062  13.025  17.654  0.00  0.00    +0.000 HD
ENDBRANCH  14  16
ENDBRANCH   9  10
ENDBRANCH   7   9
ENDBRANCH   3   7
BRANCH   6  18
ATOM     18  C   UNL     1       2.987   6.739  19.031  0.00  0.00    +0.000 C 
BRANCH  18  19
ATOM     19  C   UNL     1       2.334   5.391  19.239  0.00  0.00    +0.000 A 
ATOM     20  C   UNL     1       2.077   4.912  20.534  0.00  0.00    +0.000 A 
ATOM     21  C   UNL     1       1.359   3.727  20.731  0.00  0.00    +0.000 A 
ATOM     22  C   UNL     1       0.895   3.001  19.638  0.00  0.00    +0.000 A 
ATOM     23  C   UNL     1       1.159   3.451  18.346  0.00  0.00    +0.000 A 
ATOM     24  C   UNL     1       1.876   4.636  18.148  0.00  0.00    +0.000 A 
ENDBRANCH  18  19
ENDBRANCH   6  18
TORSDOF 6
ENDMDL
MODEL 8
REMARK VINA RESULT:      -7.5      3.750      5.867
REMARK  Name = 
REMARK  6 active torsions:
REMARK  status: ('A' for Active; 'I' for Inactive)
REMARK    1  A    between atoms: C_3  and  N_4
REMARK    2  A    between atoms: N_4  and  C_5
REMARK    3  A    between atoms: C_5  and  C_6
REMARK    4  A    between atoms: C_10  and  O_11
REMARK    5  A    between atoms: N_15  and  C_16
REMARK    6  A    between atoms: C_16  and  C_17
REMARK                            x       y       z     vdW  Elec       q    Type
REMARK                         _______ _______ _______ _____ _____    ______ ____
ROOT
ATOM      1  O   UNL     1       5.166   6.972  15.933  0.00  0.00    +0.000 OA
ATOM      2  C   UNL     1       5.780   6.291  16.738  0.00  0.00    +0.000 C 
ATOM      3  C   UNL     1       7.243   6.461  17.180  0.00  0.00    +0.000 C 
ATOM      4  C   UNL     1       7.226   5.757  18.540  0.00  0.00    +0.000 C 
ATOM      5  C   UNL     1       6.248   4.614  18.325  0.00  0.00    +0.000 C 
ATOM      6  N   UNL     1       5.290   5.168  17.400  0.00  0.00    +0.000 N 
ENDROOT
BRANCH   3   7
ATOM      7  N   UNL     1       7.668   7.863  17.218  0.00  0.00    +0.000 NA
ATOM      8  H   UNL     1       6.875   8.487  17.072  0.00  0.00    +0.000 HD
BRANCH   7   9
ATOM      9  C   UNL     1       8.347   8.197  18.467  0.00  0.00    +0.000 C 
BRANCH   9  10
ATOM     10  C   UNL     1       8.672   9.670  18.551  0.00  0.00    +0.000 A 
ATOM     11  C   UNL     1       9.488  10.165  19.580  0.00  0.00    +0.000 A 
ATOM     12  C   UNL     1       9.764  11.530  19.675  0.00  0.00    +0.000 A 
ATOM     13  C   UNL     1       9.224  12.420  18.746  0.00  0.00    +0.000 A 
ATOM     14  C   UNL     1       8.415  11.933  17.727  0.00  0.00    +0.000 A 
ATOM     15  C   UNL     1       8.130  10.570  17.624  0.00  0.00    +0.000 A 
BRANCH  14  16
ATOM     16  O   UNL     1       7.862  12.764  16.799  0.00  0.00    +0.000 OA
ATOM     17  H   UNL     1       7.888  12.321  15.936  0.00  0.00    +0.000 HD
ENDBRANCH  14  16
ENDBRANCH   9  10
ENDBRANCH   7   9
ENDBRANCH   3   7
BRANCH   6  18
ATOM     18  C   UNL     1       4.005   4.550  17.131  0.00  0.00    +0.000 C 
BRANCH  18  19
ATOM     19  C   UNL     1       3.016   4.624  18.273  0.00  0.00    +0.000 A 
ATOM     20  C   UNL     1       2.270   3.495  18.648  0.00  0.00    +0.000 A 
ATOM     21  C   UNL     1       1.451   3.521  19.782  0.00  0.00    +0.000 A 
ATOM     22  C   UNL     1       1.360   4.678  20.552  0.00  0.00    +0.000 A 
ATOM     23  C   UNL     1       2.077   5.814  20.182  0.00  0.00    +0.000 A 
ATOM     24  C   UNL     1       2.897   5.788  19.049  0.00  0.00    +0.000 A 
ENDBRANCH  18  19
ENDBRANCH   6  18
TORSDOF 6
ENDMDL
MODEL 9
REMARK VINA RESULT:      -7.5      3.788      5.859
REMARK  Name = 
REMARK  6 active torsions:
REMARK  status: ('A' for Active; 'I' for Inactive)
REMARK    1  A    between atoms: C_3  and  N_4
REMARK    2  A    between atoms: N_4  and  C_5
REMARK    3  A    between atoms: C_5  and  C_6
REMARK    4  A    between atoms: C_10  and  O_11
REMARK    5  A    between atoms: N_15  and  C_16
REMARK    6  A    between atoms: C_16  and  C_17
REMARK                            x       y       z     vdW  Elec       q    Type
REMARK                         _______ _______ _______ _____ _____    ______ ____
ROOT
ATOM      1  O   UNL     1       5.073   7.038  15.966  0.00  0.00    +0.000 OA
ATOM      2  C   UNL     1       5.727   6.357  16.740  0.00  0.00    +0.000 C 
ATOM      3  C   UNL     1       7.188   6.573  17.167  0.00  0.00    +0.000 C 
ATOM      4  C   UNL     1       7.221   5.827  18.503  0.00  0.00    +0.000 C 
ATOM      5  C   UNL     1       6.287   4.652  18.266  0.00  0.00    +0.000 C 
ATOM      6  N   UNL     1       5.293   5.194  17.374  0.00  0.00    +0.000 N 
ENDROOT
BRANCH   3   7
ATOM      7  N   UNL     1       7.557   7.989  17.243  0.00  0.00    +0.000 NA
ATOM      8  H   UNL     1       6.727   8.581  17.257  0.00  0.00    +0.000 HD
BRANCH   7   9
ATOM      9  C   UNL     1       8.398   8.275  18.402  0.00  0.00    +0.000 C 
BRANCH   9  10
ATOM     10  C   UNL     1       8.719   9.747  18.511  0.00  0.00    +0.000 A 
ATOM     11  C   UNL     1       9.525  10.229  19.554  0.00  0.00    +0.000 A 
ATOM     12  C   UNL     1       9.798  11.592  19.671  0.00  0.00    +0.000 A 
ATOM     13  C   UNL     1       9.264  12.495  18.752  0.00  0.00    +0.000 A 
ATOM     14  C   UNL     1       8.464  12.022  17.719  0.00  0.00    +0.000 A 
ATOM     15  C   UNL     1       8.183  10.661  17.593  0.00  0.00    +0.000 A 
BRANCH  14  16
ATOM     16  O   UNL     1       7.917  12.866  16.799  0.00  0.00    +0.000 OA
ATOM     17  H   UNL     1       8.374  13.721  16.858  0.00  0.00    +0.000 HD
ENDBRANCH  14  16
ENDBRANCH   9  10
ENDBRANCH   7   9
ENDBRANCH   3   7
BRANCH   6  18
ATOM     18  C   UNL     1       4.030   4.534  17.103  0.00  0.00    +0.000 C 
BRANCH  18  19
ATOM     19  C   UNL     1       3.085   4.468  18.283  0.00  0.00    +0.000 A 
ATOM     20  C   UNL     1       3.004   5.533  19.194  0.00  0.00    +0.000 A 
ATOM     21  C   UNL     1       2.043   5.533  20.211  0.00  0.00    +0.000 A 
ATOM     22  C   UNL     1       1.156   4.468  20.337  0.00  0.00    +0.000 A 
ATOM     23  C   UNL     1       1.237   3.393  19.453  0.00  0.00    +0.000 A 
ATOM     24  C   UNL     1       2.197   3.392  18.435  0.00  0.00    +0.000 A 
ENDBRANCH  18  19
ENDBRANCH   6  18
TORSDOF 6
ENDMDL
