MODEL 1
REMARK VINA RESULT:      -5.9      0.000      0.000
REMARK  Name = 
REMARK  14 active torsions:
REMARK  status: ('A' for Active; 'I' for Inactive)
REMARK    1  A    between atoms: C_1  and  C_2
REMARK    2  A    between atoms: C_2  and  S_3
REMARK    3  A    between atoms: S_3  and  C_4
REMARK    4  A    between atoms: C_4  and  C_5
REMARK    5  A    between atoms: C_5  and  C_6
REMARK    6  A    between atoms: C_6  and  N_7
REMARK    7  A    between atoms: N_7  and  C_8
REMARK    8  A    between atoms: C_8  and  C_9
REMARK    9  A    between atoms: C_9  and  O_10
REMARK   10  A    between atoms: C_9  and  C_11
REMARK   11  A    between atoms: C_11  and  O_12
REMARK   12  A    between atoms: O_12  and  C_13
REMARK   13  A    between atoms: C_18  and  O_19
REMARK   14  A    between atoms: O_19  and  C_20
REMARK                            x       y       z     vdW  Elec       q    Type
REMARK                         _______ _______ _______ _____ _____    ______ ____
ROOT
ATOM      1  C   UNL     1       5.710   4.616  17.288  0.00  0.00    +0.000 C 
ENDROOT
BRANCH   1   2
ATOM      2  O   UNL     1       6.226   3.868  18.394  0.00  0.00    +0.000 OA
ATOM      3  H   UNL     1       5.791   3.000  18.401  0.00  0.00    +0.000 HD
ENDBRANCH   1   2
BRANCH   1   4
ATOM      4  C   UNL     1       6.821   5.524  16.694  0.00  0.00    +0.000 C 
BRANCH   4   5
ATOM      5  N   UNL     1       7.305   5.104  15.382  0.00  0.00    +0.000 NA
ATOM      6  H   UNL     1       7.199   5.872  14.709  0.00  0.00    +0.000 HD
BRANCH   5   7
ATOM      7  C   UNL     1       6.609   3.904  14.917  0.00  0.00    +0.000 C 
BRANCH   7   8
ATOM      8  C   UNL     1       5.816   4.113  13.623  0.00  0.00    +0.000 C 
BRANCH   8   9
ATOM      9  C   UNL     1       6.512   3.605  12.350  0.00  0.00    +0.000 C 
BRANCH   9  10
ATOM     10  S   UNL     1       5.446   2.482  11.391  0.00  0.00    +0.000 S 
BRANCH  10  12
ATOM     11  C   UNL     1       3.201   3.443  10.066  0.00  0.00    +0.000 C 
ATOM     12  C   UNL     1       3.866   3.381  11.428  0.00  0.00    +0.000 C 
ENDBRANCH  10  12
ENDBRANCH   9  10
ENDBRANCH   8   9
ENDBRANCH   7   8
ENDBRANCH   5   7
ENDBRANCH   4   5
ENDBRANCH   1   4
BRANCH   1  13
ATOM     13  C   UNL     1       4.568   5.561  17.711  0.00  0.00    +0.000 C 
BRANCH  13  14
ATOM     14  O   UNL     1       3.253   5.155  17.298  0.00  0.00    +0.000 OA
BRANCH  14  15
ATOM     15  C   UNL     1       2.512   4.626  18.343  0.00  0.00    +0.000 A 
ATOM     16  C   UNL     1       1.969   3.326  18.259  0.00  0.00    +0.000 A 
ATOM     17  C   UNL     1       1.152   2.804  19.254  0.00  0.00    +0.000 A 
ATOM     18  C   UNL     1       0.892   3.546  20.392  0.00  0.00    +0.000 A 
ATOM     19  C   UNL     1       1.480   4.803  20.528  0.00  0.00    +0.000 A 
ATOM     20  C   UNL     1       2.292   5.359  19.519  0.00  0.00    +0.000 A 
BRANCH  20  21
ATOM     21  O   UNL     1       2.737   6.600  19.880  0.00  0.00    +0.000 OA
ATOM     22  C   UNL     1       1.811   7.651  20.080  0.00  0.00    +0.000 C 
ENDBRANCH  20  21
ENDBRANCH  14  15
ENDBRANCH  13  14
ENDBRANCH   1  13
TORSDOF 12
ENDMDL
MODEL 2
REMARK VINA RESULT:      -5.8      4.112      6.128
REMARK  Name = 
REMARK  14 active torsions:
REMARK  status: ('A' for Active; 'I' for Inactive)
REMARK    1  A    between atoms: C_1  and  C_2
REMARK    2  A    between atoms: C_2  and  S_3
REMARK    3  A    between atoms: S_3  and  C_4
REMARK    4  A    between atoms: C_4  and  C_5
REMARK    5  A    between atoms: C_5  and  C_6
REMARK    6  A    between atoms: C_6  and  N_7
REMARK    7  A    between atoms: N_7  and  C_8
REMARK    8  A    between atoms: C_8  and  C_9
REMARK    9  A    between atoms: C_9  and  O_10
REMARK   10  A    between atoms: C_9  and  C_11
REMARK   11  A    between atoms: C_11  and  O_12
REMARK   12  A    between atoms: O_12  and  C_13
REMARK   13  A    between atoms: C_18  and  O_19
REMARK   14  A    between atoms: O_19  and  C_20
REMARK                            x       y       z     vdW  Elec       q    Type
REMARK                         _______ _______ _______ _____ _____    ______ ____
ROOT
ATOM      1  C   UNL     1       6.127   4.682  17.145  0.00  0.00    +0.000 C 
ENDROOT
BRANCH   1   2
ATOM      2  O   UNL     1       7.312   4.143  17.740  0.00  0.00    +0.000 OA
ATOM      3  H   UNL     1       8.011   4.815  17.685  0.00  0.00    +0.000 HD
ENDBRANCH   1   2
BRANCH   1   4
ATOM      4  C   UNL     1       6.452   6.025  16.434  0.00  0.00    +0.000 C 
BRANCH   4   5
ATOM      5  N   UNL     1       7.738   6.608  16.806  0.00  0.00    +0.000 NA
ATOM      6  H   UNL     1       8.411   5.861  17.015  0.00  0.00    +0.000 HD
BRANCH   5   7
ATOM      7  C   UNL     1       7.601   7.518  17.943  0.00  0.00    +0.000 C 
BRANCH   7   8
ATOM      8  C   UNL     1       7.952   8.973  17.614  0.00  0.00    +0.000 C 
BRANCH   8   9
ATOM      9  C   UNL     1       8.919   9.643  18.603  0.00  0.00    +0.000 C 
BRANCH   9  10
ATOM     10  S   UNL     1       9.082  11.430  18.295  0.00  0.00    +0.000 S 
BRANCH  10  12
ATOM     11  C   UNL     1      11.180  12.831  17.131  0.00  0.00    +0.000 C 
ATOM     12  C   UNL     1      10.849  11.555  17.881  0.00  0.00    +0.000 C 
ENDBRANCH  10  12
ENDBRANCH   9  10
ENDBRANCH   8   9
ENDBRANCH   7   8
ENDBRANCH   5   7
ENDBRANCH   4   5
ENDBRANCH   1   4
BRANCH   1  13
ATOM     13  C   UNL     1       5.047   5.004  18.194  0.00  0.00    +0.000 C 
BRANCH  13  14
ATOM     14  O   UNL     1       3.696   4.997  17.705  0.00  0.00    +0.000 OA
BRANCH  14  15
ATOM     15  C   UNL     1       2.791   4.565  18.662  0.00  0.00    +0.000 A 
ATOM     16  C   UNL     1       2.292   5.455  19.638  0.00  0.00    +0.000 A 
ATOM     17  C   UNL     1       1.452   5.029  20.659  0.00  0.00    +0.000 A 
ATOM     18  C   UNL     1       1.041   3.709  20.709  0.00  0.00    +0.000 A 
ATOM     19  C   UNL     1       1.463   2.832  19.711  0.00  0.00    +0.000 A 
ATOM     20  C   UNL     1       2.334   3.239  18.682  0.00  0.00    +0.000 A 
BRANCH  20  21
ATOM     21  O   UNL     1       2.611   2.200  17.838  0.00  0.00    +0.000 OA
ATOM     22  C   UNL     1       3.678   1.317  18.132  0.00  0.00    +0.000 C 
ENDBRANCH  20  21
ENDBRANCH  14  15
ENDBRANCH  13  14
ENDBRANCH   1  13
TORSDOF 12
ENDMDL
MODEL 3
REMARK VINA RESULT:      -5.8      2.791      4.759
REMARK  Name = 
REMARK  14 active torsions:
REMARK  status: ('A' for Active; 'I' for Inactive)
REMARK    1  A    between atoms: C_1  and  C_2
REMARK    2  A    between atoms: C_2  and  S_3
REMARK    3  A    between atoms: S_3  and  C_4
REMARK    4  A    between atoms: C_4  and  C_5
REMARK    5  A    between atoms: C_5  and  C_6
REMARK    6  A    between atoms: C_6  and  N_7
REMARK    7  A    between atoms: N_7  and  C_8
REMARK    8  A    between atoms: C_8  and  C_9
REMARK    9  A    between atoms: C_9  and  O_10
REMARK   10  A    between atoms: C_9  and  C_11
REMARK   11  A    between atoms: C_11  and  O_12
REMARK   12  A    between atoms: O_12  and  C_13
REMARK   13  A    between atoms: C_18  and  O_19
REMARK   14  A    between atoms: O_19  and  C_20
REMARK                            x       y       z     vdW  Elec       q    Type
REMARK                         _______ _______ _______ _____ _____    ______ ____
ROOT
ATOM      1  C   UNL     1       1.612   3.720  19.967  0.00  0.00    +0.000 C 
ENDROOT
BRANCH   1   2
ATOM      2  O   UNL     1       0.531   2.929  20.472  0.00  0.00    +0.000 OA
ATOM      3  H   UNL     1       0.635   2.853  21.435  0.00  0.00    +0.000 HD
ENDBRANCH   1   2
BRANCH   1   4
ATOM      4  C   UNL     1       2.970   3.066  20.342  0.00  0.00    +0.000 C 
BRANCH   4   5
ATOM      5  N   UNL     1       4.083   3.449  19.476  0.00  0.00    +0.000 NA
ATOM      6  H   UNL     1       4.322   4.435  19.633  0.00  0.00    +0.000 HD
BRANCH   5   7
ATOM      7  C   UNL     1       3.769   3.206  18.068  0.00  0.00    +0.000 C 
BRANCH   7   8
ATOM      8  C   UNL     1       4.152   4.364  17.141  0.00  0.00    +0.000 C 
BRANCH   8   9
ATOM      9  C   UNL     1       5.325   5.226  17.635  0.00  0.00    +0.000 C 
BRANCH   9  10
ATOM     10  S   UNL     1       6.857   4.889  16.710  0.00  0.00    +0.000 S 
BRANCH  10  12
ATOM     11  C   UNL     1       6.364   4.283  14.043  0.00  0.00    +0.000 C 
ATOM     12  C   UNL     1       6.256   3.724  15.449  0.00  0.00    +0.000 C 
ENDBRANCH  10  12
ENDBRANCH   9  10
ENDBRANCH   8   9
ENDBRANCH   7   8
ENDBRANCH   5   7
ENDBRANCH   4   5
ENDBRANCH   1   4
BRANCH   1  13
ATOM     13  C   UNL     1       1.633   5.131  20.583  0.00  0.00    +0.000 C 
BRANCH  13  14
ATOM     14  O   UNL     1       2.700   5.981  20.130  0.00  0.00    +0.000 OA
BRANCH  14  15
ATOM     15  C   UNL     1       2.233   7.163  19.576  0.00  0.00    +0.000 A 
ATOM     16  C   UNL     1       2.432   7.448  18.208  0.00  0.00    +0.000 A 
ATOM     17  C   UNL     1       2.051   8.661  17.646  0.00  0.00    +0.000 A 
ATOM     18  C   UNL     1       1.412   9.609  18.424  0.00  0.00    +0.000 A 
ATOM     19  C   UNL     1       1.139   9.317  19.759  0.00  0.00    +0.000 A 
ATOM     20  C   UNL     1       1.539   8.103  20.353  0.00  0.00    +0.000 A 
BRANCH  20  21
ATOM     21  O   UNL     1       1.171   8.058  21.668  0.00  0.00    +0.000 OA
ATOM     22  C   UNL     1       0.906   9.259  22.368  0.00  0.00    +0.000 C 
ENDBRANCH  20  21
ENDBRANCH  14  15
ENDBRANCH  13  14
ENDBRANCH   1  13
TORSDOF 12
ENDMDL
MODEL 4
REMARK VINA RESULT:      -5.8      3.615      5.161
REMARK  Name = 
REMARK  14 active torsions:
REMARK  status: ('A' for Active; 'I' for Inactive)
REMARK    1  A    between atoms: C_1  and  C_2
REMARK    2  A    between atoms: C_2  and  S_3
REMARK    3  A    between atoms: S_3  and  C_4
REMARK    4  A    between atoms: C_4  and  C_5
REMARK    5  A    between atoms: C_5  and  C_6
REMARK    6  A    between atoms: C_6  and  N_7
REMARK    7  A    between atoms: N_7  and  C_8
REMARK    8  A    between atoms: C_8  and  C_9
REMARK    9  A    between atoms: C_9  and  O_10
REMARK   10  A    between atoms: C_9  and  C_11
REMARK   11  A    between atoms: C_11  and  O_12
REMARK   12  A    between atoms: O_12  and  C_13
REMARK   13  A    between atoms: C_18  and  O_19
REMARK   14  A    between atoms: O_19  and  C_20
REMARK                            x       y       z     vdW  Elec       q    Type
REMARK                         _______ _______ _______ _____ _____    ______ ____
ROOT
ATOM      1  C   UNL     1       1.806   2.956  20.989  0.00  0.00    +0.000 C 
ENDROOT
BRANCH   1   2
ATOM      2  O   UNL     1       2.580   3.056  22.189  0.00  0.00    +0.000 OA
ATOM      3  H   UNL     1       3.274   3.719  22.047  0.00  0.00    +0.000 HD
ENDBRANCH   1   2
BRANCH   1   4
ATOM      4  C   UNL     1       2.697   2.454  19.820  0.00  0.00    +0.000 C 
BRANCH   4   5
ATOM      5  N   UNL     1       4.132   2.566  20.066  0.00  0.00    +0.000 NA
ATOM      6  H   UNL     1       4.299   2.816  21.048  0.00  0.00    +0.000 HD
BRANCH   5   7
ATOM      7  C   UNL     1       4.751   3.541  19.167  0.00  0.00    +0.000 C 
BRANCH   7   8
ATOM      8  C   UNL     1       4.384   3.342  17.693  0.00  0.00    +0.000 C 
BRANCH   8   9
ATOM      9  C   UNL     1       5.206   4.182  16.704  0.00  0.00    +0.000 C 
BRANCH   9  10
ATOM     10  S   UNL     1       6.702   4.877  17.476  0.00  0.00    +0.000 S 
BRANCH  10  12
ATOM     11  C   UNL     1       7.597   7.505  17.600  0.00  0.00    +0.000 C 
ATOM     12  C   UNL     1       6.360   6.660  17.362  0.00  0.00    +0.000 C 
ENDBRANCH  10  12
ENDBRANCH   9  10
ENDBRANCH   8   9
ENDBRANCH   7   8
ENDBRANCH   5   7
ENDBRANCH   4   5
ENDBRANCH   1   4
BRANCH   1  13
ATOM     13  C   UNL     1       1.249   4.322  20.544  0.00  0.00    +0.000 C 
BRANCH  13  14
ATOM     14  O   UNL     1       1.994   5.464  20.997  0.00  0.00    +0.000 OA
BRANCH  14  15
ATOM     15  C   UNL     1       2.034   6.476  20.051  0.00  0.00    +0.000 A 
ATOM     16  C   UNL     1       2.480   6.219  18.736  0.00  0.00    +0.000 A 
ATOM     17  C   UNL     1       2.612   7.230  17.793  0.00  0.00    +0.000 A 
ATOM     18  C   UNL     1       2.254   8.526  18.118  0.00  0.00    +0.000 A 
ATOM     19  C   UNL     1       1.742   8.788  19.388  0.00  0.00    +0.000 A 
ATOM     20  C   UNL     1       1.623   7.780  20.365  0.00  0.00    +0.000 A 
BRANCH  20  21
ATOM     21  O   UNL     1       1.110   8.285  21.528  0.00  0.00    +0.000 OA
ATOM     22  C   UNL     1      -0.257   8.642  21.598  0.00  0.00    +0.000 C 
ENDBRANCH  20  21
ENDBRANCH  14  15
ENDBRANCH  13  14
ENDBRANCH   1  13
TORSDOF 12
ENDMDL
MODEL 5
REMARK VINA RESULT:      -5.7      4.130      5.805
REMARK  Name = 
REMARK  14 active torsions:
REMARK  status: ('A' for Active; 'I' for Inactive)
REMARK    1  A    between atoms: C_1  and  C_2
REMARK    2  A    between atoms: C_2  and  S_3
REMARK    3  A    between atoms: S_3  and  C_4
REMARK    4  A    between atoms: C_4  and  C_5
REMARK    5  A    between atoms: C_5  and  C_6
REMARK    6  A    between atoms: C_6  and  N_7
REMARK    7  A    between atoms: N_7  and  C_8
REMARK    8  A    between atoms: C_8  and  C_9
REMARK    9  A    between atoms: C_9  and  O_10
REMARK   10  A    between atoms: C_9  and  C_11
REMARK   11  A    between atoms: C_11  and  O_12
REMARK   12  A    between atoms: O_12  and  C_13
REMARK   13  A    between atoms: C_18  and  O_19
REMARK   14  A    between atoms: O_19  and  C_20
REMARK                            x       y       z     vdW  Elec       q    Type
REMARK                         _______ _______ _______ _____ _____    ______ ____
ROOT
ATOM      1  C   UNL     1       6.690   4.509  17.010  0.00  0.00    +0.000 C 
ENDROOT
BRANCH   1   2
ATOM      2  O   UNL     1       8.032   4.209  17.405  0.00  0.00    +0.000 OA
ATOM      3  H   UNL     1       8.632   4.552  16.723  0.00  0.00    +0.000 HD
ENDBRANCH   1   2
BRANCH   1   4
ATOM      4  C   UNL     1       6.620   5.936  16.400  0.00  0.00    +0.000 C 
BRANCH   4   5
ATOM      5  N   UNL     1       7.675   6.838  16.855  0.00  0.00    +0.000 NA
ATOM      6  H   UNL     1       8.336   6.327  17.452  0.00  0.00    +0.000 HD
BRANCH   5   7
ATOM      7  C   UNL     1       7.120   7.993  17.561  0.00  0.00    +0.000 C 
BRANCH   7   8
ATOM      8  C   UNL     1       8.102   9.160  17.704  0.00  0.00    +0.000 C 
BRANCH   8   9
ATOM      9  C   UNL     1       8.945   9.141  18.989  0.00  0.00    +0.000 C 
BRANCH   9  10
ATOM     10  S   UNL     1       9.484  10.811  19.477  0.00  0.00    +0.000 S 
BRANCH  10  12
ATOM     11  C   UNL     1      10.066  12.729  17.552  0.00  0.00    +0.000 C 
ATOM     12  C   UNL     1       8.980  11.781  18.022  0.00  0.00    +0.000 C 
ENDBRANCH  10  12
ENDBRANCH   9  10
ENDBRANCH   8   9
ENDBRANCH   7   8
ENDBRANCH   5   7
ENDBRANCH   4   5
ENDBRANCH   1   4
BRANCH   1  13
ATOM     13  C   UNL     1       5.720   4.508  18.207  0.00  0.00    +0.000 C 
BRANCH  13  14
ATOM     14  O   UNL     1       4.635   3.570  18.116  0.00  0.00    +0.000 OA
BRANCH  14  15
ATOM     15  C   UNL     1       3.756   3.676  19.181  0.00  0.00    +0.000 A 
ATOM     16  C   UNL     1       3.655   2.645  20.141  0.00  0.00    +0.000 A 
ATOM     17  C   UNL     1       2.722   2.687  21.169  0.00  0.00    +0.000 A 
ATOM     18  C   UNL     1       1.892   3.785  21.302  0.00  0.00    +0.000 A 
ATOM     19  C   UNL     1       2.026   4.846  20.409  0.00  0.00    +0.000 A 
ATOM     20  C   UNL     1       2.949   4.812  19.345  0.00  0.00    +0.000 A 
BRANCH  20  21
ATOM     21  O   UNL     1       2.883   5.959  18.604  0.00  0.00    +0.000 OA
ATOM     22  C   UNL     1       2.418   7.156  19.197  0.00  0.00    +0.000 C 
ENDBRANCH  20  21
ENDBRANCH  14  15
ENDBRANCH  13  14
ENDBRANCH   1  13
TORSDOF 12
ENDMDL
MODEL 6
REMARK VINA RESULT:      -5.6      3.009      4.815
REMARK  Name = 
REMARK  14 active torsions:
REMARK  status: ('A' for Active; 'I' for Inactive)
REMARK    1  A    between atoms: C_1  and  C_2
REMARK    2  A    between atoms: C_2  and  S_3
REMARK    3  A    between atoms: S_3  and  C_4
REMARK    4  A    between atoms: C_4  and  C_5
REMARK    5  A    between atoms: C_5  and  C_6
REMARK    6  A    between atoms: C_6  and  N_7
REMARK    7  A    between atoms: N_7  and  C_8
REMARK    8  A    between atoms: C_8  and  C_9
REMARK    9  A    between atoms: C_9  and  O_10
REMARK   10  A    between atoms: C_9  and  C_11
REMARK   11  A    between atoms: C_11  and  O_12
REMARK   12  A    between atoms: O_12  and  C_13
REMARK   13  A    between atoms: C_18  and  O_19
REMARK   14  A    between atoms: O_19  and  C_20
REMARK                            x       y       z     vdW  Elec       q    Type
REMARK                         _______ _______ _______ _____ _____    ______ ____
ROOT
ATOM      1  C   UNL     1       1.628   3.177  20.382  0.00  0.00    +0.000 C 
ENDROOT
BRANCH   1   2
ATOM      2  O   UNL     1       2.117   2.733  21.652  0.00  0.00    +0.000 OA
ATOM      3  H   UNL     1       2.689   3.429  22.015  0.00  0.00    +0.000 HD
ENDBRANCH   1   2
BRANCH   1   4
ATOM      4  C   UNL     1       2.758   3.098  19.318  0.00  0.00    +0.000 C 
BRANCH   4   5
ATOM      5  N   UNL     1       4.095   3.366  19.839  0.00  0.00    +0.000 NA
ATOM      6  H   UNL     1       4.034   4.000  20.644  0.00  0.00    +0.000 HD
BRANCH   5   7
ATOM      7  C   UNL     1       4.968   3.920  18.804  0.00  0.00    +0.000 C 
BRANCH   7   8
ATOM      8  C   UNL     1       5.759   5.151  19.257  0.00  0.00    +0.000 C 
BRANCH   8   9
ATOM      9  C   UNL     1       6.606   5.815  18.160  0.00  0.00    +0.000 C 
BRANCH   9  10
ATOM     10  S   UNL     1       7.326   4.591  17.019  0.00  0.00    +0.000 S 
BRANCH  10  12
ATOM     11  C   UNL     1       6.265   4.067  14.506  0.00  0.00    +0.000 C 
ATOM     12  C   UNL     1       6.705   5.194  15.420  0.00  0.00    +0.000 C 
ENDBRANCH  10  12
ENDBRANCH   9  10
ENDBRANCH   8   9
ENDBRANCH   7   8
ENDBRANCH   5   7
ENDBRANCH   4   5
ENDBRANCH   1   4
BRANCH   1  13
ATOM     13  C   UNL     1       1.177   4.649  20.417  0.00  0.00    +0.000 C 
BRANCH  13  14
ATOM     14  O   UNL     1       2.225   5.606  20.642  0.00  0.00    +0.000 OA
BRANCH  14  15
ATOM     15  C   UNL     1       2.105   6.721  19.828  0.00  0.00    +0.000 A 
ATOM     16  C   UNL     1       2.493   6.670  18.472  0.00  0.00    +0.000 A 
ATOM     17  C   UNL     1       2.464   7.795  17.656  0.00  0.00    +0.000 A 
ATOM     18  C   UNL     1       1.997   8.997  18.157  0.00  0.00    +0.000 A 
ATOM     19  C   UNL     1       1.539   9.049  19.472  0.00  0.00    +0.000 A 
ATOM     20  C   UNL     1       1.583   7.926  20.321  0.00  0.00    +0.000 A 
BRANCH  20  21
ATOM     21  O   UNL     1       1.093   8.232  21.561  0.00  0.00    +0.000 OA
ATOM     22  C   UNL     1      -0.228   8.719  21.696  0.00  0.00    +0.000 C 
ENDBRANCH  20  21
ENDBRANCH  14  15
ENDBRANCH  13  14
ENDBRANCH   1  13
TORSDOF 12
ENDMDL
MODEL 7
REMARK VINA RESULT:      -5.6      3.515      6.913
REMARK  Name = 
REMARK  14 active torsions:
REMARK  status: ('A' for Active; 'I' for Inactive)
REMARK    1  A    between atoms: C_1  and  C_2
REMARK    2  A    between atoms: C_2  and  S_3
REMARK    3  A    between atoms: S_3  and  C_4
REMARK    4  A    between atoms: C_4  and  C_5
REMARK    5  A    between atoms: C_5  and  C_6
REMARK    6  A    between atoms: C_6  and  N_7
REMARK    7  A    between atoms: N_7  and  C_8
REMARK    8  A    between atoms: C_8  and  C_9
REMARK    9  A    between atoms: C_9  and  O_10
REMARK   10  A    between atoms: C_9  and  C_11
REMARK   11  A    between atoms: C_11  and  O_12
REMARK   12  A    between atoms: O_12  and  C_13
REMARK   13  A    between atoms: C_18  and  O_19
REMARK   14  A    between atoms: O_19  and  C_20
REMARK                            x       y       z     vdW  Elec       q    Type
REMARK                         _______ _______ _______ _____ _____    ______ ____
ROOT
ATOM      1  C   UNL     1       2.014   2.358  18.344  0.00  0.00    +0.000 C 
ENDROOT
BRANCH   1   2
ATOM      2  O   UNL     1       1.114   3.368  17.876  0.00  0.00    +0.000 OA
ATOM      3  H   UNL     1       0.651   3.741  18.644  0.00  0.00    +0.000 HD
ENDBRANCH   1   2
BRANCH   1   4
ATOM      4  C   UNL     1       2.156   2.446  19.889  0.00  0.00    +0.000 C 
BRANCH   4   5
ATOM      5  N   UNL     1       1.265   3.414  20.522  0.00  0.00    +0.000 NA
ATOM      6  H   UNL     1       0.557   3.728  19.848  0.00  0.00    +0.000 HD
BRANCH   5   7
ATOM      7  C   UNL     1       2.011   4.551  21.062  0.00  0.00    +0.000 C 
BRANCH   7   8
ATOM      8  C   UNL     1       1.684   5.883  20.380  0.00  0.00    +0.000 C 
BRANCH   8   9
ATOM      9  C   UNL     1       2.854   6.523  19.617  0.00  0.00    +0.000 C 
BRANCH   9  10
ATOM     10  S   UNL     1       2.281   7.642  18.299  0.00  0.00    +0.000 S 
BRANCH  10  12
ATOM     11  C   UNL     1       1.098  10.152  18.441  0.00  0.00    +0.000 C 
ATOM     12  C   UNL     1       1.449   8.934  19.273  0.00  0.00    +0.000 C 
ENDBRANCH  10  12
ENDBRANCH   9  10
ENDBRANCH   8   9
ENDBRANCH   7   8
ENDBRANCH   5   7
ENDBRANCH   4   5
ENDBRANCH   1   4
BRANCH   1  13
ATOM     13  C   UNL     1       3.433   2.538  17.774  0.00  0.00    +0.000 C 
BRANCH  13  14
ATOM     14  O   UNL     1       3.728   3.850  17.267  0.00  0.00    +0.000 OA
BRANCH  14  15
ATOM     15  C   UNL     1       5.022   4.250  17.559  0.00  0.00    +0.000 A 
ATOM     16  C   UNL     1       5.356   4.736  18.842  0.00  0.00    +0.000 A 
ATOM     17  C   UNL     1       6.623   5.223  19.136  0.00  0.00    +0.000 A 
ATOM     18  C   UNL     1       7.614   5.194  18.171  0.00  0.00    +0.000 A 
ATOM     19  C   UNL     1       7.325   4.649  16.921  0.00  0.00    +0.000 A 
ATOM     20  C   UNL     1       6.040   4.172  16.596  0.00  0.00    +0.000 A 
BRANCH  20  21
ATOM     21  O   UNL     1       6.004   3.702  15.313  0.00  0.00    +0.000 OA
ATOM     22  C   UNL     1       6.617   4.441  14.274  0.00  0.00    +0.000 C 
ENDBRANCH  20  21
ENDBRANCH  14  15
ENDBRANCH  13  14
ENDBRANCH   1  13
TORSDOF 12
ENDMDL
MODEL 8
REMARK VINA RESULT:      -5.6      3.081      4.982
REMARK  Name = 
REMARK  14 active torsions:
REMARK  status: ('A' for Active; 'I' for Inactive)
REMARK    1  A    between atoms: C_1  and  C_2
REMARK    2  A    between atoms: C_2  and  S_3
REMARK    3  A    between atoms: S_3  and  C_4
REMARK    4  A    between atoms: C_4  and  C_5
REMARK    5  A    between atoms: C_5  and  C_6
REMARK    6  A    between atoms: C_6  and  N_7
REMARK    7  A    between atoms: N_7  and  C_8
REMARK    8  A    between atoms: C_8  and  C_9
REMARK    9  A    between atoms: C_9  and  O_10
REMARK   10  A    between atoms: C_9  and  C_11
REMARK   11  A    between atoms: C_11  and  O_12
REMARK   12  A    between atoms: O_12  and  C_13
REMARK   13  A    between atoms: C_18  and  O_19
REMARK   14  A    between atoms: O_19  and  C_20
REMARK                            x       y       z     vdW  Elec       q    Type
REMARK                         _______ _______ _______ _____ _____    ______ ____
ROOT
ATOM      1  C   UNL     1       1.896   3.663  20.762  0.00  0.00    +0.000 C 
ENDROOT
BRANCH   1   2
ATOM      2  O   UNL     1       1.974   3.069  22.063  0.00  0.00    +0.000 OA
ATOM      3  H   UNL     1       1.568   2.189  22.018  0.00  0.00    +0.000 HD
ENDBRANCH   1   2
BRANCH   1   4
ATOM      4  C   UNL     1       3.212   3.402  19.978  0.00  0.00    +0.000 C 
BRANCH   4   5
ATOM      5  N   UNL     1       3.040   3.296  18.532  0.00  0.00    +0.000 NA
ATOM      6  H   UNL     1       2.529   2.434  18.304  0.00  0.00    +0.000 HD
BRANCH   5   7
ATOM      7  C   UNL     1       4.328   3.336  17.839  0.00  0.00    +0.000 C 
BRANCH   7   8
ATOM      8  C   UNL     1       4.441   4.467  16.812  0.00  0.00    +0.000 C 
BRANCH   8   9
ATOM      9  C   UNL     1       5.450   4.214  15.680  0.00  0.00    +0.000 C 
BRANCH   9  10
ATOM     10  S   UNL     1       6.994   5.150  15.918  0.00  0.00    +0.000 S 
BRANCH  10  12
ATOM     11  C   UNL     1       7.561   7.356  17.510  0.00  0.00    +0.000 C 
ATOM     12  C   UNL     1       6.419   6.508  16.984  0.00  0.00    +0.000 C 
ENDBRANCH  10  12
ENDBRANCH   9  10
ENDBRANCH   8   9
ENDBRANCH   7   8
ENDBRANCH   5   7
ENDBRANCH   4   5
ENDBRANCH   1   4
BRANCH   1  13
ATOM     13  C   UNL     1       1.738   5.193  20.833  0.00  0.00    +0.000 C 
BRANCH  13  14
ATOM     14  O   UNL     1       2.800   5.948  20.227  0.00  0.00    +0.000 OA
BRANCH  14  15
ATOM     15  C   UNL     1       2.340   7.091  19.593  0.00  0.00    +0.000 A 
ATOM     16  C   UNL     1       2.531   7.275  18.206  0.00  0.00    +0.000 A 
ATOM     17  C   UNL     1       2.156   8.448  17.562  0.00  0.00    +0.000 A 
ATOM     18  C   UNL     1       1.531   9.456  18.273  0.00  0.00    +0.000 A 
ATOM     19  C   UNL     1       1.266   9.262  19.628  0.00  0.00    +0.000 A 
ATOM     20  C   UNL     1       1.660   8.091  20.305  0.00  0.00    +0.000 A 
BRANCH  20  21
ATOM     21  O   UNL     1       1.301   8.145  21.623  0.00  0.00    +0.000 OA
ATOM     22  C   UNL     1       0.368   9.114  22.061  0.00  0.00    +0.000 C 
ENDBRANCH  20  21
ENDBRANCH  14  15
ENDBRANCH  13  14
ENDBRANCH   1  13
TORSDOF 12
ENDMDL
MODEL 9
REMARK VINA RESULT:      -5.6      1.212      2.273
REMARK  Name = 
REMARK  14 active torsions:
REMARK  status: ('A' for Active; 'I' for Inactive)
REMARK    1  A    between atoms: C_1  and  C_2
REMARK    2  A    between atoms: C_2  and  S_3
REMARK    3  A    between atoms: S_3  and  C_4
REMARK    4  A    between atoms: C_4  and  C_5
REMARK    5  A    between atoms: C_5  and  C_6
REMARK    6  A    between atoms: C_6  and  N_7
REMARK    7  A    between atoms: N_7  and  C_8
REMARK    8  A    between atoms: C_8  and  C_9
REMARK    9  A    between atoms: C_9  and  O_10
REMARK   10  A    between atoms: C_9  and  C_11
REMARK   11  A    between atoms: C_11  and  O_12
REMARK   12  A    between atoms: O_12  and  C_13
REMARK   13  A    between atoms: C_18  and  O_19
REMARK   14  A    between atoms: O_19  and  C_20
REMARK                            x       y       z     vdW  Elec       q    Type
REMARK                         _______ _______ _______ _____ _____    ______ ____
ROOT
ATOM      1  C   UNL     1       6.594   4.546  17.378  0.00  0.00    +0.000 C 
ENDROOT
BRANCH   1   2
ATOM      2  O   UNL     1       7.832   4.138  17.970  0.00  0.00    +0.000 OA
ATOM      3  H   UNL     1       7.631   3.544  18.712  0.00  0.00    +0.000 HD
ENDBRANCH   1   2
BRANCH   1   4
ATOM      4  C   UNL     1       6.835   5.729  16.401  0.00  0.00    +0.000 C 
BRANCH   4   5
ATOM      5  N   UNL     1       7.068   5.330  15.016  0.00  0.00    +0.000 NA
ATOM      6  H   UNL     1       6.645   6.016  14.380  0.00  0.00    +0.000 HD
BRANCH   5   7
ATOM      7  C   UNL     1       6.548   3.987  14.756  0.00  0.00    +0.000 C 
BRANCH   7   8
ATOM      8  C   UNL     1       5.327   3.967  13.831  0.00  0.00    +0.000 C 
BRANCH   8   9
ATOM      9  C   UNL     1       5.627   3.586  12.372  0.00  0.00    +0.000 C 
BRANCH   9  10
ATOM     10  S   UNL     1       4.158   2.927  11.521  0.00  0.00    +0.000 S 
BRANCH  10  12
ATOM     11  C   UNL     1       2.691   4.266   9.578  0.00  0.00    +0.000 C 
ATOM     12  C   UNL     1       4.107   3.983  10.041  0.00  0.00    +0.000 C 
ENDBRANCH  10  12
ENDBRANCH   9  10
ENDBRANCH   8   9
ENDBRANCH   7   8
ENDBRANCH   5   7
ENDBRANCH   4   5
ENDBRANCH   1   4
BRANCH   1  13
ATOM     13  C   UNL     1       5.590   5.057  18.429  0.00  0.00    +0.000 C 
BRANCH  13  14
ATOM     14  O   UNL     1       4.319   5.479  17.908  0.00  0.00    +0.000 OA
BRANCH  14  15
ATOM     15  C   UNL     1       3.264   5.103  18.724  0.00  0.00    +0.000 A 
ATOM     16  C   UNL     1       2.715   6.008  19.658  0.00  0.00    +0.000 A 
ATOM     17  C   UNL     1       1.715   5.631  20.547  0.00  0.00    +0.000 A 
ATOM     18  C   UNL     1       1.195   4.350  20.496  0.00  0.00    +0.000 A 
ATOM     19  C   UNL     1       1.672   3.465  19.531  0.00  0.00    +0.000 A 
ATOM     20  C   UNL     1       2.702   3.820  18.638  0.00  0.00    +0.000 A 
BRANCH  20  21
ATOM     21  O   UNL     1       3.002   2.782  17.800  0.00  0.00    +0.000 OA
ATOM     22  C   UNL     1       3.533   1.582  18.329  0.00  0.00    +0.000 C 
ENDBRANCH  20  21
ENDBRANCH  14  15
ENDBRANCH  13  14
ENDBRANCH   1  13
TORSDOF 12
ENDMDL
