MODEL 1
REMARK VINA RESULT:      -9.0      0.000      0.000
REMARK  Name = 
REMARK  7 active torsions:
REMARK  status: ('A' for Active; 'I' for Inactive)
REMARK    1  A    between atoms: C_1  and  C_2
REMARK    2  A    between atoms: C_2  and  C_3
REMARK    3  A    between atoms: C_8  and  C_9
REMARK    4  A    between atoms: C_10  and  C_11
REMARK    5  A    between atoms: C_14  and  C_15
REMARK    6  A    between atoms: C_21  and  N_22
REMARK    7  A    between atoms: C_29  and  O_30
REMARK                            x       y       z     vdW  Elec       q    Type
REMARK                         _______ _______ _______ _____ _____    ______ ____
ROOT
ATOM      1  C   UNL     1       6.307   4.745  16.274  0.00  0.00    +0.000 C 
ATOM      2  C   UNL     1       5.538   5.445  17.410  0.00  0.00    +0.000 C 
ATOM      3  C   UNL     1       6.585   6.102  18.333  0.00  0.00    +0.000 C 
ATOM      4  O   UNL     1       4.712   6.477  16.817  0.00  0.00    +0.000 OA
ATOM      5  C   UNL     1       3.763   7.025  17.644  0.00  0.00    +0.000 A 
ATOM      6  C   UNL     1       3.174   8.225  17.247  0.00  0.00    +0.000 A 
ATOM      7  C   UNL     1       2.220   8.858  18.065  0.00  0.00    +0.000 A 
ATOM      8  C   UNL     1       1.868   8.320  19.311  0.00  0.00    +0.000 A 
ATOM      9  C   UNL     1       2.459   7.115  19.682  0.00  0.00    +0.000 A 
ATOM     10  C   UNL     1       3.361   6.437  18.842  0.00  0.00    +0.000 A 
ATOM     11  C   UNL     1       3.871   5.073  19.258  0.00  0.00    +0.000 C 
ATOM     12  C   UNL     1       4.651   4.394  18.118  0.00  0.00    +0.000 C 
ENDROOT
BRANCH  11  13
ATOM     13  N   UNL     1       2.770   4.230  19.774  0.00  0.00    +0.000 N 
ATOM     14  C   UNL     1       2.785   3.819  21.103  0.00  0.00    +0.000 A 
ATOM     15  C   UNL     1       1.940   2.884  21.552  0.00  0.00    +0.000 A 
ATOM     16  C   UNL     1       0.979   2.299  20.657  0.00  0.00    +0.000 A 
ATOM     17  C   UNL     1       0.910   2.692  19.379  0.00  0.00    +0.000 A 
ATOM     18  C   UNL     1       1.857   3.713  18.855  0.00  0.00    +0.000 A 
ATOM     19  O   UNL     1       1.822   4.005  17.661  0.00  0.00    +0.000 OA
ENDBRANCH  11  13
BRANCH   8  20
ATOM     20  C   UNL     1       0.857   8.973  20.164  0.00  0.00    +0.000 C 
ATOM     21  C   UNL     1       0.640  10.301  20.222  0.00  0.00    +0.000 C 
BRANCH  21  22
ATOM     22  C   UNL     1      -0.405  10.934  21.044  0.00  0.00    +0.000 A 
ATOM     23  C   UNL     1      -1.270  11.907  20.530  0.00  0.00    +0.000 A 
ATOM     24  C   UNL     1      -2.206  12.534  21.355  0.00  0.00    +0.000 A 
ATOM     25  C   UNL     1      -2.311  12.177  22.701  0.00  0.00    +0.000 A 
ATOM     26  C   UNL     1      -1.504  11.152  23.207  0.00  0.00    +0.000 A 
ATOM     27  C   UNL     1      -0.559  10.535  22.381  0.00  0.00    +0.000 A 
BRANCH  25  28
ATOM     28  C   UNL     1      -3.223  12.869  23.561  0.00  0.00    +0.000 C 
ATOM     29  N   UNL     1      -3.953  13.447  24.268  0.00  0.00    +0.000 NA
ENDBRANCH  25  28
ENDBRANCH  21  22
ENDBRANCH   8  20
BRANCH  12  30
ATOM     30  O   UNL     1       5.415   3.276  18.590  0.00  0.00    +0.000 OA
ATOM     31  H   UNL     1       5.020   2.456  18.244  0.00  0.00    +0.000 HD
ENDBRANCH  12  30
TORSDOF 5
ENDMDL
MODEL 2
REMARK VINA RESULT:      -9.0      4.334      7.889
REMARK  Name = 
REMARK  7 active torsions:
REMARK  status: ('A' for Active; 'I' for Inactive)
REMARK    1  A    between atoms: C_1  and  C_2
REMARK    2  A    between atoms: C_2  and  C_3
REMARK    3  A    between atoms: C_8  and  C_9
REMARK    4  A    between atoms: C_10  and  C_11
REMARK    5  A    between atoms: C_14  and  C_15
REMARK    6  A    between atoms: C_21  and  N_22
REMARK    7  A    between atoms: C_29  and  O_30
REMARK                            x       y       z     vdW  Elec       q    Type
REMARK                         _______ _______ _______ _____ _____    ______ ____
ROOT
ATOM      1  C   UNL     1       2.657   2.063  17.500  0.00  0.00    +0.000 C 
ATOM      2  C   UNL     1       3.507   3.242  18.006  0.00  0.00    +0.000 C 
ATOM      3  C   UNL     1       4.241   2.764  19.276  0.00  0.00    +0.000 C 
ATOM      4  O   UNL     1       4.484   3.557  16.982  0.00  0.00    +0.000 OA
ATOM      5  C   UNL     1       5.151   4.745  17.146  0.00  0.00    +0.000 A 
ATOM      6  C   UNL     1       6.311   4.943  16.397  0.00  0.00    +0.000 A 
ATOM      7  C   UNL     1       7.063   6.124  16.542  0.00  0.00    +0.000 A 
ATOM      8  C   UNL     1       6.688   7.108  17.467  0.00  0.00    +0.000 A 
ATOM      9  C   UNL     1       5.520   6.895  18.196  0.00  0.00    +0.000 A 
ATOM     10  C   UNL     1       4.722   5.752  18.009  0.00  0.00    +0.000 A 
ATOM     11  C   UNL     1       3.405   5.645  18.747  0.00  0.00    +0.000 C 
ATOM     12  C   UNL     1       2.574   4.453  18.242  0.00  0.00    +0.000 C 
ENDROOT
BRANCH  11  13
ATOM     13  N   UNL     1       2.660   6.922  18.690  0.00  0.00    +0.000 N 
ATOM     14  C   UNL     1       2.820   7.762  17.593  0.00  0.00    +0.000 A 
ATOM     15  C   UNL     1       2.346   9.013  17.599  0.00  0.00    +0.000 A 
ATOM     16  C   UNL     1       1.639   9.505  18.750  0.00  0.00    +0.000 A 
ATOM     17  C   UNL     1       1.436   8.717  19.813  0.00  0.00    +0.000 A 
ATOM     18  C   UNL     1       1.975   7.331  19.834  0.00  0.00    +0.000 A 
ATOM     19  O   UNL     1       1.838   6.651  20.850  0.00  0.00    +0.000 OA
ENDBRANCH  11  13
BRANCH   8  20
ATOM     20  C   UNL     1       7.466   8.353  17.611  0.00  0.00    +0.000 C 
ATOM     21  C   UNL     1       8.264   8.646  18.656  0.00  0.00    +0.000 C 
BRANCH  21  22
ATOM     22  C   UNL     1       9.069   9.874  18.763  0.00  0.00    +0.000 A 
ATOM     23  C   UNL     1       9.527  10.564  17.635  0.00  0.00    +0.000 A 
ATOM     24  C   UNL     1      10.344  11.689  17.772  0.00  0.00    +0.000 A 
ATOM     25  C   UNL     1      10.694  12.156  19.041  0.00  0.00    +0.000 A 
ATOM     26  C   UNL     1      10.180  11.519  20.175  0.00  0.00    +0.000 A 
ATOM     27  C   UNL     1       9.371  10.386  20.034  0.00  0.00    +0.000 A 
BRANCH  25  28
ATOM     28  C   UNL     1      11.588  13.266  19.178  0.00  0.00    +0.000 C 
ATOM     29  N   UNL     1      12.333  14.160  19.291  0.00  0.00    +0.000 NA
ENDBRANCH  25  28
ENDBRANCH  21  22
ENDBRANCH   8  20
BRANCH  12  30
ATOM     30  O   UNL     1       1.499   4.137  19.138  0.00  0.00    +0.000 OA
ATOM     31  H   UNL     1       1.850   3.610  19.877  0.00  0.00    +0.000 HD
ENDBRANCH  12  30
TORSDOF 5
ENDMDL
MODEL 3
REMARK VINA RESULT:      -8.6      1.393      1.656
REMARK  Name = 
REMARK  7 active torsions:
REMARK  status: ('A' for Active; 'I' for Inactive)
REMARK    1  A    between atoms: C_1  and  C_2
REMARK    2  A    between atoms: C_2  and  C_3
REMARK    3  A    between atoms: C_8  and  C_9
REMARK    4  A    between atoms: C_10  and  C_11
REMARK    5  A    between atoms: C_14  and  C_15
REMARK    6  A    between atoms: C_21  and  N_22
REMARK    7  A    between atoms: C_29  and  O_30
REMARK                            x       y       z     vdW  Elec       q    Type
REMARK                         _______ _______ _______ _____ _____    ______ ____
ROOT
ATOM      1  C   UNL     1       7.099   4.321  17.125  0.00  0.00    +0.000 C 
ATOM      2  C   UNL     1       6.091   5.132  17.958  0.00  0.00    +0.000 C 
ATOM      3  C   UNL     1       6.882   5.822  19.089  0.00  0.00    +0.000 C 
ATOM      4  O   UNL     1       5.514   6.144  17.095  0.00  0.00    +0.000 OA
ATOM      5  C   UNL     1       4.408   6.787  17.593  0.00  0.00    +0.000 A 
ATOM      6  C   UNL     1       4.015   7.972  16.973  0.00  0.00    +0.000 A 
ATOM      7  C   UNL     1       2.911   8.700  17.455  0.00  0.00    +0.000 A 
ATOM      8  C   UNL     1       2.205   8.273  18.588  0.00  0.00    +0.000 A 
ATOM      9  C   UNL     1       2.607   7.080  19.185  0.00  0.00    +0.000 A 
ATOM     10  C   UNL     1       3.664   6.308  18.670  0.00  0.00    +0.000 A 
ATOM     11  C   UNL     1       3.966   4.964  19.298  0.00  0.00    +0.000 C 
ATOM     12  C   UNL     1       4.988   4.171  18.462  0.00  0.00    +0.000 C 
ENDROOT
BRANCH  11  13
ATOM     13  N   UNL     1       2.722   4.202  19.545  0.00  0.00    +0.000 N 
ATOM     14  C   UNL     1       2.353   3.896  20.851  0.00  0.00    +0.000 A 
ATOM     15  C   UNL     1       1.368   3.029  21.110  0.00  0.00    +0.000 A 
ATOM     16  C   UNL     1       0.657   2.408  20.026  0.00  0.00    +0.000 A 
ATOM     17  C   UNL     1       0.960   2.701  18.756  0.00  0.00    +0.000 A 
ATOM     18  C   UNL     1       2.068   3.645  18.447  0.00  0.00    +0.000 A 
ATOM     19  O   UNL     1       2.375   3.843  17.273  0.00  0.00    +0.000 OA
ENDBRANCH  11  13
BRANCH   8  20
ATOM     20  C   UNL     1       1.038   9.024  19.087  0.00  0.00    +0.000 C 
ATOM     21  C   UNL     1       0.434  10.033  18.429  0.00  0.00    +0.000 C 
BRANCH  21  22
ATOM     22  C   UNL     1      -0.760  10.743  18.919  0.00  0.00    +0.000 A 
ATOM     23  C   UNL     1      -1.940  10.819  18.171  0.00  0.00    +0.000 A 
ATOM     24  C   UNL     1      -3.031  11.557  18.637  0.00  0.00    +0.000 A 
ATOM     25  C   UNL     1      -2.968  12.205  19.873  0.00  0.00    +0.000 A 
ATOM     26  C   UNL     1      -1.822  12.072  20.663  0.00  0.00    +0.000 A 
ATOM     27  C   UNL     1      -0.726  11.343  20.187  0.00  0.00    +0.000 A 
BRANCH  25  28
ATOM     28  C   UNL     1      -4.061  13.016  20.317  0.00  0.00    +0.000 C 
ATOM     29  N   UNL     1      -4.956  13.686  20.660  0.00  0.00    +0.000 NA
ENDBRANCH  25  28
ENDBRANCH  21  22
ENDBRANCH   8  20
BRANCH  12  30
ATOM     30  O   UNL     1       5.533   3.067  19.197  0.00  0.00    +0.000 OA
ATOM     31  H   UNL     1       6.486   3.214  19.327  0.00  0.00    +0.000 HD
ENDBRANCH  12  30
TORSDOF 5
ENDMDL
MODEL 4
REMARK VINA RESULT:      -8.6      2.014      4.137
REMARK  Name = 
REMARK  7 active torsions:
REMARK  status: ('A' for Active; 'I' for Inactive)
REMARK    1  A    between atoms: C_1  and  C_2
REMARK    2  A    between atoms: C_2  and  C_3
REMARK    3  A    between atoms: C_8  and  C_9
REMARK    4  A    between atoms: C_10  and  C_11
REMARK    5  A    between atoms: C_14  and  C_15
REMARK    6  A    between atoms: C_21  and  N_22
REMARK    7  A    between atoms: C_29  and  O_30
REMARK                            x       y       z     vdW  Elec       q    Type
REMARK                         _______ _______ _______ _____ _____    ______ ____
ROOT
ATOM      1  C   UNL     1       3.847   1.157  18.396  0.00  0.00    +0.000 C 
ATOM      2  C   UNL     1       3.400   2.627  18.304  0.00  0.00    +0.000 C 
ATOM      3  C   UNL     1       2.340   2.714  17.186  0.00  0.00    +0.000 C 
ATOM      4  O   UNL     1       2.788   2.984  19.569  0.00  0.00    +0.000 OA
ATOM      5  C   UNL     1       2.570   4.325  19.763  0.00  0.00    +0.000 A 
ATOM      6  C   UNL     1       1.702   4.697  20.789  0.00  0.00    +0.000 A 
ATOM      7  C   UNL     1       1.407   6.054  21.020  0.00  0.00    +0.000 A 
ATOM      8  C   UNL     1       1.946   7.058  20.204  0.00  0.00    +0.000 A 
ATOM      9  C   UNL     1       2.820   6.665  19.193  0.00  0.00    +0.000 A 
ATOM     10  C   UNL     1       3.178   5.319  18.997  0.00  0.00    +0.000 A 
ATOM     11  C   UNL     1       4.225   4.980  17.958  0.00  0.00    +0.000 C 
ATOM     12  C   UNL     1       4.650   3.503  18.051  0.00  0.00    +0.000 C 
ENDROOT
BRANCH  11  13
ATOM     13  N   UNL     1       5.375   5.908  18.041  0.00  0.00    +0.000 N 
ATOM     14  C   UNL     1       5.514   6.914  17.091  0.00  0.00    +0.000 A 
ATOM     15  C   UNL     1       6.641   7.628  16.995  0.00  0.00    +0.000 A 
ATOM     16  C   UNL     1       7.730   7.372  17.898  0.00  0.00    +0.000 A 
ATOM     17  C   UNL     1       7.622   6.435  18.847  0.00  0.00    +0.000 A 
ATOM     18  C   UNL     1       6.386   5.614  18.955  0.00  0.00    +0.000 A 
ATOM     19  O   UNL     1       6.339   4.711  19.789  0.00  0.00    +0.000 OA
ENDBRANCH  11  13
BRANCH   8  20
ATOM     20  C   UNL     1       1.651   8.482  20.453  0.00  0.00    +0.000 C 
ATOM     21  C   UNL     1       0.529   8.945  21.036  0.00  0.00    +0.000 C 
BRANCH  21  22
ATOM     22  C   UNL     1       0.270  10.367  21.320  0.00  0.00    +0.000 A 
ATOM     23  C   UNL     1       0.899  11.394  20.606  0.00  0.00    +0.000 A 
ATOM     24  C   UNL     1       0.681  12.732  20.945  0.00  0.00    +0.000 A 
ATOM     25  C   UNL     1      -0.191  13.063  21.985  0.00  0.00    +0.000 A 
ATOM     26  C   UNL     1      -0.883  12.048  22.654  0.00  0.00    +0.000 A 
ATOM     27  C   UNL     1      -0.653  10.709  22.320  0.00  0.00    +0.000 A 
BRANCH  25  28
ATOM     28  C   UNL     1      -0.359  14.430  22.375  0.00  0.00    +0.000 C 
ATOM     29  N   UNL     1      -0.516  15.544  22.695  0.00  0.00    +0.000 NA
ENDBRANCH  25  28
ENDBRANCH  21  22
ENDBRANCH   8  20
BRANCH  12  30
ATOM     30  O   UNL     1       5.373   3.084  16.885  0.00  0.00    +0.000 OA
ATOM     31  H   UNL     1       5.993   3.789  16.629  0.00  0.00    +0.000 HD
ENDBRANCH  12  30
TORSDOF 5
ENDMDL
MODEL 5
REMARK VINA RESULT:      -8.6      0.869      1.495
REMARK  Name = 
REMARK  7 active torsions:
REMARK  status: ('A' for Active; 'I' for Inactive)
REMARK    1  A    between atoms: C_1  and  C_2
REMARK    2  A    between atoms: C_2  and  C_3
REMARK    3  A    between atoms: C_8  and  C_9
REMARK    4  A    between atoms: C_10  and  C_11
REMARK    5  A    between atoms: C_14  and  C_15
REMARK    6  A    between atoms: C_21  and  N_22
REMARK    7  A    between atoms: C_29  and  O_30
REMARK                            x       y       z     vdW  Elec       q    Type
REMARK                         _______ _______ _______ _____ _____    ______ ____
ROOT
ATOM      1  C   UNL     1       6.373   4.534  16.085  0.00  0.00    +0.000 C 
ATOM      2  C   UNL     1       5.661   5.241  17.252  0.00  0.00    +0.000 C 
ATOM      3  C   UNL     1       6.748   5.931  18.101  0.00  0.00    +0.000 C 
ATOM      4  O   UNL     1       4.783   6.250  16.691  0.00  0.00    +0.000 OA
ATOM      5  C   UNL     1       3.876   6.797  17.563  0.00  0.00    +0.000 A 
ATOM      6  C   UNL     1       3.245   7.980  17.181  0.00  0.00    +0.000 A 
ATOM      7  C   UNL     1       2.329   8.613  18.043  0.00  0.00    +0.000 A 
ATOM      8  C   UNL     1       2.060   8.092  19.316  0.00  0.00    +0.000 A 
ATOM      9  C   UNL     1       2.692   6.903  19.672  0.00  0.00    +0.000 A 
ATOM     10  C   UNL     1       3.554   6.224  18.792  0.00  0.00    +0.000 A 
ATOM     11  C   UNL     1       4.110   4.877  19.201  0.00  0.00    +0.000 C 
ATOM     12  C   UNL     1       4.834   4.190  18.029  0.00  0.00    +0.000 C 
ENDROOT
BRANCH  11  13
ATOM     13  N   UNL     1       3.055   4.026  19.795  0.00  0.00    +0.000 N 
ATOM     14  C   UNL     1       1.718   4.352  19.597  0.00  0.00    +0.000 A 
ATOM     15  C   UNL     1       0.745   3.749  20.290  0.00  0.00    +0.000 A 
ATOM     16  C   UNL     1       1.075   2.730  21.248  0.00  0.00    +0.000 A 
ATOM     17  C   UNL     1       2.347   2.364  21.443  0.00  0.00    +0.000 A 
ATOM     18  C   UNL     1       3.445   3.039  20.699  0.00  0.00    +0.000 A 
ATOM     19  O   UNL     1       4.611   2.736  20.949  0.00  0.00    +0.000 OA
ENDBRANCH  11  13
BRANCH   8  20
ATOM     20  C   UNL     1       1.089   8.744  20.216  0.00  0.00    +0.000 C 
ATOM     21  C   UNL     1       0.852  10.070  20.261  0.00  0.00    +0.000 C 
BRANCH  21  22
ATOM     22  C   UNL     1      -0.154  10.700  21.133  0.00  0.00    +0.000 A 
ATOM     23  C   UNL     1      -0.320  10.324  22.470  0.00  0.00    +0.000 A 
ATOM     24  C   UNL     1      -1.328  10.895  23.251  0.00  0.00    +0.000 A 
ATOM     25  C   UNL     1      -2.168  11.873  22.712  0.00  0.00    +0.000 A 
ATOM     26  C   UNL     1      -1.962  12.312  21.400  0.00  0.00    +0.000 A 
ATOM     27  C   UNL     1      -0.959  11.728  20.618  0.00  0.00    +0.000 A 
BRANCH  25  28
ATOM     28  C   UNL     1      -3.243  12.408  23.491  0.00  0.00    +0.000 C 
ATOM     29  N   UNL     1      -4.115  12.863  24.124  0.00  0.00    +0.000 NA
ENDBRANCH  25  28
ENDBRANCH  21  22
ENDBRANCH   8  20
BRANCH  12  30
ATOM     30  O   UNL     1       5.642   3.092  18.474  0.00  0.00    +0.000 OA
ATOM     31  H   UNL     1       5.063   2.339  18.685  0.00  0.00    +0.000 HD
ENDBRANCH  12  30
TORSDOF 5
ENDMDL
MODEL 6
REMARK VINA RESULT:      -8.5      3.872      9.609
REMARK  Name = 
REMARK  7 active torsions:
REMARK  status: ('A' for Active; 'I' for Inactive)
REMARK    1  A    between atoms: C_1  and  C_2
REMARK    2  A    between atoms: C_2  and  C_3
REMARK    3  A    between atoms: C_8  and  C_9
REMARK    4  A    between atoms: C_10  and  C_11
REMARK    5  A    between atoms: C_14  and  C_15
REMARK    6  A    between atoms: C_21  and  N_22
REMARK    7  A    between atoms: C_29  and  O_30
REMARK                            x       y       z     vdW  Elec       q    Type
REMARK                         _______ _______ _______ _____ _____    ______ ____
ROOT
ATOM      1  C   UNL     1      -3.001  12.737  23.721  0.00  0.00    +0.000 C 
ATOM      2  C   UNL     1      -1.942  12.336  22.679  0.00  0.00    +0.000 C 
ATOM      3  C   UNL     1      -0.800  13.369  22.766  0.00  0.00    +0.000 C 
ATOM      4  O   UNL     1      -1.431  11.030  23.046  0.00  0.00    +0.000 OA
ATOM      5  C   UNL     1      -0.674  10.400  22.089  0.00  0.00    +0.000 A 
ATOM      6  C   UNL     1       0.106   9.317  22.492  0.00  0.00    +0.000 A 
ATOM      7  C   UNL     1       0.933   8.648  21.570  0.00  0.00    +0.000 A 
ATOM      8  C   UNL     1       1.022   9.077  20.239  0.00  0.00    +0.000 A 
ATOM      9  C   UNL     1       0.225  10.154  19.855  0.00  0.00    +0.000 A 
ATOM     10  C   UNL     1      -0.658  10.785  20.750  0.00  0.00    +0.000 A 
ATOM     11  C   UNL     1      -1.579  11.868  20.232  0.00  0.00    +0.000 C 
ATOM     12  C   UNL     1      -2.622  12.271  21.291  0.00  0.00    +0.000 C 
ENDROOT
BRANCH  11  13
ATOM     13  N   UNL     1      -2.198  11.470  18.948  0.00  0.00    +0.000 N 
ATOM     14  C   UNL     1      -3.117  10.427  18.924  0.00  0.00    +0.000 A 
ATOM     15  C   UNL     1      -3.531   9.891  17.770  0.00  0.00    +0.000 A 
ATOM     16  C   UNL     1      -3.035  10.407  16.523  0.00  0.00    +0.000 A 
ATOM     17  C   UNL     1      -2.175  11.432  16.503  0.00  0.00    +0.000 A 
ATOM     18  C   UNL     1      -1.685  12.027  17.777  0.00  0.00    +0.000 A 
ATOM     19  O   UNL     1      -0.841  12.919  17.734  0.00  0.00    +0.000 OA
ENDBRANCH  11  13
BRANCH   8  20
ATOM     20  C   UNL     1       1.875   8.370  19.266  0.00  0.00    +0.000 C 
ATOM     21  C   UNL     1       2.302   7.098  19.398  0.00  0.00    +0.000 C 
BRANCH  21  22
ATOM     22  C   UNL     1       3.115   6.391  18.394  0.00  0.00    +0.000 A 
ATOM     23  C   UNL     1       3.044   5.004  18.222  0.00  0.00    +0.000 A 
ATOM     24  C   UNL     1       3.878   4.356  17.307  0.00  0.00    +0.000 A 
ATOM     25  C   UNL     1       4.776   5.092  16.530  0.00  0.00    +0.000 A 
ATOM     26  C   UNL     1       4.802   6.486  16.639  0.00  0.00    +0.000 A 
ATOM     27  C   UNL     1       3.974   7.129  17.565  0.00  0.00    +0.000 A 
BRANCH  25  28
ATOM     28  C   UNL     1       5.678   4.419  15.643  0.00  0.00    +0.000 C 
ATOM     29  N   UNL     1       6.402   3.854  14.920  0.00  0.00    +0.000 NA
ENDBRANCH  25  28
ENDBRANCH  21  22
ENDBRANCH   8  20
BRANCH  12  30
ATOM     30  O   UNL     1      -3.273  13.503  20.953  0.00  0.00    +0.000 OA
ATOM     31  H   UNL     1      -3.861  13.351  20.192  0.00  0.00    +0.000 HD
ENDBRANCH  12  30
TORSDOF 5
ENDMDL
MODEL 7
REMARK VINA RESULT:      -8.5      1.966      2.445
REMARK  Name = 
REMARK  7 active torsions:
REMARK  status: ('A' for Active; 'I' for Inactive)
REMARK    1  A    between atoms: C_1  and  C_2
REMARK    2  A    between atoms: C_2  and  C_3
REMARK    3  A    between atoms: C_8  and  C_9
REMARK    4  A    between atoms: C_10  and  C_11
REMARK    5  A    between atoms: C_14  and  C_15
REMARK    6  A    between atoms: C_21  and  N_22
REMARK    7  A    between atoms: C_29  and  O_30
REMARK                            x       y       z     vdW  Elec       q    Type
REMARK                         _______ _______ _______ _____ _____    ______ ____
ROOT
ATOM      1  C   UNL     1       7.451   4.376  17.401  0.00  0.00    +0.000 C 
ATOM      2  C   UNL     1       6.329   5.136  18.132  0.00  0.00    +0.000 C 
ATOM      3  C   UNL     1       6.971   5.844  19.343  0.00  0.00    +0.000 C 
ATOM      4  O   UNL     1       5.803   6.134  17.221  0.00  0.00    +0.000 OA
ATOM      5  C   UNL     1       4.626   6.726  17.607  0.00  0.00    +0.000 A 
ATOM      6  C   UNL     1       4.250   7.902  16.959  0.00  0.00    +0.000 A 
ATOM      7  C   UNL     1       3.073   8.578  17.329  0.00  0.00    +0.000 A 
ATOM      8  C   UNL     1       2.273   8.110  18.381  0.00  0.00    +0.000 A 
ATOM      9  C   UNL     1       2.660   6.927  19.007  0.00  0.00    +0.000 A 
ATOM     10  C   UNL     1       3.796   6.204  18.599  0.00  0.00    +0.000 A 
ATOM     11  C   UNL     1       4.088   4.867  19.244  0.00  0.00    +0.000 C 
ATOM     12  C   UNL     1       5.222   4.126  18.512  0.00  0.00    +0.000 C 
ENDROOT
BRANCH  11  13
ATOM     13  N   UNL     1       2.857   4.052  19.356  0.00  0.00    +0.000 N 
ATOM     14  C   UNL     1       2.300   3.489  18.213  0.00  0.00    +0.000 A 
ATOM     15  C   UNL     1       1.081   2.938  18.232  0.00  0.00    +0.000 A 
ATOM     16  C   UNL     1       0.330   2.905  19.457  0.00  0.00    +0.000 A 
ATOM     17  C   UNL     1       0.844   3.406  20.586  0.00  0.00    +0.000 A 
ATOM     18  C   UNL     1       2.189   4.044  20.580  0.00  0.00    +0.000 A 
ATOM     19  O   UNL     1       2.610   4.562  21.613  0.00  0.00    +0.000 OA
ENDBRANCH  11  13
BRANCH   8  20
ATOM     20  C   UNL     1       1.031   8.808  18.762  0.00  0.00    +0.000 C 
ATOM     21  C   UNL     1       0.377   9.694  17.986  0.00  0.00    +0.000 C 
BRANCH  21  22
ATOM     22  C   UNL     1      -0.889  10.347  18.363  0.00  0.00    +0.000 A 
ATOM     23  C   UNL     1      -2.080  10.118  17.666  0.00  0.00    +0.000 A 
ATOM     24  C   UNL     1      -3.248  10.805  18.008  0.00  0.00    +0.000 A 
ATOM     25  C   UNL     1      -3.247  11.711  19.072  0.00  0.00    +0.000 A 
ATOM     26  C   UNL     1      -2.081  11.890  19.823  0.00  0.00    +0.000 A 
ATOM     27  C   UNL     1      -0.910  11.210  19.469  0.00  0.00    +0.000 A 
BRANCH  25  28
ATOM     28  C   UNL     1      -4.426  12.464  19.377  0.00  0.00    +0.000 C 
ATOM     29  N   UNL     1      -5.392  13.082  19.606  0.00  0.00    +0.000 NA
ENDBRANCH  25  28
ENDBRANCH  21  22
ENDBRANCH   8  20
BRANCH  12  30
ATOM     30  O   UNL     1       5.733   3.036  19.291  0.00  0.00    +0.000 OA
ATOM     31  H   UNL     1       5.491   2.198  18.858  0.00  0.00    +0.000 HD
ENDBRANCH  12  30
TORSDOF 5
ENDMDL
MODEL 8
REMARK VINA RESULT:      -8.5      1.071      1.439
REMARK  Name = 
REMARK  7 active torsions:
REMARK  status: ('A' for Active; 'I' for Inactive)
REMARK    1  A    between atoms: C_1  and  C_2
REMARK    2  A    between atoms: C_2  and  C_3
REMARK    3  A    between atoms: C_8  and  C_9
REMARK    4  A    between atoms: C_10  and  C_11
REMARK    5  A    between atoms: C_14  and  C_15
REMARK    6  A    between atoms: C_21  and  N_22
REMARK    7  A    between atoms: C_29  and  O_30
REMARK                            x       y       z     vdW  Elec       q    Type
REMARK                         _______ _______ _______ _____ _____    ______ ____
ROOT
ATOM      1  C   UNL     1       7.038   4.285  17.075  0.00  0.00    +0.000 C 
ATOM      2  C   UNL     1       6.056   5.090  17.945  0.00  0.00    +0.000 C 
ATOM      3  C   UNL     1       6.883   5.777  19.052  0.00  0.00    +0.000 C 
ATOM      4  O   UNL     1       5.448   6.105  17.106  0.00  0.00    +0.000 OA
ATOM      5  C   UNL     1       4.358   6.742  17.643  0.00  0.00    +0.000 A 
ATOM      6  C   UNL     1       3.943   7.930  17.041  0.00  0.00    +0.000 A 
ATOM      7  C   UNL     1       2.853   8.653  17.562  0.00  0.00    +0.000 A 
ATOM      8  C   UNL     1       2.187   8.219  18.717  0.00  0.00    +0.000 A 
ATOM      9  C   UNL     1       2.610   7.024  19.295  0.00  0.00    +0.000 A 
ATOM     10  C   UNL     1       3.652   6.257  18.742  0.00  0.00    +0.000 A 
ATOM     11  C   UNL     1       3.977   4.911  19.353  0.00  0.00    +0.000 C 
ATOM     12  C   UNL     1       4.973   4.125  18.481  0.00  0.00    +0.000 C 
ENDROOT
BRANCH  11  13
ATOM     13  N   UNL     1       2.744   4.145  19.638  0.00  0.00    +0.000 N 
ATOM     14  C   UNL     1       2.437   3.802  20.951  0.00  0.00    +0.000 A 
ATOM     15  C   UNL     1       1.462   2.931  21.233  0.00  0.00    +0.000 A 
ATOM     16  C   UNL     1       0.697   2.343  20.167  0.00  0.00    +0.000 A 
ATOM     17  C   UNL     1       0.940   2.672  18.892  0.00  0.00    +0.000 A 
ATOM     18  C   UNL     1       2.035   3.622  18.557  0.00  0.00    +0.000 A 
ATOM     19  O   UNL     1       2.286   3.853  17.376  0.00  0.00    +0.000 OA
ENDBRANCH  11  13
BRANCH   8  20
ATOM     20  C   UNL     1       1.035   8.966  19.257  0.00  0.00    +0.000 C 
ATOM     21  C   UNL     1       0.919  10.308  19.255  0.00  0.00    +0.000 C 
BRANCH  21  22
ATOM     22  C   UNL     1      -0.259  11.037  19.757  0.00  0.00    +0.000 A 
ATOM     23  C   UNL     1      -0.344  11.495  21.076  0.00  0.00    +0.000 A 
ATOM     24  C   UNL     1      -1.503  12.124  21.538  0.00  0.00    +0.000 A 
ATOM     25  C   UNL     1      -2.584  12.330  20.677  0.00  0.00    +0.000 A 
ATOM     26  C   UNL     1      -2.480  11.945  19.336  0.00  0.00    +0.000 A 
ATOM     27  C   UNL     1      -1.322  11.304  18.881  0.00  0.00    +0.000 A 
BRANCH  25  28
ATOM     28  C   UNL     1      -3.795  12.912  21.170  0.00  0.00    +0.000 C 
ATOM     29  N   UNL     1      -4.774  13.400  21.584  0.00  0.00    +0.000 NA
ENDBRANCH  25  28
ENDBRANCH  21  22
ENDBRANCH   8  20
BRANCH  12  30
ATOM     30  O   UNL     1       5.544   3.018  19.193  0.00  0.00    +0.000 OA
ATOM     31  H   UNL     1       4.842   2.576  19.704  0.00  0.00    +0.000 HD
ENDBRANCH  12  30
TORSDOF 5
ENDMDL
MODEL 9
REMARK VINA RESULT:      -8.5      7.821     11.379
REMARK  Name = 
REMARK  7 active torsions:
REMARK  status: ('A' for Active; 'I' for Inactive)
REMARK    1  A    between atoms: C_1  and  C_2
REMARK    2  A    between atoms: C_2  and  C_3
REMARK    3  A    between atoms: C_8  and  C_9
REMARK    4  A    between atoms: C_10  and  C_11
REMARK    5  A    between atoms: C_14  and  C_15
REMARK    6  A    between atoms: C_21  and  N_22
REMARK    7  A    between atoms: C_29  and  O_30
REMARK                            x       y       z     vdW  Elec       q    Type
REMARK                         _______ _______ _______ _____ _____    ______ ____
ROOT
ATOM      1  C   UNL     1      11.955  17.267  18.210  0.00  0.00    +0.000 C 
ATOM      2  C   UNL     1      10.958  16.094  18.163  0.00  0.00    +0.000 C 
ATOM      3  C   UNL     1      10.084  16.287  16.907  0.00  0.00    +0.000 C 
ATOM      4  O   UNL     1      11.721  14.869  18.029  0.00  0.00    +0.000 OA
ATOM      5  C   UNL     1      11.018  13.708  18.236  0.00  0.00    +0.000 A 
ATOM      6  C   UNL     1      11.598  12.516  17.804  0.00  0.00    +0.000 A 
ATOM      7  C   UNL     1      10.916  11.294  17.954  0.00  0.00    +0.000 A 
ATOM      8  C   UNL     1       9.627  11.250  18.504  0.00  0.00    +0.000 A 
ATOM      9  C   UNL     1       9.072  12.451  18.940  0.00  0.00    +0.000 A 
ATOM     10  C   UNL     1       9.772  13.669  18.860  0.00  0.00    +0.000 A 
ATOM     11  C   UNL     1       9.155  14.912  19.463  0.00  0.00    +0.000 C 
ATOM     12  C   UNL     1      10.158  16.080  19.487  0.00  0.00    +0.000 C 
ENDROOT
BRANCH  11  13
ATOM     13  N   UNL     1       8.583  14.627  20.797  0.00  0.00    +0.000 N 
ATOM     14  C   UNL     1       9.406  14.144  21.809  0.00  0.00    +0.000 A 
ATOM     15  C   UNL     1       8.899  13.668  22.951  0.00  0.00    +0.000 A 
ATOM     16  C   UNL     1       7.476  13.665  23.156  0.00  0.00    +0.000 A 
ATOM     17  C   UNL     1       6.652  14.151  22.220  0.00  0.00    +0.000 A 
ATOM     18  C   UNL     1       7.195  14.665  20.934  0.00  0.00    +0.000 A 
ATOM     19  O   UNL     1       6.414  15.040  20.061  0.00  0.00    +0.000 OA
ENDBRANCH  11  13
BRANCH   8  20
ATOM     20  C   UNL     1       8.916   9.969  18.677  0.00  0.00    +0.000 C 
ATOM     21  C   UNL     1       8.304   9.290  17.687  0.00  0.00    +0.000 C 
BRANCH  21  22
ATOM     22  C   UNL     1       7.637   7.988  17.868  0.00  0.00    +0.000 A 
ATOM     23  C   UNL     1       6.443   7.667  17.213  0.00  0.00    +0.000 A 
ATOM     24  C   UNL     1       5.802   6.450  17.457  0.00  0.00    +0.000 A 
ATOM     25  C   UNL     1       6.363   5.524  18.341  0.00  0.00    +0.000 A 
ATOM     26  C   UNL     1       7.594   5.802  18.942  0.00  0.00    +0.000 A 
ATOM     27  C   UNL     1       8.226   7.028  18.704  0.00  0.00    +0.000 A 
BRANCH  25  28
ATOM     28  C   UNL     1       5.670   4.307  18.643  0.00  0.00    +0.000 C 
ATOM     29  N   UNL     1       5.110   3.316  18.908  0.00  0.00    +0.000 NA
ENDBRANCH  25  28
ENDBRANCH  21  22
ENDBRANCH   8  20
BRANCH  12  30
ATOM     30  O   UNL     1       9.507  17.334  19.735  0.00  0.00    +0.000 OA
ATOM     31  H   UNL     1       8.834  17.481  19.047  0.00  0.00    +0.000 HD
ENDBRANCH  12  30
TORSDOF 5
ENDMDL
