MODEL 1
REMARK VINA RESULT:      -7.7      0.000      0.000
REMARK  Name = 
REMARK  4 active torsions:
REMARK  status: ('A' for Active; 'I' for Inactive)
REMARK    1  A    between atoms: C_1  and  C_2
REMARK    2  A    between atoms: C_4  and  C_5
REMARK    3  A    between atoms: C_12  and  C_13
REMARK    4  A    between atoms: C_13  and  C_14
REMARK                            x       y       z     vdW  Elec       q    Type
REMARK                         _______ _______ _______ _____ _____    ______ ____
ROOT
ATOM      1  C   UNL     1       3.901   6.368  17.975  0.00  0.00    +0.000 C 
ATOM      2  O   UNL     1       5.119   6.562  18.011  0.00  0.00    +0.000 OA
ATOM      3  N   UNL     1       3.364   5.066  17.832  0.00  0.00    +0.000 N 
ATOM      4  C   UNL     1       1.920   4.840  18.022  0.00  0.00    +0.000 C 
ATOM      5  C   UNL     1       1.551   3.442  18.492  0.00  0.00    +0.000 C 
ATOM      6  C   UNL     1       2.223   2.380  17.648  0.00  0.00    +0.000 C 
ATOM      7  C   UNL     1       3.727   2.615  17.639  0.00  0.00    +0.000 C 
ATOM      8  C   UNL     1       4.074   4.005  17.055  0.00  0.00    +0.000 C 
ENDROOT
BRANCH   1  12
ATOM      9  C   UNL     1       0.441   9.831  19.332  0.00  0.00    +0.000 C 
ATOM     10  C   UNL     1       1.490   9.016  18.682  0.00  0.00    +0.000 A 
ATOM     11  C   UNL     1       2.223   7.920  19.195  0.00  0.00    +0.000 A 
ATOM     12  C   UNL     1       2.983   7.483  18.132  0.00  0.00    +0.000 A 
ATOM     13  O   UNL     1       2.815   8.362  17.103  0.00  0.00    +0.000 OA
ATOM     14  N   UNL     1       1.843   9.285  17.421  0.00  0.00    +0.000 NA
ENDBRANCH   1  12
BRANCH   8  15
ATOM     15  C   UNL     1       5.614   4.133  16.870  0.00  0.00    +0.000 C 
BRANCH  15  16
ATOM     16  C   UNL     1       6.037   4.271  15.415  0.00  0.00    +0.000 A 
ATOM     17  C   UNL     1       5.340   3.592  14.402  0.00  0.00    +0.000 A 
ATOM     18  C   UNL     1       5.780   3.647  13.078  0.00  0.00    +0.000 A 
ATOM     19  C   UNL     1       6.905   4.398  12.763  0.00  0.00    +0.000 A 
ATOM     20  F   UNL     1       7.339   4.434  11.496  0.00  0.00    +0.000 F 
ATOM     21  C   UNL     1       7.586   5.109  13.742  0.00  0.00    +0.000 A 
ATOM     22  C   UNL     1       7.153   5.050  15.069  0.00  0.00    +0.000 A 
ENDBRANCH  15  16
ENDBRANCH   8  15
TORSDOF 3
ENDMDL
MODEL 2
REMARK VINA RESULT:      -7.6      0.091      1.035
REMARK  Name = 
REMARK  4 active torsions:
REMARK  status: ('A' for Active; 'I' for Inactive)
REMARK    1  A    between atoms: C_1  and  C_2
REMARK    2  A    between atoms: C_4  and  C_5
REMARK    3  A    between atoms: C_12  and  C_13
REMARK    4  A    between atoms: C_13  and  C_14
REMARK                            x       y       z     vdW  Elec       q    Type
REMARK                         _______ _______ _______ _____ _____    ______ ____
ROOT
ATOM      1  C   UNL     1       3.871   6.401  18.040  0.00  0.00    +0.000 C 
ATOM      2  O   UNL     1       5.086   6.603  18.118  0.00  0.00    +0.000 OA
ATOM      3  N   UNL     1       3.349   5.097  17.861  0.00  0.00    +0.000 N 
ATOM      4  C   UNL     1       1.901   4.859  18.001  0.00  0.00    +0.000 C 
ATOM      5  C   UNL     1       1.527   3.452  18.439  0.00  0.00    +0.000 C 
ATOM      6  C   UNL     1       2.234   2.407  17.602  0.00  0.00    +0.000 C 
ATOM      7  C   UNL     1       3.736   2.652  17.644  0.00  0.00    +0.000 C 
ATOM      8  C   UNL     1       4.091   4.053  17.092  0.00  0.00    +0.000 C 
ENDROOT
BRANCH   1  12
ATOM      9  C   UNL     1       0.382   9.848  19.363  0.00  0.00    +0.000 C 
ATOM     10  C   UNL     1       1.434   9.032  18.718  0.00  0.00    +0.000 A 
ATOM     11  C   UNL     1       2.187   7.956  19.246  0.00  0.00    +0.000 A 
ATOM     12  C   UNL     1       2.941   7.508  18.184  0.00  0.00    +0.000 A 
ATOM     13  O   UNL     1       2.750   8.362  17.139  0.00  0.00    +0.000 OA
ATOM     14  N   UNL     1       1.769   9.279  17.448  0.00  0.00    +0.000 NA
ENDBRANCH   1  12
BRANCH   8  15
ATOM     15  C   UNL     1       5.635   4.195  16.957  0.00  0.00    +0.000 C 
BRANCH  15  16
ATOM     16  C   UNL     1       6.114   4.234  15.514  0.00  0.00    +0.000 A 
ATOM     17  C   UNL     1       7.234   5.003  15.155  0.00  0.00    +0.000 A 
ATOM     18  C   UNL     1       7.621   5.110  13.818  0.00  0.00    +0.000 A 
ATOM     19  C   UNL     1       6.903   4.431  12.842  0.00  0.00    +0.000 A 
ATOM     20  F   UNL     1       7.264   4.549  11.557  0.00  0.00    +0.000 F 
ATOM     21  C   UNL     1       5.818   3.634  13.179  0.00  0.00    +0.000 A 
ATOM     22  C   UNL     1       5.422   3.531  14.515  0.00  0.00    +0.000 A 
ENDBRANCH  15  16
ENDBRANCH   8  15
TORSDOF 3
ENDMDL
MODEL 3
REMARK VINA RESULT:      -7.6      1.584      1.792
REMARK  Name = 
REMARK  4 active torsions:
REMARK  status: ('A' for Active; 'I' for Inactive)
REMARK    1  A    between atoms: C_1  and  C_2
REMARK    2  A    between atoms: C_4  and  C_5
REMARK    3  A    between atoms: C_12  and  C_13
REMARK    4  A    between atoms: C_13  and  C_14
REMARK                            x       y       z     vdW  Elec       q    Type
REMARK                         _______ _______ _______ _____ _____    ______ ____
ROOT
ATOM      1  C   UNL     1       3.440   5.930  19.275  0.00  0.00    +0.000 C 
ATOM      2  O   UNL     1       4.657   6.053  19.433  0.00  0.00    +0.000 OA
ATOM      3  N   UNL     1       2.841   4.658  19.107  0.00  0.00    +0.000 N 
ATOM      4  C   UNL     1       1.373   4.524  19.153  0.00  0.00    +0.000 C 
ATOM      5  C   UNL     1       0.872   3.166  19.614  0.00  0.00    +0.000 C 
ATOM      6  C   UNL     1       1.560   2.041  18.869  0.00  0.00    +0.000 C 
ATOM      7  C   UNL     1       3.068   2.186  19.010  0.00  0.00    +0.000 C 
ATOM      8  C   UNL     1       3.558   3.535  18.433  0.00  0.00    +0.000 C 
ENDROOT
BRANCH   1  12
ATOM      9  C   UNL     1       0.795  10.204  18.534  0.00  0.00    +0.000 C 
ATOM     10  C   UNL     1       1.411   8.954  19.033  0.00  0.00    +0.000 A 
ATOM     11  C   UNL     1       2.192   7.999  18.340  0.00  0.00    +0.000 A 
ATOM     12  C   UNL     1       2.582   7.102  19.311  0.00  0.00    +0.000 A 
ATOM     13  O   UNL     1       1.946   7.431  20.471  0.00  0.00    +0.000 OA
ATOM     14  N   UNL     1       1.260   8.616  20.318  0.00  0.00    +0.000 NA
ENDBRANCH   1  12
BRANCH   8  15
ATOM     15  C   UNL     1       5.114   3.566  18.404  0.00  0.00    +0.000 C 
BRANCH  15  16
ATOM     16  C   UNL     1       5.684   4.062  17.084  0.00  0.00    +0.000 A 
ATOM     17  C   UNL     1       4.917   4.000  15.908  0.00  0.00    +0.000 A 
ATOM     18  C   UNL     1       5.470   4.372  14.681  0.00  0.00    +0.000 A 
ATOM     19  C   UNL     1       6.780   4.828  14.631  0.00  0.00    +0.000 A 
ATOM     20  F   UNL     1       7.316   5.167  13.451  0.00  0.00    +0.000 F 
ATOM     21  C   UNL     1       7.543   4.936  15.787  0.00  0.00    +0.000 A 
ATOM     22  C   UNL     1       6.996   4.556  17.016  0.00  0.00    +0.000 A 
ENDBRANCH  15  16
ENDBRANCH   8  15
TORSDOF 3
ENDMDL
MODEL 4
REMARK VINA RESULT:      -7.5      1.530      1.976
REMARK  Name = 
REMARK  4 active torsions:
REMARK  status: ('A' for Active; 'I' for Inactive)
REMARK    1  A    between atoms: C_1  and  C_2
REMARK    2  A    between atoms: C_4  and  C_5
REMARK    3  A    between atoms: C_12  and  C_13
REMARK    4  A    between atoms: C_13  and  C_14
REMARK                            x       y       z     vdW  Elec       q    Type
REMARK                         _______ _______ _______ _____ _____    ______ ____
ROOT
ATOM      1  C   UNL     1       3.461   5.948  19.205  0.00  0.00    +0.000 C 
ATOM      2  O   UNL     1       4.674   6.075  19.390  0.00  0.00    +0.000 OA
ATOM      3  N   UNL     1       2.873   4.676  19.004  0.00  0.00    +0.000 N 
ATOM      4  C   UNL     1       1.406   4.533  19.017  0.00  0.00    +0.000 C 
ATOM      5  C   UNL     1       0.904   3.164  19.446  0.00  0.00    +0.000 C 
ATOM      6  C   UNL     1       1.613   2.056  18.697  0.00  0.00    +0.000 C 
ATOM      7  C   UNL     1       3.117   2.206  18.871  0.00  0.00    +0.000 C 
ATOM      8  C   UNL     1       3.611   3.568  18.326  0.00  0.00    +0.000 C 
ENDROOT
BRANCH   1  12
ATOM      9  C   UNL     1       0.778  10.198  18.465  0.00  0.00    +0.000 C 
ATOM     10  C   UNL     1       1.408   8.956  18.966  0.00  0.00    +0.000 A 
ATOM     11  C   UNL     1       2.187   8.001  18.270  0.00  0.00    +0.000 A 
ATOM     12  C   UNL     1       2.595   7.114  19.243  0.00  0.00    +0.000 A 
ATOM     13  O   UNL     1       1.971   7.448  20.408  0.00  0.00    +0.000 OA
ATOM     14  N   UNL     1       1.275   8.627  20.254  0.00  0.00    +0.000 NA
ENDBRANCH   1  12
BRANCH   8  15
ATOM     15  C   UNL     1       5.167   3.609  18.330  0.00  0.00    +0.000 C 
BRANCH  15  16
ATOM     16  C   UNL     1       5.764   3.995  16.985  0.00  0.00    +0.000 A 
ATOM     17  C   UNL     1       7.069   4.508  16.905  0.00  0.00    +0.000 A 
ATOM     18  C   UNL     1       7.586   4.945  15.684  0.00  0.00    +0.000 A 
ATOM     19  C   UNL     1       6.807   4.848  14.538  0.00  0.00    +0.000 A 
ATOM     20  F   UNL     1       7.295   5.285  13.369  0.00  0.00    +0.000 F 
ATOM     21  C   UNL     1       5.529   4.307  14.587  0.00  0.00    +0.000 A 
ATOM     22  C   UNL     1       5.005   3.876  15.809  0.00  0.00    +0.000 A 
ENDBRANCH  15  16
ENDBRANCH   8  15
TORSDOF 3
ENDMDL
MODEL 5
REMARK VINA RESULT:      -7.4      4.461      6.663
REMARK  Name = 
REMARK  4 active torsions:
REMARK  status: ('A' for Active; 'I' for Inactive)
REMARK    1  A    between atoms: C_1  and  C_2
REMARK    2  A    between atoms: C_4  and  C_5
REMARK    3  A    between atoms: C_12  and  C_13
REMARK    4  A    between atoms: C_13  and  C_14
REMARK                            x       y       z     vdW  Elec       q    Type
REMARK                         _______ _______ _______ _____ _____    ______ ____
ROOT
ATOM      1  C   UNL     1       0.421   9.638  18.628  0.00  0.00    +0.000 C 
ATOM      2  O   UNL     1       1.386   9.264  17.957  0.00  0.00    +0.000 OA
ATOM      3  N   UNL     1       0.404   9.504  20.037  0.00  0.00    +0.000 N 
ATOM      4  C   UNL     1      -0.653  10.163  20.826  0.00  0.00    +0.000 C 
ATOM      5  C   UNL     1      -0.255  10.520  22.249  0.00  0.00    +0.000 C 
ATOM      6  C   UNL     1       0.383   9.343  22.956  0.00  0.00    +0.000 C 
ATOM      7  C   UNL     1       1.556   8.831  22.133  0.00  0.00    +0.000 C 
ATOM      8  C   UNL     1       1.098   8.376  20.727  0.00  0.00    +0.000 C 
ENDROOT
BRANCH   1  12
ATOM      9  C   UNL     1      -3.633  11.042  15.907  0.00  0.00    +0.000 C 
ATOM     10  C   UNL     1      -2.471  10.933  16.817  0.00  0.00    +0.000 A 
ATOM     11  C   UNL     1      -1.740   9.785  17.207  0.00  0.00    +0.000 A 
ATOM     12  C   UNL     1      -0.710  10.278  17.978  0.00  0.00    +0.000 A 
ATOM     13  O   UNL     1      -0.912  11.615  18.150  0.00  0.00    +0.000 OA
ATOM     14  N   UNL     1      -1.975  12.038  17.382  0.00  0.00    +0.000 NA
ENDBRANCH   1  12
BRANCH   8  15
ATOM     15  C   UNL     1       2.274   7.672  19.988  0.00  0.00    +0.000 C 
BRANCH  15  16
ATOM     16  C   UNL     1       1.993   6.213  19.659  0.00  0.00    +0.000 A 
ATOM     17  C   UNL     1       2.193   5.724  18.357  0.00  0.00    +0.000 A 
ATOM     18  C   UNL     1       1.852   4.410  18.033  0.00  0.00    +0.000 A 
ATOM     19  C   UNL     1       1.332   3.577  19.015  0.00  0.00    +0.000 A 
ATOM     20  F   UNL     1       0.987   2.321  18.699  0.00  0.00    +0.000 F 
ATOM     21  C   UNL     1       1.163   4.027  20.317  0.00  0.00    +0.000 A 
ATOM     22  C   UNL     1       1.495   5.344  20.644  0.00  0.00    +0.000 A 
ENDBRANCH  15  16
ENDBRANCH   8  15
TORSDOF 3
ENDMDL
MODEL 6
REMARK VINA RESULT:      -7.2      4.404      6.641
REMARK  Name = 
REMARK  4 active torsions:
REMARK  status: ('A' for Active; 'I' for Inactive)
REMARK    1  A    between atoms: C_1  and  C_2
REMARK    2  A    between atoms: C_4  and  C_5
REMARK    3  A    between atoms: C_12  and  C_13
REMARK    4  A    between atoms: C_13  and  C_14
REMARK                            x       y       z     vdW  Elec       q    Type
REMARK                         _______ _______ _______ _____ _____    ______ ____
ROOT
ATOM      1  C   UNL     1       0.405   9.652  18.657  0.00  0.00    +0.000 C 
ATOM      2  O   UNL     1       1.370   9.275  17.987  0.00  0.00    +0.000 OA
ATOM      3  N   UNL     1       0.388   9.521  20.067  0.00  0.00    +0.000 N 
ATOM      4  C   UNL     1      -0.668  10.184  20.854  0.00  0.00    +0.000 C 
ATOM      5  C   UNL     1      -0.270  10.544  22.276  0.00  0.00    +0.000 C 
ATOM      6  C   UNL     1       0.367   9.368  22.986  0.00  0.00    +0.000 C 
ATOM      7  C   UNL     1       1.539   8.853  22.165  0.00  0.00    +0.000 C 
ATOM      8  C   UNL     1       1.081   8.394  20.760  0.00  0.00    +0.000 C 
ENDROOT
BRANCH   1  12
ATOM      9  C   UNL     1      -3.655  11.048  15.943  0.00  0.00    +0.000 C 
ATOM     10  C   UNL     1      -2.489  10.943  16.846  0.00  0.00    +0.000 A 
ATOM     11  C   UNL     1      -1.763   9.796  17.247  0.00  0.00    +0.000 A 
ATOM     12  C   UNL     1      -0.725  10.291  18.005  0.00  0.00    +0.000 A 
ATOM     13  O   UNL     1      -0.916  11.632  18.160  0.00  0.00    +0.000 OA
ATOM     14  N   UNL     1      -1.981  12.052  17.394  0.00  0.00    +0.000 NA
ENDBRANCH   1  12
BRANCH   8  15
ATOM     15  C   UNL     1       2.256   7.687  20.023  0.00  0.00    +0.000 C 
BRANCH  15  16
ATOM     16  C   UNL     1       1.950   6.245  19.645  0.00  0.00    +0.000 A 
ATOM     17  C   UNL     1       1.471   5.341  20.608  0.00  0.00    +0.000 A 
ATOM     18  C   UNL     1       1.274   3.998  20.283  0.00  0.00    +0.000 A 
ATOM     19  C   UNL     1       1.536   3.561  18.991  0.00  0.00    +0.000 A 
ATOM     20  F   UNL     1       1.366   2.268  18.685  0.00  0.00    +0.000 F 
ATOM     21  C   UNL     1       1.972   4.445  18.013  0.00  0.00    +0.000 A 
ATOM     22  C   UNL     1       2.178   5.789  18.336  0.00  0.00    +0.000 A 
ENDBRANCH  15  16
ENDBRANCH   8  15
TORSDOF 3
ENDMDL
MODEL 7
REMARK VINA RESULT:      -7.2      3.679      7.114
REMARK  Name = 
REMARK  4 active torsions:
REMARK  status: ('A' for Active; 'I' for Inactive)
REMARK    1  A    between atoms: C_1  and  C_2
REMARK    2  A    between atoms: C_4  and  C_5
REMARK    3  A    between atoms: C_12  and  C_13
REMARK    4  A    between atoms: C_13  and  C_14
REMARK                            x       y       z     vdW  Elec       q    Type
REMARK                         _______ _______ _______ _____ _____    ______ ____
ROOT
ATOM      1  C   UNL     1       5.680   4.149  15.903  0.00  0.00    +0.000 C 
ATOM      2  O   UNL     1       5.790   2.990  16.312  0.00  0.00    +0.000 OA
ATOM      3  N   UNL     1       4.855   5.092  16.563  0.00  0.00    +0.000 N 
ATOM      4  C   UNL     1       4.923   6.517  16.192  0.00  0.00    +0.000 C 
ATOM      5  C   UNL     1       4.553   7.483  17.306  0.00  0.00    +0.000 C 
ATOM      6  C   UNL     1       3.249   7.091  17.967  0.00  0.00    +0.000 C 
ATOM      7  C   UNL     1       3.336   5.650  18.449  0.00  0.00    +0.000 C 
ATOM      8  C   UNL     1       3.607   4.681  17.273  0.00  0.00    +0.000 C 
ENDROOT
BRANCH   1  12
ATOM      9  C   UNL     1       7.812   5.069  11.385  0.00  0.00    +0.000 C 
ATOM     10  C   UNL     1       7.404   5.020  12.806  0.00  0.00    +0.000 A 
ATOM     11  C   UNL     1       6.270   4.411  13.394  0.00  0.00    +0.000 A 
ATOM     12  C   UNL     1       6.447   4.586  14.749  0.00  0.00    +0.000 A 
ATOM     13  O   UNL     1       7.542   5.378  14.933  0.00  0.00    +0.000 OA
ATOM     14  N   UNL     1       8.174   5.603  13.730  0.00  0.00    +0.000 NA
ENDBRANCH   1  12
BRANCH   8  15
ATOM     15  C   UNL     1       3.487   3.208  17.762  0.00  0.00    +0.000 C 
BRANCH  15  16
ATOM     16  C   UNL     1       2.749   3.069  19.085  0.00  0.00    +0.000 A 
ATOM     17  C   UNL     1       3.452   2.780  20.267  0.00  0.00    +0.000 A 
ATOM     18  C   UNL     1       2.767   2.565  21.464  0.00  0.00    +0.000 A 
ATOM     19  C   UNL     1       1.381   2.661  21.486  0.00  0.00    +0.000 A 
ATOM     20  F   UNL     1       0.723   2.435  22.631  0.00  0.00    +0.000 F 
ATOM     21  C   UNL     1       0.670   2.984  20.338  0.00  0.00    +0.000 A 
ATOM     22  C   UNL     1       1.351   3.192  19.136  0.00  0.00    +0.000 A 
ENDBRANCH  15  16
ENDBRANCH   8  15
TORSDOF 3
ENDMDL
MODEL 8
REMARK VINA RESULT:      -7.1      3.680      7.033
REMARK  Name = 
REMARK  4 active torsions:
REMARK  status: ('A' for Active; 'I' for Inactive)
REMARK    1  A    between atoms: C_1  and  C_2
REMARK    2  A    between atoms: C_4  and  C_5
REMARK    3  A    between atoms: C_12  and  C_13
REMARK    4  A    between atoms: C_13  and  C_14
REMARK                            x       y       z     vdW  Elec       q    Type
REMARK                         _______ _______ _______ _____ _____    ______ ____
ROOT
ATOM      1  C   UNL     1       5.672   4.077  15.910  0.00  0.00    +0.000 C 
ATOM      2  O   UNL     1       5.788   2.907  16.283  0.00  0.00    +0.000 OA
ATOM      3  N   UNL     1       4.825   4.988  16.586  0.00  0.00    +0.000 N 
ATOM      4  C   UNL     1       4.881   6.425  16.261  0.00  0.00    +0.000 C 
ATOM      5  C   UNL     1       4.482   7.351  17.398  0.00  0.00    +0.000 C 
ATOM      6  C   UNL     1       3.171   6.923  18.024  0.00  0.00    +0.000 C 
ATOM      7  C   UNL     1       3.268   5.469  18.461  0.00  0.00    +0.000 C 
ATOM      8  C   UNL     1       3.570   4.541  17.260  0.00  0.00    +0.000 C 
ENDROOT
BRANCH   1  12
ATOM      9  C   UNL     1       7.842   5.194  11.454  0.00  0.00    +0.000 C 
ATOM     10  C   UNL     1       7.427   5.077  12.869  0.00  0.00    +0.000 A 
ATOM     11  C   UNL     1       6.277   4.461  13.420  0.00  0.00    +0.000 A 
ATOM     12  C   UNL     1       6.453   4.560  14.783  0.00  0.00    +0.000 A 
ATOM     13  O   UNL     1       7.563   5.317  15.014  0.00  0.00    +0.000 OA
ATOM     14  N   UNL     1       8.204   5.593  13.826  0.00  0.00    +0.000 NA
ENDBRANCH   1  12
BRANCH   8  15
ATOM     15  C   UNL     1       3.460   3.052  17.699  0.00  0.00    +0.000 C 
BRANCH  15  16
ATOM     16  C   UNL     1       2.725   2.864  19.019  0.00  0.00    +0.000 A 
ATOM     17  C   UNL     1       1.325   2.966  19.076  0.00  0.00    +0.000 A 
ATOM     18  C   UNL     1       0.657   2.882  20.299  0.00  0.00    +0.000 A 
ATOM     19  C   UNL     1       1.386   2.673  21.463  0.00  0.00    +0.000 A 
ATOM     20  F   UNL     1       0.747   2.612  22.639  0.00  0.00    +0.000 F 
ATOM     21  C   UNL     1       2.767   2.530  21.424  0.00  0.00    +0.000 A 
ATOM     22  C   UNL     1       3.439   2.622  20.203  0.00  0.00    +0.000 A 
ENDBRANCH  15  16
ENDBRANCH   8  15
TORSDOF 3
ENDMDL
MODEL 9
REMARK VINA RESULT:      -7.1      2.686      4.152
REMARK  Name = 
REMARK  4 active torsions:
REMARK  status: ('A' for Active; 'I' for Inactive)
REMARK    1  A    between atoms: C_1  and  C_2
REMARK    2  A    between atoms: C_4  and  C_5
REMARK    3  A    between atoms: C_12  and  C_13
REMARK    4  A    between atoms: C_13  and  C_14
REMARK                            x       y       z     vdW  Elec       q    Type
REMARK                         _______ _______ _______ _____ _____    ______ ____
ROOT
ATOM      1  C   UNL     1       3.819   4.792  17.878  0.00  0.00    +0.000 C 
ATOM      2  O   UNL     1       3.171   5.263  16.940  0.00  0.00    +0.000 OA
ATOM      3  N   UNL     1       5.192   5.090  18.053  0.00  0.00    +0.000 N 
ATOM      4  C   UNL     1       5.877   4.703  19.300  0.00  0.00    +0.000 C 
ATOM      5  C   UNL     1       7.059   5.582  19.676  0.00  0.00    +0.000 C 
ATOM      6  C   UNL     1       7.998   5.774  18.504  0.00  0.00    +0.000 C 
ATOM      7  C   UNL     1       7.222   6.318  17.314  0.00  0.00    +0.000 C 
ATOM      8  C   UNL     1       6.093   5.348  16.890  0.00  0.00    +0.000 C 
ENDROOT
BRANCH   1  12
ATOM      9  C   UNL     1       1.462   2.652  21.837  0.00  0.00    +0.000 C 
ATOM     10  C   UNL     1       2.135   2.978  20.561  0.00  0.00    +0.000 A 
ATOM     11  C   UNL     1       2.450   4.242  20.008  0.00  0.00    +0.000 A 
ATOM     12  C   UNL     1       3.160   3.951  18.864  0.00  0.00    +0.000 A 
ATOM     13  O   UNL     1       3.135   2.601  18.682  0.00  0.00    +0.000 OA
ATOM     14  N   UNL     1       2.547   1.986  19.765  0.00  0.00    +0.000 NA
ENDBRANCH   1  12
BRANCH   8  15
ATOM     15  C   UNL     1       5.454   5.829  15.555  0.00  0.00    +0.000 C 
BRANCH  15  16
ATOM     16  C   UNL     1       5.965   5.076  14.335  0.00  0.00    +0.000 A 
ATOM     17  C   UNL     1       5.176   4.087  13.726  0.00  0.00    +0.000 A 
ATOM     18  C   UNL     1       5.678   3.335  12.662  0.00  0.00    +0.000 A 
ATOM     19  C   UNL     1       6.961   3.587  12.193  0.00  0.00    +0.000 A 
ATOM     20  F   UNL     1       7.450   2.852  11.185  0.00  0.00    +0.000 F 
ATOM     21  C   UNL     1       7.743   4.587  12.754  0.00  0.00    +0.000 A 
ATOM     22  C   UNL     1       7.247   5.336  13.824  0.00  0.00    +0.000 A 
ENDBRANCH  15  16
ENDBRANCH   8  15
TORSDOF 3
ENDMDL
