MODEL 1
REMARK VINA RESULT:      -6.2      0.000      0.000
REMARK  Name = 
REMARK  5 active torsions:
REMARK  status: ('A' for Active; 'I' for Inactive)
REMARK    1  A    between atoms: C_1  and  C_2
REMARK    2  A    between atoms: C_2  and  O_3
REMARK    3  A    between atoms: O_3  and  C_4
REMARK    4  A    between atoms: C_7  and  C_8
REMARK    5  A    between atoms: C_11  and  C_12
REMARK                            x       y       z     vdW  Elec       q    Type
REMARK                         _______ _______ _______ _____ _____    ______ ____
ROOT
ATOM      1  C   UNL     1       6.903   6.639  17.370  0.00  0.00    +0.000 A 
ATOM      2  C   UNL     1       5.685   6.846  16.724  0.00  0.00    +0.000 A 
ATOM      3  C   UNL     1       4.630   5.948  16.904  0.00  0.00    +0.000 A 
ATOM      4  C   UNL     1       4.783   4.820  17.721  0.00  0.00    +0.000 A 
ATOM      5  C   UNL     1       6.018   4.602  18.344  0.00  0.00    +0.000 A 
ATOM      6  C   UNL     1       7.075   5.505  18.164  0.00  0.00    +0.000 A 
ENDROOT
BRANCH   4   7
ATOM      7  C   UNL     1       3.622   3.905  17.872  0.00  0.00    +0.000 C 
ATOM      8  N   UNL     1       3.759   2.626  18.010  0.00  0.00    +0.000 NA
ATOM      9  C   UNL     1       2.439   1.968  18.063  0.00  0.00    +0.000 C 
ATOM     10  C   UNL     1       1.379   2.942  18.574  0.00  0.00    +0.000 C 
ATOM     11  S   UNL     1       1.981   4.517  17.896  0.00  0.00    +0.000 S 
BRANCH  10  12
ATOM     12  C   UNL     1       1.297   3.042  20.091  0.00  0.00    +0.000 C 
ATOM     13 BR   UNL     1       1.709   4.857  20.692  0.00  0.00    +0.000 Br
ENDBRANCH  10  12
ENDBRANCH   4   7
BRANCH   1  14
ATOM     14  O   UNL     1       7.849   7.596  17.139  0.00  0.00    +0.000 OA
BRANCH  14  16
ATOM     15  C   UNL     1       8.733   9.273  18.572  0.00  0.00    +0.000 C 
ATOM     16  C   UNL     1       7.577   8.896  17.665  0.00  0.00    +0.000 C 
ENDBRANCH  14  16
ENDBRANCH   1  14
TORSDOF 4
ENDMDL
MODEL 2
REMARK VINA RESULT:      -6.1      2.799      3.829
REMARK  Name = 
REMARK  5 active torsions:
REMARK  status: ('A' for Active; 'I' for Inactive)
REMARK    1  A    between atoms: C_1  and  C_2
REMARK    2  A    between atoms: C_2  and  O_3
REMARK    3  A    between atoms: O_3  and  C_4
REMARK    4  A    between atoms: C_7  and  C_8
REMARK    5  A    between atoms: C_11  and  C_12
REMARK                            x       y       z     vdW  Elec       q    Type
REMARK                         _______ _______ _______ _____ _____    ______ ____
ROOT
ATOM      1  C   UNL     1       5.610   5.362  15.362  0.00  0.00    +0.000 A 
ATOM      2  C   UNL     1       5.301   4.144  15.963  0.00  0.00    +0.000 A 
ATOM      3  C   UNL     1       4.543   4.108  17.135  0.00  0.00    +0.000 A 
ATOM      4  C   UNL     1       4.094   5.294  17.734  0.00  0.00    +0.000 A 
ATOM      5  C   UNL     1       4.433   6.516  17.140  0.00  0.00    +0.000 A 
ATOM      6  C   UNL     1       5.192   6.550  15.963  0.00  0.00    +0.000 A 
ENDROOT
BRANCH   4   7
ATOM      7  C   UNL     1       3.290   5.187  18.979  0.00  0.00    +0.000 C 
ATOM      8  N   UNL     1       2.481   6.119  19.365  0.00  0.00    +0.000 NA
ATOM      9  C   UNL     1       1.878   5.773  20.666  0.00  0.00    +0.000 C 
ATOM     10  C   UNL     1       1.854   4.258  20.856  0.00  0.00    +0.000 C 
ATOM     11  S   UNL     1       3.376   3.763  19.995  0.00  0.00    +0.000 S 
BRANCH  10  12
ATOM     12  C   UNL     1       0.661   3.564  20.213  0.00  0.00    +0.000 C 
ATOM     13 BR   UNL     1       1.248   2.298  18.843  0.00  0.00    +0.000 Br
ENDBRANCH  10  12
ENDBRANCH   4   7
BRANCH   1  14
ATOM     14  O   UNL     1       6.334   5.270  14.208  0.00  0.00    +0.000 OA
BRANCH  14  16
ATOM     15  C   UNL     1       5.908   3.642  12.530  0.00  0.00    +0.000 C 
ATOM     16  C   UNL     1       6.694   3.952  13.790  0.00  0.00    +0.000 C 
ENDBRANCH  14  16
ENDBRANCH   1  14
TORSDOF 4
ENDMDL
MODEL 3
REMARK VINA RESULT:      -6.1      0.364      1.205
REMARK  Name = 
REMARK  5 active torsions:
REMARK  status: ('A' for Active; 'I' for Inactive)
REMARK    1  A    between atoms: C_1  and  C_2
REMARK    2  A    between atoms: C_2  and  O_3
REMARK    3  A    between atoms: O_3  and  C_4
REMARK    4  A    between atoms: C_7  and  C_8
REMARK    5  A    between atoms: C_11  and  C_12
REMARK                            x       y       z     vdW  Elec       q    Type
REMARK                         _______ _______ _______ _____ _____    ______ ____
ROOT
ATOM      1  C   UNL     1       6.734   6.661  17.282  0.00  0.00    +0.000 A 
ATOM      2  C   UNL     1       6.727   5.891  18.443  0.00  0.00    +0.000 A 
ATOM      3  C   UNL     1       5.715   4.955  18.662  0.00  0.00    +0.000 A 
ATOM      4  C   UNL     1       4.683   4.785  17.729  0.00  0.00    +0.000 A 
ATOM      5  C   UNL     1       4.680   5.583  16.577  0.00  0.00    +0.000 A 
ATOM      6  C   UNL     1       5.697   6.520  16.358  0.00  0.00    +0.000 A 
ENDROOT
BRANCH   4   7
ATOM      7  C   UNL     1       3.637   3.771  18.020  0.00  0.00    +0.000 C 
ATOM      8  N   UNL     1       3.923   2.559  18.371  0.00  0.00    +0.000 NA
ATOM      9  C   UNL     1       2.692   1.761  18.522  0.00  0.00    +0.000 C 
ATOM     10  C   UNL     1       1.508   2.666  18.854  0.00  0.00    +0.000 C 
ATOM     11  S   UNL     1       1.934   4.171  17.928  0.00  0.00    +0.000 S 
BRANCH  10  12
ATOM     12  C   UNL     1       1.370   3.004  20.332  0.00  0.00    +0.000 C 
ATOM     13 BR   UNL     1       1.569   4.927  20.629  0.00  0.00    +0.000 Br
ENDBRANCH  10  12
ENDBRANCH   4   7
BRANCH   1  14
ATOM     14  O   UNL     1       7.787   7.524  17.166  0.00  0.00    +0.000 OA
BRANCH  14  16
ATOM     15  C   UNL     1       8.717   9.245  18.515  0.00  0.00    +0.000 C 
ATOM     16  C   UNL     1       7.560   8.862  17.611  0.00  0.00    +0.000 C 
ENDBRANCH  14  16
ENDBRANCH   1  14
TORSDOF 4
ENDMDL
MODEL 4
REMARK VINA RESULT:      -5.9      4.538      5.336
REMARK  Name = 
REMARK  5 active torsions:
REMARK  status: ('A' for Active; 'I' for Inactive)
REMARK    1  A    between atoms: C_1  and  C_2
REMARK    2  A    between atoms: C_2  and  O_3
REMARK    3  A    between atoms: O_3  and  C_4
REMARK    4  A    between atoms: C_7  and  C_8
REMARK    5  A    between atoms: C_11  and  C_12
REMARK                            x       y       z     vdW  Elec       q    Type
REMARK                         _______ _______ _______ _____ _____    ______ ____
ROOT
ATOM      1  C   UNL     1       1.191   9.492  19.084  0.00  0.00    +0.000 A 
ATOM      2  C   UNL     1       1.832   9.031  17.936  0.00  0.00    +0.000 A 
ATOM      3  C   UNL     1       2.474   7.790  17.937  0.00  0.00    +0.000 A 
ATOM      4  C   UNL     1       2.497   6.997  19.093  0.00  0.00    +0.000 A 
ATOM      5  C   UNL     1       1.876   7.480  20.252  0.00  0.00    +0.000 A 
ATOM      6  C   UNL     1       1.231   8.724  20.249  0.00  0.00    +0.000 A 
ENDROOT
BRANCH   4   7
ATOM      7  C   UNL     1       3.195   5.687  19.028  0.00  0.00    +0.000 C 
ATOM      8  N   UNL     1       4.420   5.533  19.410  0.00  0.00    +0.000 NA
ATOM      9  C   UNL     1       4.869   4.150  19.162  0.00  0.00    +0.000 C 
ATOM     10  C   UNL     1       3.676   3.197  19.153  0.00  0.00    +0.000 C 
ATOM     11  S   UNL     1       2.378   4.252  18.444  0.00  0.00    +0.000 S 
BRANCH  10  12
ATOM     12  C   UNL     1       3.242   2.720  20.532  0.00  0.00    +0.000 C 
ATOM     13 BR   UNL     1       1.334   3.042  20.813  0.00  0.00    +0.000 Br
ENDBRANCH  10  12
ENDBRANCH   4   7
BRANCH   1  14
ATOM     14  O   UNL     1       0.578  10.705  18.956  0.00  0.00    +0.000 OA
BRANCH  14  16
ATOM     15  C   UNL     1      -1.622  10.299  18.153  0.00  0.00    +0.000 C 
ATOM     16  C   UNL     1      -0.797  10.763  19.339  0.00  0.00    +0.000 C 
ENDBRANCH  14  16
ENDBRANCH   1  14
TORSDOF 4
ENDMDL
MODEL 5
REMARK VINA RESULT:      -5.9      1.016      1.033
REMARK  Name = 
REMARK  5 active torsions:
REMARK  status: ('A' for Active; 'I' for Inactive)
REMARK    1  A    between atoms: C_1  and  C_2
REMARK    2  A    between atoms: C_2  and  O_3
REMARK    3  A    between atoms: O_3  and  C_4
REMARK    4  A    between atoms: C_7  and  C_8
REMARK    5  A    between atoms: C_11  and  C_12
REMARK                            x       y       z     vdW  Elec       q    Type
REMARK                         _______ _______ _______ _____ _____    ______ ____
ROOT
ATOM      1  C   UNL     1       6.451   6.748  17.121  0.00  0.00    +0.000 A 
ATOM      2  C   UNL     1       5.269   7.104  17.768  0.00  0.00    +0.000 A 
ATOM      3  C   UNL     1       4.303   6.136  18.055  0.00  0.00    +0.000 A 
ATOM      4  C   UNL     1       4.499   4.798  17.685  0.00  0.00    +0.000 A 
ATOM      5  C   UNL     1       5.676   4.453  17.009  0.00  0.00    +0.000 A 
ATOM      6  C   UNL     1       6.644   5.425  16.724  0.00  0.00    +0.000 A 
ENDROOT
BRANCH   4   7
ATOM      7  C   UNL     1       3.434   3.818  18.020  0.00  0.00    +0.000 C 
ATOM      8  N   UNL     1       3.673   2.732  18.681  0.00  0.00    +0.000 NA
ATOM      9  C   UNL     1       2.447   1.921  18.801  0.00  0.00    +0.000 C 
ATOM     10  C   UNL     1       1.209   2.810  18.714  0.00  0.00    +0.000 C 
ATOM     11  S   UNL     1       1.768   4.093  17.554  0.00  0.00    +0.000 S 
BRANCH  10  12
ATOM     12  C   UNL     1       0.808   3.459  20.031  0.00  0.00    +0.000 C 
ATOM     13 BR   UNL     1       1.715   2.601  21.536  0.00  0.00    +0.000 Br
ENDBRANCH  10  12
ENDBRANCH   4   7
BRANCH   1  14
ATOM     14  O   UNL     1       7.329   7.774  16.918  0.00  0.00    +0.000 OA
BRANCH  14  16
ATOM     15  C   UNL     1       8.363   9.595  18.041  0.00  0.00    +0.000 C 
ATOM     16  C   UNL     1       8.199   8.088  18.007  0.00  0.00    +0.000 C 
ENDBRANCH  14  16
ENDBRANCH   1  14
TORSDOF 4
ENDMDL
MODEL 6
REMARK VINA RESULT:      -5.9      2.709      3.414
REMARK  Name = 
REMARK  5 active torsions:
REMARK  status: ('A' for Active; 'I' for Inactive)
REMARK    1  A    between atoms: C_1  and  C_2
REMARK    2  A    between atoms: C_2  and  O_3
REMARK    3  A    between atoms: O_3  and  C_4
REMARK    4  A    between atoms: C_7  and  C_8
REMARK    5  A    between atoms: C_11  and  C_12
REMARK                            x       y       z     vdW  Elec       q    Type
REMARK                         _______ _______ _______ _____ _____    ______ ____
ROOT
ATOM      1  C   UNL     1       6.630   4.642  16.048  0.00  0.00    +0.000 A 
ATOM      2  C   UNL     1       5.260   4.494  15.841  0.00  0.00    +0.000 A 
ATOM      3  C   UNL     1       4.385   4.441  16.928  0.00  0.00    +0.000 A 
ATOM      4  C   UNL     1       4.869   4.520  18.241  0.00  0.00    +0.000 A 
ATOM      5  C   UNL     1       6.250   4.640  18.442  0.00  0.00    +0.000 A 
ATOM      6  C   UNL     1       7.127   4.694  17.351  0.00  0.00    +0.000 A 
ENDROOT
BRANCH   4   7
ATOM      7  C   UNL     1       3.885   4.460  19.353  0.00  0.00    +0.000 C 
ATOM      8  N   UNL     1       3.250   5.503  19.775  0.00  0.00    +0.000 NA
ATOM      9  C   UNL     1       2.400   5.158  20.931  0.00  0.00    +0.000 C 
ATOM     10  C   UNL     1       2.019   3.680  20.889  0.00  0.00    +0.000 C 
ATOM     11  S   UNL     1       3.508   2.946  20.150  0.00  0.00    +0.000 S 
BRANCH  10  12
ATOM     12  C   UNL     1       0.813   3.366  20.014  0.00  0.00    +0.000 C 
ATOM     13 BR   UNL     1       1.284   2.087  18.612  0.00  0.00    +0.000 Br
ENDBRANCH  10  12
ENDBRANCH   4   7
BRANCH   1  14
ATOM     14  O   UNL     1       7.383   4.707  14.910  0.00  0.00    +0.000 OA
BRANCH  14  16
ATOM     15  C   UNL     1       7.544   4.830  12.542  0.00  0.00    +0.000 C 
ATOM     16  C   UNL     1       6.749   4.270  13.706  0.00  0.00    +0.000 C 
ENDBRANCH  14  16
ENDBRANCH   1  14
TORSDOF 4
ENDMDL
MODEL 7
REMARK VINA RESULT:      -5.9      2.642      3.396
REMARK  Name = 
REMARK  5 active torsions:
REMARK  status: ('A' for Active; 'I' for Inactive)
REMARK    1  A    between atoms: C_1  and  C_2
REMARK    2  A    between atoms: C_2  and  O_3
REMARK    3  A    between atoms: O_3  and  C_4
REMARK    4  A    between atoms: C_7  and  C_8
REMARK    5  A    between atoms: C_11  and  C_12
REMARK                            x       y       z     vdW  Elec       q    Type
REMARK                         _______ _______ _______ _____ _____    ______ ____
ROOT
ATOM      1  C   UNL     1       6.522   4.654  16.127  0.00  0.00    +0.000 A 
ATOM      2  C   UNL     1       6.921   4.955  17.428  0.00  0.00    +0.000 A 
ATOM      3  C   UNL     1       6.022   4.826  18.489  0.00  0.00    +0.000 A 
ATOM      4  C   UNL     1       4.703   4.408  18.262  0.00  0.00    +0.000 A 
ATOM      5  C   UNL     1       4.300   4.135  16.949  0.00  0.00    +0.000 A 
ATOM      6  C   UNL     1       5.204   4.264  15.886  0.00  0.00    +0.000 A 
ENDROOT
BRANCH   4   7
ATOM      7  C   UNL     1       3.797   4.289  19.434  0.00  0.00    +0.000 C 
ATOM      8  N   UNL     1       3.171   5.305  19.933  0.00  0.00    +0.000 NA
ATOM      9  C   UNL     1       2.406   4.903  21.129  0.00  0.00    +0.000 C 
ATOM     10  C   UNL     1       2.051   3.419  21.061  0.00  0.00    +0.000 C 
ATOM     11  S   UNL     1       3.502   2.742  20.200  0.00  0.00    +0.000 S 
BRANCH  10  12
ATOM     12  C   UNL     1       0.797   3.110  20.256  0.00  0.00    +0.000 C 
ATOM     13 BR   UNL     1       1.247   2.202  18.584  0.00  0.00    +0.000 Br
ENDBRANCH  10  12
ENDBRANCH   4   7
BRANCH   1  14
ATOM     14  O   UNL     1       7.494   4.793  15.178  0.00  0.00    +0.000 OA
BRANCH  14  16
ATOM     15  C   UNL     1       8.138   5.431  12.981  0.00  0.00    +0.000 C 
ATOM     16  C   UNL     1       7.058   4.772  13.818  0.00  0.00    +0.000 C 
ENDBRANCH  14  16
ENDBRANCH   1  14
TORSDOF 4
ENDMDL
MODEL 8
REMARK VINA RESULT:      -5.8      2.780      3.557
REMARK  Name = 
REMARK  5 active torsions:
REMARK  status: ('A' for Active; 'I' for Inactive)
REMARK    1  A    between atoms: C_1  and  C_2
REMARK    2  A    between atoms: C_2  and  O_3
REMARK    3  A    between atoms: O_3  and  C_4
REMARK    4  A    between atoms: C_7  and  C_8
REMARK    5  A    between atoms: C_11  and  C_12
REMARK                            x       y       z     vdW  Elec       q    Type
REMARK                         _______ _______ _______ _____ _____    ______ ____
ROOT
ATOM      1  C   UNL     1       5.868   5.150  15.438  0.00  0.00    +0.000 A 
ATOM      2  C   UNL     1       5.255   6.302  15.928  0.00  0.00    +0.000 A 
ATOM      3  C   UNL     1       4.458   6.245  17.073  0.00  0.00    +0.000 A 
ATOM      4  C   UNL     1       4.248   5.029  17.739  0.00  0.00    +0.000 A 
ATOM      5  C   UNL     1       4.843   3.869  17.224  0.00  0.00    +0.000 A 
ATOM      6  C   UNL     1       5.644   3.929  16.077  0.00  0.00    +0.000 A 
ENDROOT
BRANCH   4   7
ATOM      7  C   UNL     1       3.391   5.035  18.952  0.00  0.00    +0.000 C 
ATOM      8  N   UNL     1       2.630   6.035  19.259  0.00  0.00    +0.000 NA
ATOM      9  C   UNL     1       1.955   5.793  20.548  0.00  0.00    +0.000 C 
ATOM     10  C   UNL     1       1.824   4.294  20.808  0.00  0.00    +0.000 C 
ATOM     11  S   UNL     1       3.344   3.661  20.037  0.00  0.00    +0.000 S 
BRANCH  10  12
ATOM     12  C   UNL     1       0.615   3.645  20.148  0.00  0.00    +0.000 C 
ATOM     13 BR   UNL     1       1.170   2.253  18.893  0.00  0.00    +0.000 Br
ENDBRANCH  10  12
ENDBRANCH   4   7
BRANCH   1  14
ATOM     14  O   UNL     1       6.643   5.334  14.329  0.00  0.00    +0.000 OA
BRANCH  14  16
ATOM     15  C   UNL     1       7.418   4.742  12.162  0.00  0.00    +0.000 C 
ATOM     16  C   UNL     1       6.670   4.258  13.390  0.00  0.00    +0.000 C 
ENDBRANCH  14  16
ENDBRANCH   1  14
TORSDOF 4
ENDMDL
MODEL 9
REMARK VINA RESULT:      -5.8      2.370      3.161
REMARK  Name = 
REMARK  5 active torsions:
REMARK  status: ('A' for Active; 'I' for Inactive)
REMARK    1  A    between atoms: C_1  and  C_2
REMARK    2  A    between atoms: C_2  and  O_3
REMARK    3  A    between atoms: O_3  and  C_4
REMARK    4  A    between atoms: C_7  and  C_8
REMARK    5  A    between atoms: C_11  and  C_12
REMARK                            x       y       z     vdW  Elec       q    Type
REMARK                         _______ _______ _______ _____ _____    ______ ____
ROOT
ATOM      1  C   UNL     1       6.423   5.307  15.647  0.00  0.00    +0.000 A 
ATOM      2  C   UNL     1       5.930   4.044  15.968  0.00  0.00    +0.000 A 
ATOM      3  C   UNL     1       4.815   3.912  16.799  0.00  0.00    +0.000 A 
ATOM      4  C   UNL     1       4.185   5.043  17.335  0.00  0.00    +0.000 A 
ATOM      5  C   UNL     1       4.704   6.309  17.032  0.00  0.00    +0.000 A 
ATOM      6  C   UNL     1       5.821   6.439  16.197  0.00  0.00    +0.000 A 
ENDROOT
BRANCH   4   7
ATOM      7  C   UNL     1       3.002   4.835  18.210  0.00  0.00    +0.000 C 
ATOM      8  N   UNL     1       2.322   3.736  18.209  0.00  0.00    +0.000 NA
ATOM      9  C   UNL     1       1.166   3.842  19.119  0.00  0.00    +0.000 C 
ATOM     10  C   UNL     1       1.445   4.867  20.216  0.00  0.00    +0.000 C 
ATOM     11  S   UNL     1       2.471   6.076  19.327  0.00  0.00    +0.000 S 
BRANCH  10  12
ATOM     12  C   UNL     1       2.225   4.320  21.404  0.00  0.00    +0.000 C 
ATOM     13 BR   UNL     1       1.769   2.447  21.734  0.00  0.00    +0.000 Br
ENDBRANCH  10  12
ENDBRANCH   4   7
BRANCH   1  14
ATOM     14  O   UNL     1       7.500   5.311  14.808  0.00  0.00    +0.000 OA
BRANCH  14  16
ATOM     15  C   UNL     1       8.051   5.615  12.516  0.00  0.00    +0.000 C 
ATOM     16  C   UNL     1       7.291   4.755  13.508  0.00  0.00    +0.000 C 
ENDBRANCH  14  16
ENDBRANCH   1  14
TORSDOF 4
ENDMDL
