MODEL 1
REMARK VINA RESULT:      -6.0      0.000      0.000
REMARK  Name = 
REMARK  3 active torsions:
REMARK  status: ('A' for Active; 'I' for Inactive)
REMARK    1  A    between atoms: O_1  and  C_2
REMARK    2  A    between atoms: C_6  and  C_7
REMARK    3  A    between atoms: C_7  and  C_8
REMARK                            x       y       z     vdW  Elec       q    Type
REMARK                         _______ _______ _______ _____ _____    ______ ____
ROOT
ATOM      1  C   UNL     1       7.606   5.723  19.207  0.00  0.00    +0.000 A 
ATOM      2  C   UNL     1       7.967   6.937  18.633  0.00  0.00    +0.000 A 
ATOM      3  C   UNL     1       7.543   7.233  17.338  0.00  0.00    +0.000 A 
ATOM      4  C   UNL     1       6.759   6.319  16.630  0.00  0.00    +0.000 A 
ATOM      5  C   UNL     1       6.378   5.103  17.216  0.00  0.00    +0.000 A 
ATOM      6  C   UNL     1       6.822   4.808  18.512  0.00  0.00    +0.000 A 
ENDROOT
BRANCH   1   7
ATOM      7  O   UNL     1       8.004   5.389  20.469  0.00  0.00    +0.000 OA
ATOM      8  H   UNL     1       7.222   5.123  20.979  0.00  0.00    +0.000 HD
ENDBRANCH   1   7
BRANCH   5   9
ATOM      9  C   UNL     1       5.513   4.127  16.456  0.00  0.00    +0.000 C 
BRANCH   9  10
ATOM     10  C   UNL     1       4.302   3.676  17.237  0.00  0.00    +0.000 C 
ATOM     11  N   UNL     1       3.292   4.483  17.459  0.00  0.00    +0.000 NA
ATOM     12  C   UNL     1       2.342   3.652  18.259  0.00  0.00    +0.000 C 
ATOM     13  C   UNL     1       2.800   2.202  18.084  0.00  0.00    +0.000 C 
ATOM     14  N   UNL     1       4.190   2.400  17.743  0.00  0.00    +0.000 N 
ATOM     15  H   UNL     1       4.648   1.665  17.214  0.00  0.00    +0.000 HD
ENDBRANCH   9  10
ENDBRANCH   5   9
TORSDOF 3
ENDMDL
MODEL 2
REMARK VINA RESULT:      -6.0      2.703      5.070
REMARK  Name = 
REMARK  3 active torsions:
REMARK  status: ('A' for Active; 'I' for Inactive)
REMARK    1  A    between atoms: O_1  and  C_2
REMARK    2  A    between atoms: C_6  and  C_7
REMARK    3  A    between atoms: C_7  and  C_8
REMARK                            x       y       z     vdW  Elec       q    Type
REMARK                         _______ _______ _______ _____ _____    ______ ____
ROOT
ATOM      1  C   UNL     1       1.969   2.627  18.344  0.00  0.00    +0.000 A 
ATOM      2  C   UNL     1       1.347   3.810  18.730  0.00  0.00    +0.000 A 
ATOM      3  C   UNL     1       1.933   5.030  18.396  0.00  0.00    +0.000 A 
ATOM      4  C   UNL     1       3.131   5.060  17.676  0.00  0.00    +0.000 A 
ATOM      5  C   UNL     1       3.748   3.868  17.270  0.00  0.00    +0.000 A 
ATOM      6  C   UNL     1       3.159   2.646  17.623  0.00  0.00    +0.000 A 
ENDROOT
BRANCH   1   7
ATOM      7  O   UNL     1       1.434   1.411  18.656  0.00  0.00    +0.000 OA
ATOM      8  H   UNL     1       1.649   1.208  19.580  0.00  0.00    +0.000 HD
ENDBRANCH   1   7
BRANCH   5   9
ATOM      9  C   UNL     1       5.030   3.904  16.473  0.00  0.00    +0.000 C 
BRANCH   9  10
ATOM     10  C   UNL     1       6.096   4.767  17.104  0.00  0.00    +0.000 C 
ATOM     11  N   UNL     1       6.351   5.973  16.659  0.00  0.00    +0.000 NA
ATOM     12  C   UNL     1       7.456   6.452  17.544  0.00  0.00    +0.000 C 
ATOM     13  C   UNL     1       7.468   5.510  18.750  0.00  0.00    +0.000 C 
ATOM     14  N   UNL     1       6.840   4.340  18.181  0.00  0.00    +0.000 N 
ATOM     15  H   UNL     1       6.380   3.702  18.822  0.00  0.00    +0.000 HD
ENDBRANCH   9  10
ENDBRANCH   5   9
TORSDOF 3
ENDMDL
MODEL 3
REMARK VINA RESULT:      -5.9      3.031      5.504
REMARK  Name = 
REMARK  3 active torsions:
REMARK  status: ('A' for Active; 'I' for Inactive)
REMARK    1  A    between atoms: O_1  and  C_2
REMARK    2  A    between atoms: C_6  and  C_7
REMARK    3  A    between atoms: C_7  and  C_8
REMARK                            x       y       z     vdW  Elec       q    Type
REMARK                         _______ _______ _______ _____ _____    ______ ____
ROOT
ATOM      1  C   UNL     1       1.007   2.941  18.948  0.00  0.00    +0.000 A 
ATOM      2  C   UNL     1       0.926   3.182  20.315  0.00  0.00    +0.000 A 
ATOM      3  C   UNL     1       1.637   4.249  20.863  0.00  0.00    +0.000 A 
ATOM      4  C   UNL     1       2.418   5.068  20.044  0.00  0.00    +0.000 A 
ATOM      5  C   UNL     1       2.485   4.836  18.662  0.00  0.00    +0.000 A 
ATOM      6  C   UNL     1       1.779   3.753  18.122  0.00  0.00    +0.000 A 
ENDROOT
BRANCH   1   7
ATOM      7  O   UNL     1       0.334   1.905  18.370  0.00  0.00    +0.000 OA
ATOM      8  H   UNL     1      -0.044   2.212  17.530  0.00  0.00    +0.000 HD
ENDBRANCH   1   7
BRANCH   5   9
ATOM      9  C   UNL     1       3.312   5.736  17.776  0.00  0.00    +0.000 C 
BRANCH   9  10
ATOM     10  C   UNL     1       4.654   5.143  17.418  0.00  0.00    +0.000 C 
ATOM     11  N   UNL     1       4.948   4.812  16.184  0.00  0.00    +0.000 NA
ATOM     12  C   UNL     1       6.336   4.268  16.282  0.00  0.00    +0.000 C 
ATOM     13  C   UNL     1       6.872   4.727  17.641  0.00  0.00    +0.000 C 
ATOM     14  N   UNL     1       5.637   4.934  18.360  0.00  0.00    +0.000 N 
ATOM     15  H   UNL     1       5.656   5.582  19.141  0.00  0.00    +0.000 HD
ENDBRANCH   9  10
ENDBRANCH   5   9
TORSDOF 3
ENDMDL
MODEL 4
REMARK VINA RESULT:      -5.9      2.865      5.277
REMARK  Name = 
REMARK  3 active torsions:
REMARK  status: ('A' for Active; 'I' for Inactive)
REMARK    1  A    between atoms: O_1  and  C_2
REMARK    2  A    between atoms: C_6  and  C_7
REMARK    3  A    between atoms: C_7  and  C_8
REMARK                            x       y       z     vdW  Elec       q    Type
REMARK                         _______ _______ _______ _____ _____    ______ ____
ROOT
ATOM      1  C   UNL     1       2.123   2.561  19.138  0.00  0.00    +0.000 A 
ATOM      2  C   UNL     1       1.061   3.002  19.919  0.00  0.00    +0.000 A 
ATOM      3  C   UNL     1       1.148   4.240  20.555  0.00  0.00    +0.000 A 
ATOM      4  C   UNL     1       2.292   5.029  20.402  0.00  0.00    +0.000 A 
ATOM      5  C   UNL     1       3.356   4.593  19.599  0.00  0.00    +0.000 A 
ATOM      6  C   UNL     1       3.265   3.340  18.976  0.00  0.00    +0.000 A 
ENDROOT
BRANCH   1   7
ATOM      7  O   UNL     1       2.083   1.354  18.503  0.00  0.00    +0.000 OA
ATOM      8  H   UNL     1       1.194   0.979  18.610  0.00  0.00    +0.000 HD
ENDBRANCH   1   7
BRANCH   5   9
ATOM      9  C   UNL     1       4.580   5.457  19.418  0.00  0.00    +0.000 C 
BRANCH   9  10
ATOM     10  C   UNL     1       5.407   5.069  18.215  0.00  0.00    +0.000 C 
ATOM     11  N   UNL     1       5.068   5.442  17.005  0.00  0.00    +0.000 NA
ATOM     12  C   UNL     1       6.129   4.844  16.139  0.00  0.00    +0.000 C 
ATOM     13  C   UNL     1       7.273   4.457  17.081  0.00  0.00    +0.000 C 
ATOM     14  N   UNL     1       6.557   4.320  18.328  0.00  0.00    +0.000 N 
ATOM     15  H   UNL     1       7.088   4.437  19.184  0.00  0.00    +0.000 HD
ENDBRANCH   9  10
ENDBRANCH   5   9
TORSDOF 3
ENDMDL
MODEL 5
REMARK VINA RESULT:      -5.8      3.051      5.532
REMARK  Name = 
REMARK  3 active torsions:
REMARK  status: ('A' for Active; 'I' for Inactive)
REMARK    1  A    between atoms: O_1  and  C_2
REMARK    2  A    between atoms: C_6  and  C_7
REMARK    3  A    between atoms: C_7  and  C_8
REMARK                            x       y       z     vdW  Elec       q    Type
REMARK                         _______ _______ _______ _____ _____    ______ ____
ROOT
ATOM      1  C   UNL     1       1.006   2.920  18.982  0.00  0.00    +0.000 A 
ATOM      2  C   UNL     1       0.979   3.052  20.367  0.00  0.00    +0.000 A 
ATOM      3  C   UNL     1       1.695   4.085  20.969  0.00  0.00    +0.000 A 
ATOM      4  C   UNL     1       2.428   4.981  20.186  0.00  0.00    +0.000 A 
ATOM      5  C   UNL     1       2.441   4.860  18.789  0.00  0.00    +0.000 A 
ATOM      6  C   UNL     1       1.729   3.809  18.193  0.00  0.00    +0.000 A 
ENDROOT
BRANCH   1   7
ATOM      7  O   UNL     1       0.326   1.920  18.352  0.00  0.00    +0.000 OA
ATOM      8  H   UNL     1      -0.048   1.329  19.025  0.00  0.00    +0.000 HD
ENDBRANCH   1   7
BRANCH   5   9
ATOM      9  C   UNL     1       3.215   5.843  17.944  0.00  0.00    +0.000 C 
BRANCH   9  10
ATOM     10  C   UNL     1       4.592   5.347  17.571  0.00  0.00    +0.000 C 
ATOM     11  N   UNL     1       5.528   5.185  18.474  0.00  0.00    +0.000 NA
ATOM     12  C   UNL     1       6.703   4.702  17.686  0.00  0.00    +0.000 C 
ATOM     13  C   UNL     1       6.146   4.253  16.333  0.00  0.00    +0.000 C 
ATOM     14  N   UNL     1       4.929   5.028  16.274  0.00  0.00    +0.000 N 
ATOM     15  H   UNL     1       4.180   4.674  15.689  0.00  0.00    +0.000 HD
ENDBRANCH   9  10
ENDBRANCH   5   9
TORSDOF 3
ENDMDL
MODEL 6
REMARK VINA RESULT:      -5.8      2.053      2.826
REMARK  Name = 
REMARK  3 active torsions:
REMARK  status: ('A' for Active; 'I' for Inactive)
REMARK    1  A    between atoms: O_1  and  C_2
REMARK    2  A    between atoms: C_6  and  C_7
REMARK    3  A    between atoms: C_7  and  C_8
REMARK                            x       y       z     vdW  Elec       q    Type
REMARK                         _______ _______ _______ _____ _____    ______ ____
ROOT
ATOM      1  C   UNL     1       6.674   5.916  16.570  0.00  0.00    +0.000 A 
ATOM      2  C   UNL     1       6.874   4.749  15.839  0.00  0.00    +0.000 A 
ATOM      3  C   UNL     1       5.842   3.816  15.747  0.00  0.00    +0.000 A 
ATOM      4  C   UNL     1       4.620   4.055  16.380  0.00  0.00    +0.000 A 
ATOM      5  C   UNL     1       4.412   5.240  17.102  0.00  0.00    +0.000 A 
ATOM      6  C   UNL     1       5.460   6.166  17.201  0.00  0.00    +0.000 A 
ENDROOT
BRANCH   1   7
ATOM      7  O   UNL     1       7.658   6.852  16.692  0.00  0.00    +0.000 OA
ATOM      8  H   UNL     1       7.279   7.646  17.104  0.00  0.00    +0.000 HD
ENDBRANCH   1   7
BRANCH   5   9
ATOM      9  C   UNL     1       3.082   5.506  17.766  0.00  0.00    +0.000 C 
BRANCH   9  10
ATOM     10  C   UNL     1       2.434   4.258  18.314  0.00  0.00    +0.000 C 
ATOM     11  N   UNL     1       1.341   3.766  17.783  0.00  0.00    +0.000 NA
ATOM     12  C   UNL     1       1.047   2.565  18.623  0.00  0.00    +0.000 C 
ATOM     13  C   UNL     1       2.333   2.268  19.398  0.00  0.00    +0.000 C 
ATOM     14  N   UNL     1       2.959   3.569  19.385  0.00  0.00    +0.000 N 
ATOM     15  H   UNL     1       3.968   3.600  19.488  0.00  0.00    +0.000 HD
ENDBRANCH   9  10
ENDBRANCH   5   9
TORSDOF 3
ENDMDL
MODEL 7
REMARK VINA RESULT:      -5.8      1.530      2.085
REMARK  Name = 
REMARK  3 active torsions:
REMARK  status: ('A' for Active; 'I' for Inactive)
REMARK    1  A    between atoms: O_1  and  C_2
REMARK    2  A    between atoms: C_6  and  C_7
REMARK    3  A    between atoms: C_7  and  C_8
REMARK                            x       y       z     vdW  Elec       q    Type
REMARK                         _______ _______ _______ _____ _____    ______ ____
ROOT
ATOM      1  C   UNL     1       7.430   5.799  19.360  0.00  0.00    +0.000 A 
ATOM      2  C   UNL     1       8.023   6.802  18.602  0.00  0.00    +0.000 A 
ATOM      3  C   UNL     1       7.394   7.241  17.437  0.00  0.00    +0.000 A 
ATOM      4  C   UNL     1       6.177   6.679  17.042  0.00  0.00    +0.000 A 
ATOM      5  C   UNL     1       5.569   5.681  17.817  0.00  0.00    +0.000 A 
ATOM      6  C   UNL     1       6.216   5.236  18.978  0.00  0.00    +0.000 A 
ENDROOT
BRANCH   1   7
ATOM      7  O   UNL     1       8.013   5.335  20.502  0.00  0.00    +0.000 OA
ATOM      8  H   UNL     1       8.591   6.030  20.857  0.00  0.00    +0.000 HD
ENDBRANCH   1   7
BRANCH   5   9
ATOM      9  C   UNL     1       4.243   5.092  17.400  0.00  0.00    +0.000 C 
BRANCH   9  10
ATOM     10  C   UNL     1       3.214   5.108  18.504  0.00  0.00    +0.000 C 
ATOM     11  N   UNL     1       2.744   3.996  19.017  0.00  0.00    +0.000 NA
ATOM     12  C   UNL     1       1.767   4.464  20.046  0.00  0.00    +0.000 C 
ATOM     13  C   UNL     1       2.079   5.944  20.281  0.00  0.00    +0.000 C 
ATOM     14  N   UNL     1       2.727   6.281  19.036  0.00  0.00    +0.000 N 
ATOM     15  H   UNL     1       3.366   7.070  19.042  0.00  0.00    +0.000 HD
ENDBRANCH   9  10
ENDBRANCH   5   9
TORSDOF 3
ENDMDL
MODEL 8
REMARK VINA RESULT:      -5.8      2.847      5.287
REMARK  Name = 
REMARK  3 active torsions:
REMARK  status: ('A' for Active; 'I' for Inactive)
REMARK    1  A    between atoms: O_1  and  C_2
REMARK    2  A    between atoms: C_6  and  C_7
REMARK    3  A    between atoms: C_7  and  C_8
REMARK                            x       y       z     vdW  Elec       q    Type
REMARK                         _______ _______ _______ _____ _____    ______ ____
ROOT
ATOM      1  C   UNL     1       1.458   3.237  19.713  0.00  0.00    +0.000 A 
ATOM      2  C   UNL     1       1.435   2.175  18.815  0.00  0.00    +0.000 A 
ATOM      3  C   UNL     1       2.276   2.203  17.703  0.00  0.00    +0.000 A 
ATOM      4  C   UNL     1       3.135   3.286  17.498  0.00  0.00    +0.000 A 
ATOM      5  C   UNL     1       3.172   4.348  18.414  0.00  0.00    +0.000 A 
ATOM      6  C   UNL     1       2.313   4.318  19.521  0.00  0.00    +0.000 A 
ENDROOT
BRANCH   1   7
ATOM      7  O   UNL     1       0.649   3.255  20.811  0.00  0.00    +0.000 OA
ATOM      8  H   UNL     1       1.193   3.097  21.598  0.00  0.00    +0.000 HD
ENDBRANCH   1   7
BRANCH   5   9
ATOM      9  C   UNL     1       4.117   5.506  18.202  0.00  0.00    +0.000 C 
BRANCH   9  10
ATOM     10  C   UNL     1       5.443   5.089  17.611  0.00  0.00    +0.000 C 
ATOM     11  N   UNL     1       5.755   5.366  16.368  0.00  0.00    +0.000 NA
ATOM     12  C   UNL     1       7.117   4.774  16.203  0.00  0.00    +0.000 C 
ATOM     13  C   UNL     1       7.635   4.509  17.619  0.00  0.00    +0.000 C 
ATOM     14  N   UNL     1       6.391   4.412  18.345  0.00  0.00    +0.000 N 
ATOM     15  H   UNL     1       6.416   4.611  19.340  0.00  0.00    +0.000 HD
ENDBRANCH   9  10
ENDBRANCH   5   9
TORSDOF 3
ENDMDL
MODEL 9
REMARK VINA RESULT:      -5.8      1.587      2.066
REMARK  Name = 
REMARK  3 active torsions:
REMARK  status: ('A' for Active; 'I' for Inactive)
REMARK    1  A    between atoms: O_1  and  C_2
REMARK    2  A    between atoms: C_6  and  C_7
REMARK    3  A    between atoms: C_7  and  C_8
REMARK                            x       y       z     vdW  Elec       q    Type
REMARK                         _______ _______ _______ _____ _____    ______ ____
ROOT
ATOM      1  C   UNL     1       6.934   5.270  19.003  0.00  0.00    +0.000 A 
ATOM      2  C   UNL     1       7.546   4.780  17.854  0.00  0.00    +0.000 A 
ATOM      3  C   UNL     1       6.766   4.489  16.736  0.00  0.00    +0.000 A 
ATOM      4  C   UNL     1       5.384   4.693  16.771  0.00  0.00    +0.000 A 
ATOM      5  C   UNL     1       4.769   5.206  17.923  0.00  0.00    +0.000 A 
ATOM      6  C   UNL     1       5.560   5.481  19.047  0.00  0.00    +0.000 A 
ENDROOT
BRANCH   1   7
ATOM      7  O   UNL     1       7.658   5.561  20.121  0.00  0.00    +0.000 OA
ATOM      8  H   UNL     1       8.008   6.463  20.036  0.00  0.00    +0.000 HD
ENDBRANCH   1   7
BRANCH   5   9
ATOM      9  C   UNL     1       3.279   5.446  17.950  0.00  0.00    +0.000 C 
BRANCH   9  10
ATOM     10  C   UNL     1       2.494   4.249  18.432  0.00  0.00    +0.000 C 
ATOM     11  N   UNL     1       1.522   3.736  17.717  0.00  0.00    +0.000 NA
ATOM     12  C   UNL     1       1.025   2.603  18.554  0.00  0.00    +0.000 C 
ATOM     13  C   UNL     1       2.113   2.343  19.600  0.00  0.00    +0.000 C 
ATOM     14  N   UNL     1       2.766   3.631  19.632  0.00  0.00    +0.000 N 
ATOM     15  H   UNL     1       3.731   3.655  19.942  0.00  0.00    +0.000 HD
ENDBRANCH   9  10
ENDBRANCH   5   9
TORSDOF 3
ENDMDL
